version 2
run First-n3-18-20191125-12:37:13-6164
attr configname First-n3
attr datetime 20191125-12:37:13
attr experiment First-n3
attr inifile omnetpp.ini
attr iterationvars ""
attr iterationvarsf ""
attr measurement ""
attr network org.omnetpp.queueing.Pizza
attr processid 6164
attr repetition 18
attr replication ""
attr resultdir results_no_transient
attr runnumber 18
attr seedset 18
param **.PS.maxInventoriedPS 3
param **.U1.interArrivalTime exponential(2s)
param **.U2.interArrivalTime exponential(4s)
param **.PS.serviceTimeForInventoryU1 exponential(0.8s)
param **.PS.serviceTimeForInventoryU2 exponential(1.0s)
param **.PS.serviceTimeDirectU1 exponential(1.2s)
param **.PS.serviceTimeDirectU2 exponential(1.4s)
param **.PS.probabilityProducing 0.5
param **.CS.serviceTimeU1 exponential(0.8s)
param **.CS.serviceTimeU2 exponential(1.0s)

vector 0 Pizza.EntryQueueU1 queueLength:vector ETV
attr interpolationmode sample-hold
attr title "queue length, vector"
vector 1 Pizza.CS queueLength:vector ETV
attr interpolationmode sample-hold
attr title "queue length, vector"
vector 2 Pizza.EntryQueueU2 queueLength:vector ETV
attr interpolationmode sample-hold
attr title "queue length, vector"
vector 3 Pizza.sink lifeTime:vector ETV
attr interpolationmode none
attr title "lifetime of arrived jobs, vector"
attr unit s
vector 4 Pizza.sink lifeTimeU2:vector ETV
attr interpolationmode none
attr title "lifetime of arrived jobs, vector"
attr unit s
vector 5 Pizza.sink lifeTimeU1:vector ETV
attr interpolationmode none
attr title "lifetime of arrived jobs, vector"
attr unit s
0	0	0	0
0	13	2.558026770941	1
0	15	2.581173658892	2
0	20	4.003604927843	1
0	24	4.775011115572	2
0	26	4.832439629344	3
0	31	6.92441673768	2
0	37	8.795808639043	1
0	44	9.488702830233	0
0	67	12.560094858392	1
0	68	13.021618257303	0
0	79	14.329683956091	1
0	83	15.974998281959	0
0	94	17.625275742601	1
0	98	18.521612559296	2
0	99	19.761169880585	1
0	106	21.666612326032	0
0	121	24.322028539024	1
0	122	24.597479063056	0
0	257	53.831185275814	1
0	259	54.559275429713	2
0	261	54.996694585658	3
0	262	55.067774194544	2
0	269	56.252720868188	3
0	271	56.273399999337	4
0	272	56.503380602457	3
0	278	57.726606100688	2
0	283	58.341704957528	1
0	288	58.858756252293	0
0	292	59.527934157373	1
0	294	61.61272232341	2
0	298	62.154306477981	3
0	300	62.539272870903	4
0	304	64.089485083829	5
0	306	64.426508588136	6
0	309	64.881531019021	5
0	313	65.642490040768	6
0	316	66.335921413253	5
0	321	67.126711598709	4
0	326	68.336999853631	3
0	331	69.34644346506	2
0	337	70.929086629903	1
0	345	71.646689962503	0
0	352	72.386301404733	1
0	354	72.644969379125	2
0	355	73.416910374932	1
0	360	73.653312896289	0
0	366	75.784732882536	1
0	368	76.111479573708	2
0	371	76.89770079874	1
0	375	77.203818106719	2
0	377	78.482926971636	3
0	381	78.786058162987	4
0	382	79.548647413922	3
0	389	80.146575153088	2
0	394	80.418232231781	1
0	398	80.50922622373	2
0	401	81.9426185878	1
0	408	82.412576296726	0
0	414	83.894731356552	1
0	420	85.403834304244	2
0	421	85.666523439327	1
0	425	86.194103968509	2
0	427	86.516182566375	3
0	430	87.482124709914	2
0	437	90.577922773582	1
0	442	91.861103149052	0
0	454	94.883220277567	1
0	455	96.254284179113	0
0	480	99.012261682776	1
0	482	99.732304117261	0
0	489	99.825891471721	1
1	0	0	0
2	0	0	0
2	17	3.132674834365	1
2	28	5.359395578063	2
2	43	9.398715797703	3
2	50	11.513046990454	2
2	56	12.249078955393	1
2	61	12.469004294746	0
2	89	17.309897929885	1
2	90	17.382692682634	0
2	103	20.472516809627	1
2	113	23.763242299824	2
2	115	24.271952453085	1
2	127	24.802013122536	0
2	150	27.288456088737	1
2	152	28.238375542252	0
2	242	52.041049395493	1
2	243	52.424304890828	0
2	296	61.916414642958	1
2	308	64.596233313714	2
2	343	71.003503310395	3
2	364	74.511979281546	4
2	388	80.014360812245	5
2	405	82.160417833451	6
2	412	83.273230064786	7
2	418	84.413763748544	8
2	434	89.29939440129	9
2	448	94.128242303798	8
2	461	97.174257407408	7
2	466	97.182000974042	6
2	474	98.701623041143	5
3	7	1.310347029447	0.994127584796
3	22	4.003604927843	1.901821000403
3	33	6.92441673768	4.366389966739
3	39	8.795808639043	6.214634980151
3	46	9.488702830233	4.713691714661
3	52	11.513046990454	6.68060736111
3	58	12.249078955393	9.116404121028
3	63	12.469004294746	7.109608716683
3	70	13.021618257303	3.6229024596
3	74	13.190288828974	0.630193970582
3	85	15.974998281959	2.120083370939
3	92	17.382692682634	3.053008726543
3	101	19.761169880585	2.4512719507
3	108	21.666612326032	4.041336583431
3	117	24.271952453085	5.750339893789
3	124	24.597479063056	4.124962253429
3	129	24.802013122536	0.479984583512
3	133	24.907210016726	1.143967716902
3	142	27.100227578661	0.79594613179
3	154	28.238375542252	1.119898740579
3	159	28.638890188797	1.35043410006
3	169	32.59947265408	0.685666005228
3	176	33.288246552513	0.218056499342
3	183	36.583088272881	0.534164202941
3	190	37.149686123456	0.495907582813
3	200	39.094328819447	0.116606926769
3	210	41.377110657965	0.22272220097
3	217	42.801902210908	0.857977652298
3	225	47.503744024823	4.446542665245
3	234	50.203702588736	1.238185281334
3	245	52.424304890828	0.730652403807
3	249	52.611583106111	0.570533710618
3	264	55.067774194544	2.102015167259
3	274	56.503380602457	2.672195326643
3	280	57.726606100688	3.167330670975
3	285	58.341704957528	3.34501037187
3	290	58.858756252293	2.606035384105
3	311	64.881531019021	8.608131019684
3	318	66.335921413253	6.80798725588
3	323	67.126711598709	5.513989275299
3	328	68.336999853631	6.18269337565
3	333	69.34644346506	6.807170594157
3	339	70.929086629903	6.839601546074
3	347	71.646689962503	7.220181374367
3	357	73.416910374932	7.774420334164
3	362	73.653312896289	1.267011491556
3	373	76.89770079874	4.252731419615
3	384	79.548647413922	3.763914531386
3	391	80.146575153088	4.03509557938
3	396	80.418232231781	3.214414125062
3	403	81.9426185878	3.459691616164
3	410	82.412576296726	3.626518133739
3	423	85.666523439327	5.157297215597
3	432	87.482124709914	3.587393353362
3	439	90.577922773582	5.174088469338
3	444	91.861103149052	5.666999180543
3	450	94.128242303798	7.612059737423
3	457	96.254284179113	34.337869536155
3	463	97.174257407408	2.291037129841
3	468	97.182000974042	32.585767660328
3	476	98.701623041143	27.698119730748
3	484	99.732304117261	25.220324835715
4	7	1.310347029447	0.994127584796
4	58	12.249078955393	9.116404121028
4	63	12.469004294746	7.109608716683
4	70	13.021618257303	3.6229024596
4	101	19.761169880585	2.4512719507
4	124	24.597479063056	4.124962253429
4	133	24.907210016726	1.143967716902
4	142	27.100227578661	0.79594613179
4	159	28.638890188797	1.35043410006
4	169	32.59947265408	0.685666005228
4	176	33.288246552513	0.218056499342
4	225	47.503744024823	4.446542665245
4	249	52.611583106111	0.570533710618
4	457	96.254284179113	34.337869536155
4	468	97.182000974042	32.585767660328
4	476	98.701623041143	27.698119730748
4	484	99.732304117261	25.220324835715
5	22	4.003604927843	1.901821000403
5	33	6.92441673768	4.366389966739
5	39	8.795808639043	6.214634980151
5	46	9.488702830233	4.713691714661
5	52	11.513046990454	6.68060736111
5	74	13.190288828974	0.630193970582
5	85	15.974998281959	2.120083370939
5	92	17.382692682634	3.053008726543
5	108	21.666612326032	4.041336583431
5	117	24.271952453085	5.750339893789
5	129	24.802013122536	0.479984583512
5	154	28.238375542252	1.119898740579
5	183	36.583088272881	0.534164202941
5	190	37.149686123456	0.495907582813
5	200	39.094328819447	0.116606926769
5	210	41.377110657965	0.22272220097
5	217	42.801902210908	0.857977652298
5	234	50.203702588736	1.238185281334
5	245	52.424304890828	0.730652403807
5	264	55.067774194544	2.102015167259
5	274	56.503380602457	2.672195326643
5	280	57.726606100688	3.167330670975
5	285	58.341704957528	3.34501037187
5	290	58.858756252293	2.606035384105
5	311	64.881531019021	8.608131019684
5	318	66.335921413253	6.80798725588
5	323	67.126711598709	5.513989275299
5	328	68.336999853631	6.18269337565
5	333	69.34644346506	6.807170594157
5	339	70.929086629903	6.839601546074
5	347	71.646689962503	7.220181374367
5	357	73.416910374932	7.774420334164
5	362	73.653312896289	1.267011491556
5	373	76.89770079874	4.252731419615
5	384	79.548647413922	3.763914531386
5	391	80.146575153088	4.03509557938
5	396	80.418232231781	3.214414125062
5	403	81.9426185878	3.459691616164
5	410	82.412576296726	3.626518133739
5	423	85.666523439327	5.157297215597
5	432	87.482124709914	3.587393353362
5	439	90.577922773582	5.174088469338
5	444	91.861103149052	5.666999180543
5	450	94.128242303798	7.612059737423
5	463	97.174257407408	2.291037129841

