version 2
run First-n2-3-20191125-12:36:49-3408
attr configname First-n2
attr datetime 20191125-12:36:49
attr experiment First-n2
attr inifile omnetpp.ini
attr iterationvars ""
attr iterationvarsf ""
attr measurement ""
attr network org.omnetpp.queueing.Pizza
attr processid 3408
attr repetition 3
attr replication ""
attr resultdir results_no_transient
attr runnumber 3
attr seedset 3
param **.PS.maxInventoriedPS 2
param **.U1.interArrivalTime exponential(2s)
param **.U2.interArrivalTime exponential(4s)
param **.PS.serviceTimeForInventoryU1 exponential(0.8s)
param **.PS.serviceTimeForInventoryU2 exponential(1.0s)
param **.PS.serviceTimeDirectU1 exponential(1.2s)
param **.PS.serviceTimeDirectU2 exponential(1.4s)
param **.PS.probabilityProducing 0.5
param **.CS.serviceTimeU1 exponential(0.8s)
param **.CS.serviceTimeU2 exponential(1.0s)

vector 0 Pizza.EntryQueueU1 queueLength:vector ETV
attr interpolationmode sample-hold
attr title "queue length, vector"
vector 1 Pizza.CS queueLength:vector ETV
attr interpolationmode sample-hold
attr title "queue length, vector"
vector 2 Pizza.EntryQueueU2 queueLength:vector ETV
attr interpolationmode sample-hold
attr title "queue length, vector"
vector 3 Pizza.sink lifeTime:vector ETV
attr interpolationmode none
attr title "lifetime of arrived jobs, vector"
attr unit s
vector 4 Pizza.sink lifeTimeU2:vector ETV
attr interpolationmode none
attr title "lifetime of arrived jobs, vector"
attr unit s
vector 5 Pizza.sink lifeTimeU1:vector ETV
attr interpolationmode none
attr title "lifetime of arrived jobs, vector"
attr unit s
0	0	0	0
0	5	1.600564781785	1
0	7	2.288095598378	2
0	9	2.54678412136	3
0	12	3.43315566706	2
0	16	3.976864716075	3
0	18	4.014716680362	4
0	20	4.283117778383	5
0	22	4.366076235853	6
0	24	4.830553000791	7
0	28	5.400293863054	8
0	32	5.596735977928	9
0	36	6.640850610252	8
0	42	6.99029768227	7
0	47	7.009716986619	6
0	53	7.970466970357	7
0	57	9.180801071354	6
0	62	9.887511426961	5
0	70	11.069266314761	4
0	75	11.30754414352	3
0	82	12.62259038886	2
0	87	13.12217251141	1
0	91	15.242909753639	2
0	94	16.327091322188	1
0	102	17.324022491773	0
0	114	18.553132227287	1
0	115	18.57918207404	0
0	131	20.207724481132	1
0	132	21.000875917781	0
0	136	21.972725212122	1
0	138	22.639445390503	2
0	143	23.52162011638	1
0	148	23.850250570317	0
0	159	25.973873491469	1
0	162	26.797310740479	0
0	166	26.873259960949	1
0	168	28.095775734917	2
0	171	28.749517350422	1
0	176	29.848401597631	0
0	182	30.445205267202	1
0	185	31.233683462428	2
0	187	31.541383387337	3
0	189	31.668389883236	4
0	190	31.74629405504	3
0	197	32.28954908237	2
0	203	32.388217718052	3
0	205	32.440959605038	4
0	207	33.156242589435	3
0	212	34.656061368199	2
0	217	34.994592178178	1
0	221	35.015227441074	2
0	225	35.45895624367	3
0	228	35.669909164156	4
0	230	35.946810654247	5
0	234	38.736593313268	6
0	236	38.983679829516	7
0	237	39.092945292441	6
0	243	39.399733663051	7
0	244	39.96933808265	6
0	249	40.808239310216	5
0	253	41.688701318679	6
0	261	43.182265640501	7
0	262	43.652943208842	6
0	266	44.876190283354	7
0	270	46.684546732325	6
0	275	47.54836165862	5
0	279	49.135315900235	6
0	284	51.073510201465	5
0	291	52.250884642288	4
0	296	52.683866175765	3
0	301	53.184669188976	2
0	305	54.041556648026	3
0	308	56.191326380229	2
0	313	58.982636307306	1
0	318	59.632443515647	0
0	331	60.397803527666	1
0	333	60.806752760183	0
0	346	61.612767925122	1
0	348	61.692159220247	2
0	350	62.001569621042	3
0	351	62.198558808518	2
0	356	62.238843416815	1
0	362	63.645215423988	0
0	403	83.232294931845	1
0	406	84.719278017061	0
0	415	85.587459884159	1
0	419	85.721178453846	2
0	423	86.408618176053	3
0	424	87.014204960617	2
0	429	87.082277539478	1
0	435	89.111109013133	2
0	436	89.165645569633	1
0	440	91.708790372647	2
0	444	92.598577548958	3
0	445	92.610992732535	2
0	449	92.898984472483	3
0	455	93.652212474319	4
0	458	95.216663216798	3
0	466	97.334369544756	4
0	470	97.793044355499	5
0	471	98.066440789344	4
0	479	98.343419438448	5
0	480	99.47401156586	4
1	0	0	0
2	0	0	0
2	26	5.219433132825	1
2	30	5.430788803539	2
2	51	7.755851531757	3
2	69	11.029369874195	4
2	101	17.091607846497	5
2	107	18.324219495848	4
2	120	18.830113387918	3
2	125	19.057458916276	2
2	140	23.280062093622	3
2	152	24.582858053101	4
2	155	25.244869596669	3
2	194	31.939297961267	4
2	232	38.520028296138	5
2	255	41.743301098253	6
2	259	42.968785864666	7
2	283	50.278988922087	8
2	288	51.611979968377	9
2	323	60.142981407059	8
2	329	60.157160322455	9
2	338	61.257858280009	8
2	367	64.166786291427	7
2	372	64.324980729011	6
2	377	67.458815092215	5
2	382	68.147018642583	4
2	386	68.875025677778	5
2	390	69.112885678628	6
2	393	71.061188574181	5
2	399	81.959214681231	6
2	401	83.165500751633	7
2	405	83.851833260206	8
2	411	85.05252533361	7
2	421	86.396375784448	8
2	451	93.19022528086	9
2	468	97.38463970495	10
2	477	98.080373407966	11
2	484	99.521374671157	12
3	14	3.43315566706	3.139753915202
3	38	6.640850610252	5.040285828467
3	44	6.99029768227	4.702202083892
3	49	7.009716986619	4.462932865259
3	59	9.180801071354	5.203936355279
3	64	9.887511426961	5.872794746599
3	72	11.069266314761	6.786148536378
3	77	11.30754414352	6.941467907667
3	84	12.62259038886	7.792037388069
3	89	13.12217251141	7.721878648356
3	96	16.327091322188	10.73035534426
3	104	17.324022491773	9.353555521416
3	109	18.324219495848	3.081309742209
3	117	18.57918207404	13.359748941215
3	122	18.830113387918	0.276981160631
3	127	19.057458916276	13.626670112737
3	134	21.000875917781	13.245024386024
3	145	23.52162011638	3.313895635248
3	150	23.850250570317	1.877525358195
3	157	25.244869596669	2.605424206166
3	164	26.797310740479	15.767940866284
3	173	28.749517350422	2.775643858953
3	178	29.848401597631	2.975141636682
3	192	31.74629405504	3.650518320123
3	199	32.28954908237	1.844343815168
3	209	33.156242589435	1.922559127007
3	214	34.656061368199	3.114677980862
3	219	34.994592178178	3.326202294942
3	239	39.092945292441	6.704727574389
3	246	39.96933808265	7.528378477612
3	251	40.808239310216	5.793011869142
3	264	43.652943208842	8.193986965172
3	272	46.684546732325	11.014637568169
3	277	47.54836165862	11.601551004373
3	286	51.073510201465	12.336916888197
3	293	52.250884642288	13.267204812772
3	298	52.683866175765	13.284132512714
3	303	53.184669188976	11.495967870297
3	310	56.191326380229	13.009060739728
3	315	58.982636307306	14.106446023952
3	320	59.632443515647	10.497127615412
3	325	60.142981407059	6.101424759033
3	335	60.806752760183	43.715144913686
3	340	61.257858280009	0.860054752343
3	353	62.198558808518	38.918496714896
3	358	62.238843416815	0.626075491693
3	364	63.645215423988	1.953056203741
3	369	64.166786291427	2.165216670385
3	374	64.324980729011	39.74212267591
3	379	67.458815092215	35.519517130948
3	384	68.147018642583	29.626990346445
3	395	71.061188574181	29.317887475928
3	408	84.719278017061	41.750492152395
3	413	85.05252533361	1.820230401765
3	426	87.014204960617	36.73521603853
3	431	87.082277539478	1.494817655319
3	438	89.165645569633	3.444467115787
3	447	92.610992732535	6.202374556482
3	460	95.216663216798	6.105554203665
3	473	98.066440789344	6.357650416697
3	482	99.47401156586	6.875434016902
4	14	3.43315566706	3.139753915202
4	117	18.57918207404	13.359748941215
4	127	19.057458916276	13.626670112737
4	134	21.000875917781	13.245024386024
4	164	26.797310740479	15.767940866284
4	335	60.806752760183	43.715144913686
4	353	62.198558808518	38.918496714896
4	374	64.324980729011	39.74212267591
4	379	67.458815092215	35.519517130948
4	384	68.147018642583	29.626990346445
4	395	71.061188574181	29.317887475928
4	408	84.719278017061	41.750492152395
4	426	87.014204960617	36.73521603853
5	38	6.640850610252	5.040285828467
5	44	6.99029768227	4.702202083892
5	49	7.009716986619	4.462932865259
5	59	9.180801071354	5.203936355279
5	64	9.887511426961	5.872794746599
5	72	11.069266314761	6.786148536378
5	77	11.30754414352	6.941467907667
5	84	12.62259038886	7.792037388069
5	89	13.12217251141	7.721878648356
5	96	16.327091322188	10.73035534426
5	104	17.324022491773	9.353555521416
5	109	18.324219495848	3.081309742209
5	122	18.830113387918	0.276981160631
5	145	23.52162011638	3.313895635248
5	150	23.850250570317	1.877525358195
5	157	25.244869596669	2.605424206166
5	173	28.749517350422	2.775643858953
5	178	29.848401597631	2.975141636682
5	192	31.74629405504	3.650518320123
5	199	32.28954908237	1.844343815168
5	209	33.156242589435	1.922559127007
5	214	34.656061368199	3.114677980862
5	219	34.994592178178	3.326202294942
5	239	39.092945292441	6.704727574389
5	246	39.96933808265	7.528378477612
5	251	40.808239310216	5.793011869142
5	264	43.652943208842	8.193986965172
5	272	46.684546732325	11.014637568169
5	277	47.54836165862	11.601551004373
5	286	51.073510201465	12.336916888197
5	293	52.250884642288	13.267204812772
5	298	52.683866175765	13.284132512714
5	303	53.184669188976	11.495967870297
5	310	56.191326380229	13.009060739728
5	315	58.982636307306	14.106446023952
5	320	59.632443515647	10.497127615412
5	325	60.142981407059	6.101424759033
5	340	61.257858280009	0.860054752343
5	358	62.238843416815	0.626075491693
5	364	63.645215423988	1.953056203741
5	369	64.166786291427	2.165216670385
5	413	85.05252533361	1.820230401765
5	431	87.082277539478	1.494817655319
5	438	89.165645569633	3.444467115787
5	447	92.610992732535	6.202374556482
5	460	95.216663216798	6.105554203665
5	473	98.066440789344	6.357650416697
5	482	99.47401156586	6.875434016902

