version 2
run First-n4-1-20191125-12:36:49-4048
attr configname First-n4
attr datetime 20191125-12:36:49
attr experiment First-n4
attr inifile omnetpp.ini
attr iterationvars ""
attr iterationvarsf ""
attr measurement ""
attr network org.omnetpp.queueing.Pizza
attr processid 4048
attr repetition 1
attr replication ""
attr resultdir results_no_transient
attr runnumber 1
attr seedset 1
param **.PS.maxInventoriedPS 4
param **.U1.interArrivalTime exponential(2s)
param **.U2.interArrivalTime exponential(4s)
param **.PS.serviceTimeForInventoryU1 exponential(0.8s)
param **.PS.serviceTimeForInventoryU2 exponential(1.0s)
param **.PS.serviceTimeDirectU1 exponential(1.2s)
param **.PS.serviceTimeDirectU2 exponential(1.4s)
param **.PS.probabilityProducing 0.5
param **.CS.serviceTimeU1 exponential(0.8s)
param **.CS.serviceTimeU2 exponential(1.0s)

vector 0 Pizza.EntryQueueU1 queueLength:vector ETV
attr interpolationmode sample-hold
attr title "queue length, vector"
vector 1 Pizza.CS queueLength:vector ETV
attr interpolationmode sample-hold
attr title "queue length, vector"
vector 2 Pizza.EntryQueueU2 queueLength:vector ETV
attr interpolationmode sample-hold
attr title "queue length, vector"
vector 3 Pizza.sink lifeTime:vector ETV
attr interpolationmode none
attr title "lifetime of arrived jobs, vector"
attr unit s
vector 4 Pizza.sink lifeTimeU1:vector ETV
attr interpolationmode none
attr title "lifetime of arrived jobs, vector"
attr unit s
vector 5 Pizza.sink lifeTimeU2:vector ETV
attr interpolationmode none
attr title "lifetime of arrived jobs, vector"
attr unit s
0	0	0	0
0	5	3.627462129344	1
0	7	3.627690904589	2
0	9	3.901908065775	3
0	13	4.530428224701	2
0	17	4.621933561487	3
0	20	5.182127811435	2
0	24	5.60368787706	3
0	26	7.151607417611	4
0	31	9.396866798728	3
0	37	10.008433400689	2
0	44	10.662839249793	1
0	50	10.897254751353	2
0	51	11.669781018733	1
0	56	11.747695610033	0
0	69	17.877384684236	1
0	73	18.249635262153	2
0	75	18.456685966464	3
0	76	19.06859720885	2
0	82	20.254892129289	3
0	84	21.316227421412	4
0	85	22.258530777316	3
0	90	22.796210044153	2
0	94	22.839787466522	3
0	96	23.146369875236	4
0	101	24.690752396638	3
0	107	25.466287611879	4
0	108	25.495498195511	3
0	116	27.264982345691	2
0	121	27.325938060138	1
0	126	28.119648484271	0
0	208	41.054758202029	1
0	213	42.747394839134	2
0	214	42.826090820065	1
0	219	43.175580015652	0
0	272	49.296944616331	1
0	276	49.315042241891	2
0	277	49.564027344129	1
0	285	51.477467731194	0
0	291	51.784198536748	1
0	292	52.416732101586	0
0	321	55.875078671169	1
0	323	56.140475778388	2
0	324	56.359237003121	1
0	329	56.380485497641	0
0	335	56.518632500458	1
0	337	56.734104130282	2
0	338	56.742893238595	1
0	343	57.362637395897	0
0	464	85.405990687758	1
0	468	86.605876962007	0
0	480	87.2704725098	1
0	482	87.586197364612	2
0	483	88.079904071949	1
0	488	88.274224296537	0
0	494	88.542724424218	1
0	495	89.159296901573	0
0	512	89.937405251523	1
0	514	90.137726284492	2
0	516	90.90098714344	1
0	523	91.717110996982	0
0	534	93.40472203094	1
0	535	93.486974335749	0
0	541	94.189378089295	1
0	543	94.549593864612	0
0	553	95.668751671768	1
0	555	96.699863371574	0
0	566	97.58703516905	1
0	567	97.91874817747	0
0	574	98.042117376124	1
0	575	98.73955722786	0
1	0	0	0
2	0	0	0
2	100	23.490899443926	1
2	112	25.618680061748	2
2	131	28.80825037642	1
2	138	29.55226858898	0
2	184	36.54786247726	1
2	186	36.668880257446	2
2	187	37.0856161681	1
2	192	37.863859887258	0
2	225	43.294244022818	1
2	226	43.427269594895	0
2	240	45.057774187804	1
2	242	45.364400025477	2
2	244	45.573170918999	1
2	250	45.85192256741	2
2	251	46.012157180293	1
2	256	46.489875757565	0
2	274	49.306617093842	1
2	298	52.568054864724	0
2	347	57.990813184374	1
2	350	58.589333066708	0
2	415	71.768137190659	1
2	417	72.066244631058	0
2	466	85.446763585584	1
2	474	87.21300993046	0
2	522	91.198346189258	1
2	528	93.181404188635	0
2	549	94.635948773843	1
2	560	97.105345229734	0
2	588	99.282902230212	1
2	589	99.541197850438	0
3	15	4.530428224701	3.451216571677
3	22	5.182127811435	1.554665682091
3	33	9.396866798728	5.769175894139
3	39	10.008433400689	6.106525334914
3	46	10.662839249793	6.040905688306
3	53	11.669781018733	6.066093141673
3	58	11.747695610033	4.596088192422
3	62	14.764244194747	3.866989443394
3	78	19.06859720885	1.270888282925
3	87	22.258530777316	4.38114609308
3	92	22.796210044153	4.546574782
3	103	24.690752396638	6.234066430174
3	110	25.495498195511	5.240606066222
3	118	27.264982345691	5.948754924279
3	123	27.325938060138	4.486150593616
3	128	28.119648484271	4.973278609035
3	133	28.80825037642	3.341962764541
3	140	29.55226858898	6.061369145054
3	144	29.860897397321	4.242217335573
3	151	31.189454200044	0.054839093724
3	159	33.445111637943	0.88990574067
3	166	34.547275106199	0.086366157613
3	174	35.493559942506	0.427793160976
3	189	37.0856161681	0.723377769956
3	194	37.863859887258	1.315997409998
3	198	38.013841669657	1.344961412211
3	216	42.826090820065	2.624287050133
3	221	43.175580015652	2.120821813623
3	228	43.427269594895	0.679874755761
3	232	43.98604531879	0.691801295972
3	246	45.573170918999	0.871186633209
3	253	46.012157180293	0.954382992489
3	258	46.489875757565	1.125475732088
3	265	48.826840272706	2.974917705296
3	279	49.564027344129	0.599026194819
3	287	51.477467731194	2.180523114863
3	294	52.416732101586	3.101689859695
3	300	52.568054864724	0.783856327976
3	304	52.781193725366	3.474576631524
3	312	53.596580070945	0.209468839505
3	326	56.359237003121	0.585280711021
3	331	56.380485497641	0.505406826472
3	340	56.742893238595	0.602417460207
3	345	57.362637395897	0.844004895439
3	352	58.589333066708	1.855228936426
3	357	58.916703999055	0.925890814681
3	365	60.681787849861	0.015058674257
3	374	62.760000882026	1.010954473797
3	382	66.567648851507	1.593389859547
3	389	67.320079962102	0.447428047411
3	399	69.713323048532	0.090977744632
3	407	70.712082664207	0.998587745398
3	419	72.066244631058	0.34864933813
3	423	72.293513230063	0.525376039404
3	431	72.900659964507	0.14102565343
3	438	73.712279615387	0.371069532116
3	445	74.856707913185	1.080604510571
3	456	80.805552991445	0.01500072241
3	470	86.605876962007	1.345075283756
3	476	87.21300993046	1.807019242702
3	485	88.079904071949	2.633140486365
3	490	88.274224296537	1.003751786737
3	497	89.159296901573	1.573099536961
3	501	89.214206820192	0.671482395974
3	518	90.90098714344	1.117902231539
3	525	91.717110996982	1.779705745459
3	530	93.181404188635	3.043677904143
3	537	93.486974335749	2.288628146491
3	545	94.549593864612	1.144871833672
3	557	96.699863371574	2.510485282279
3	562	97.105345229734	1.436593557966
3	569	97.91874817747	3.282799403627
3	577	98.73955722786	1.15252205881
3	581	98.885688048911	0.843570672787
3	591	99.541197850438	0.510462525604
4	15	4.530428224701	3.451216571677
4	22	5.182127811435	1.554665682091
4	33	9.396866798728	5.769175894139
4	39	10.008433400689	6.106525334914
4	46	10.662839249793	6.040905688306
4	53	11.669781018733	6.066093141673
4	58	11.747695610033	4.596088192422
4	62	14.764244194747	3.866989443394
4	78	19.06859720885	1.270888282925
4	87	22.258530777316	4.38114609308
4	92	22.796210044153	4.546574782
4	103	24.690752396638	6.234066430174
4	110	25.495498195511	5.240606066222
4	118	27.264982345691	5.948754924279
4	123	27.325938060138	4.486150593616
4	128	28.119648484271	4.973278609035
4	133	28.80825037642	3.341962764541
4	166	34.547275106199	0.086366157613
4	174	35.493559942506	0.427793160976
4	221	43.175580015652	2.120821813623
4	228	43.427269594895	0.679874755761
4	246	45.573170918999	0.871186633209
4	279	49.564027344129	0.599026194819
4	287	51.477467731194	2.180523114863
4	294	52.416732101586	3.101689859695
4	300	52.568054864724	0.783856327976
4	312	53.596580070945	0.209468839505
4	326	56.359237003121	0.585280711021
4	331	56.380485497641	0.505406826472
4	340	56.742893238595	0.602417460207
4	345	57.362637395897	0.844004895439
4	352	58.589333066708	1.855228936426
4	365	60.681787849861	0.015058674257
4	374	62.760000882026	1.010954473797
4	382	66.567648851507	1.593389859547
4	389	67.320079962102	0.447428047411
4	399	69.713323048532	0.090977744632
4	407	70.712082664207	0.998587745398
4	431	72.900659964507	0.14102565343
4	438	73.712279615387	0.371069532116
4	445	74.856707913185	1.080604510571
4	456	80.805552991445	0.01500072241
4	470	86.605876962007	1.345075283756
4	476	87.21300993046	1.807019242702
4	490	88.274224296537	1.003751786737
4	497	89.159296901573	1.573099536961
4	501	89.214206820192	0.671482395974
4	518	90.90098714344	1.117902231539
4	525	91.717110996982	1.779705745459
4	530	93.181404188635	3.043677904143
4	545	94.549593864612	1.144871833672
4	557	96.699863371574	2.510485282279
4	562	97.105345229734	1.436593557966
4	577	98.73955722786	1.15252205881
4	581	98.885688048911	0.843570672787
4	591	99.541197850438	0.510462525604
5	140	29.55226858898	6.061369145054
5	144	29.860897397321	4.242217335573
5	151	31.189454200044	0.054839093724
5	159	33.445111637943	0.88990574067
5	189	37.0856161681	0.723377769956
5	194	37.863859887258	1.315997409998
5	198	38.013841669657	1.344961412211
5	216	42.826090820065	2.624287050133
5	232	43.98604531879	0.691801295972
5	253	46.012157180293	0.954382992489
5	258	46.489875757565	1.125475732088
5	265	48.826840272706	2.974917705296
5	304	52.781193725366	3.474576631524
5	357	58.916703999055	0.925890814681
5	419	72.066244631058	0.34864933813
5	423	72.293513230063	0.525376039404
5	485	88.079904071949	2.633140486365
5	537	93.486974335749	2.288628146491
5	569	97.91874817747	3.282799403627

