version 2
run First-n3-15-20191125-12:37:07-9724
attr configname First-n3
attr datetime 20191125-12:37:07
attr experiment First-n3
attr inifile omnetpp.ini
attr iterationvars ""
attr iterationvarsf ""
attr measurement ""
attr network org.omnetpp.queueing.Pizza
attr processid 9724
attr repetition 15
attr replication ""
attr resultdir results_no_transient
attr runnumber 15
attr seedset 15
param **.PS.maxInventoriedPS 3
param **.U1.interArrivalTime exponential(2s)
param **.U2.interArrivalTime exponential(4s)
param **.PS.serviceTimeForInventoryU1 exponential(0.8s)
param **.PS.serviceTimeForInventoryU2 exponential(1.0s)
param **.PS.serviceTimeDirectU1 exponential(1.2s)
param **.PS.serviceTimeDirectU2 exponential(1.4s)
param **.PS.probabilityProducing 0.5
param **.CS.serviceTimeU1 exponential(0.8s)
param **.CS.serviceTimeU2 exponential(1.0s)

vector 0 Pizza.EntryQueueU1 queueLength:vector ETV
attr interpolationmode sample-hold
attr title "queue length, vector"
vector 1 Pizza.CS queueLength:vector ETV
attr interpolationmode sample-hold
attr title "queue length, vector"
vector 2 Pizza.EntryQueueU2 queueLength:vector ETV
attr interpolationmode sample-hold
attr title "queue length, vector"
vector 3 Pizza.sink lifeTime:vector ETV
attr interpolationmode none
attr title "lifetime of arrived jobs, vector"
attr unit s
vector 4 Pizza.sink lifeTimeU1:vector ETV
attr interpolationmode none
attr title "lifetime of arrived jobs, vector"
attr unit s
vector 5 Pizza.sink lifeTimeU2:vector ETV
attr interpolationmode none
attr title "lifetime of arrived jobs, vector"
attr unit s
0	0	0	0
0	5	4.17274849821	1
0	7	4.284541970041	2
0	9	4.519827285931	3
0	15	5.417214924167	4
0	17	6.14338972316	5
0	22	6.942359780066	4
0	28	7.500111611894	3
0	36	8.688786154527	4
0	37	8.8164932114	3
0	44	9.161625189042	4
0	46	9.242066029311	5
0	48	9.490018313288	6
0	49	9.795606840984	5
0	53	9.936882534884	6
0	60	11.481437250553	5
0	65	11.737238791619	4
0	70	11.944273374247	3
0	75	12.42332496994	2
0	82	13.648973928698	1
0	87	14.525373717741	0
0	136	23.00018522155	1
0	141	24.280976012206	0
0	154	25.040653240372	1
0	157	25.562556493898	0
0	163	25.905603026116	1
0	166	26.128234566492	2
0	168	26.754448489658	3
0	169	26.817959477631	2
0	176	27.189281783284	1
0	183	29.123009132404	0
0	194	30.150774297597	1
0	196	30.649442396929	0
0	217	33.623602908503	1
0	221	36.012639246092	2
0	223	36.543537743206	3
0	224	36.616794641361	2
0	229	36.660309861536	1
0	235	36.816534260563	2
0	237	37.131575899201	3
0	238	37.333822613246	2
0	244	39.236036571795	1
0	249	39.504596940875	0
0	253	39.852202541187	1
0	255	41.128344335289	2
0	257	41.578050903964	3
0	259	41.67717088803	4
0	261	41.680463109981	5
0	264	42.968950005013	4
0	268	43.778205546987	5
0	274	45.160174078477	6
0	277	46.901412410239	5
0	282	47.60767340411	4
0	290	48.446544795335	5
0	291	49.854397831169	4
0	297	49.893599500124	5
0	300	51.712429580644	4
0	304	51.881744582965	5
0	310	54.008844709081	4
0	315	54.912435067805	3
0	320	55.999911031694	2
0	325	56.94904594098	1
0	330	58.152455973673	0
0	344	58.958672454472	1
0	349	60.343314995712	0
0	362	61.285350788563	1
0	363	61.807587783054	0
0	416	71.489111243232	1
0	417	73.393311525141	0
0	428	74.225534769306	1
0	433	75.163236755553	0
0	444	77.568307053994	1
0	450	79.08321454331	0
0	470	81.218401030563	1
0	472	82.552912709122	0
0	497	88.174410222137	1
0	498	88.25853784181	0
0	507	88.388786660291	1
0	509	88.563952045508	2
0	511	92.014171543146	3
0	517	94.659711035585	4
0	518	94.832110312324	3
0	523	94.857198109497	2
0	528	95.099753855894	1
0	532	95.317290448139	2
0	538	96.770450542962	3
0	543	97.353212431241	4
0	548	98.628911083774	3
0	553	99.158558838811	2
0	559	99.673864630517	1
1	0	0	0
2	0	0	0
2	20	6.719022018935	1
2	34	7.869211717697	2
2	55	10.064641965508	3
2	92	14.887832780349	2
2	97	15.776463549009	1
2	102	16.321159378182	0
2	118	17.332869315869	1
2	121	18.32145183643	0
2	132	22.660721004993	1
2	134	22.785675083819	2
2	138	23.977767843093	3
2	146	24.601078635873	2
2	150	24.619887924342	3
2	156	25.489651408822	4
2	188	29.566121313204	3
2	201	31.159148627056	2
2	208	31.272118741731	1
2	219	35.893471538568	2
2	270	44.232604846119	3
2	272	44.697325914943	4
2	288	48.10825874172	5
2	299	49.91402768279	6
2	309	53.7362352315	7
2	334	58.443665734363	8
2	337	58.903987545621	7
2	346	58.96147948645	8
2	348	59.490979460568	9
2	353	60.366523946826	10
2	356	61.036555656906	9
2	368	62.756619470496	8
2	374	63.01032397267	7
2	379	63.252909510517	6
2	391	67.948115800748	7
2	393	68.410823501728	8
2	394	68.495812090253	7
2	399	68.94997352722	6
2	405	69.97609853968	5
2	410	69.976686809588	4
2	422	73.413956414594	3
2	426	73.452058744225	4
2	430	74.352456624747	5
2	438	75.653577262726	4
2	447	78.171039664275	5
2	449	78.975049876361	6
2	456	79.493169052682	7
2	457	79.726333314392	6
2	462	79.7517192444	5
2	479	87.467963587131	6
2	480	87.473195797157	5
2	485	87.560641536311	4
2	491	88.137801628291	3
2	503	88.313544264125	2
2	534	96.068646730672	3
2	540	96.953381330562	4
2	565	99.938618102827	5
3	24	6.942359780066	3.163822100587
3	30	7.500111611894	3.327363113684
3	39	8.8164932114	4.531951241359
3	51	9.795606840984	5.275779555053
3	62	11.481437250553	6.064222326386
3	67	11.737238791619	5.593849068459
3	72	11.944273374247	3.25548721972
3	77	12.42332496994	3.261699780898
3	84	13.648973928698	4.406907899387
3	89	14.525373717741	5.035355404453
3	94	14.887832780349	4.950950245465
3	99	15.776463549009	9.057441530074
3	104	16.321159378182	8.451947660485
3	108	16.715734870892	6.651092905384
3	123	18.32145183643	1.320657496656
3	127	19.628048319209	2.29517900334
3	143	24.280976012206	2.189433454158
3	148	24.601078635873	1.600893414323
3	159	25.562556493898	2.901835488905
3	171	26.817959477631	1.777306237259
3	178	27.189281783284	1.283678757168
3	185	29.123009132404	2.994774565912
3	190	29.566121313204	2.811672823546
3	198	30.649442396929	7.86376731311
3	203	31.159148627056	1.008374329459
3	210	31.272118741731	7.294350898638
3	226	36.616794641361	11.996906717019
3	231	36.660309861536	3.036706953033
3	240	37.333822613246	1.321183367154
3	246	39.236036571795	2.692498828589
3	251	39.504596940875	2.688062680312
3	266	42.968950005013	5.837374105812
3	279	46.901412410239	7.049209869052
3	284	47.60767340411	6.479329068821
3	293	49.854397831169	8.276346927205
3	302	51.712429580644	10.035258692614
3	312	54.008844709081	12.3283815991
3	317	54.912435067805	11.134229520818
3	322	55.999911031694	10.839736953217
3	327	56.94904594098	8.502501145645
3	332	58.152455973673	8.258856473549
3	339	58.903987545621	7.022242962656
3	351	60.343314995712	34.85366358689
3	358	61.036555656906	2.077883202434
3	365	61.807587783054	25.914116244486
3	370	62.756619470496	1.471268681933
3	376	63.01032397267	18.777719126551
3	381	63.252909510517	18.555583595574
3	396	68.495812090253	20.387553348533
3	401	68.94997352722	19.03594584443
3	407	69.97609853968	16.23986330818
3	412	69.976686809588	11.533021075225
3	419	73.393311525141	14.431832038691
3	424	73.413956414594	1.924845171362
3	435	75.163236755553	15.672257294985
3	440	75.653577262726	1.42804249342
3	452	79.08321454331	18.716690596484
3	459	79.726333314392	2.158026260398
3	464	79.7517192444	11.803603443652
3	474	82.552912709122	14.142089207394
3	482	87.473195797157	6.254794766594
3	487	87.560641536311	14.108582792086
3	493	88.137801628291	13.785345003544
3	500	88.25853784181	10.087498177535
3	505	88.313544264125	0.139134041988
3	520	94.832110312324	15.857060435963
3	525	94.857198109497	6.468411449206
3	530	95.099753855894	6.535801810386
3	550	98.628911083774	6.614739540628
3	555	99.158558838811	4.498847803226
3	561	99.673864630517	4.356574182378
4	24	6.942359780066	3.163822100587
4	30	7.500111611894	3.327363113684
4	39	8.8164932114	4.531951241359
4	51	9.795606840984	5.275779555053
4	62	11.481437250553	6.064222326386
4	67	11.737238791619	5.593849068459
4	72	11.944273374247	3.25548721972
4	77	12.42332496994	3.261699780898
4	84	13.648973928698	4.406907899387
4	89	14.525373717741	5.035355404453
4	94	14.887832780349	4.950950245465
4	148	24.601078635873	1.600893414323
4	171	26.817959477631	1.777306237259
4	178	27.189281783284	1.283678757168
4	185	29.123009132404	2.994774565912
4	190	29.566121313204	2.811672823546
4	203	31.159148627056	1.008374329459
4	231	36.660309861536	3.036706953033
4	240	37.333822613246	1.321183367154
4	246	39.236036571795	2.692498828589
4	251	39.504596940875	2.688062680312
4	266	42.968950005013	5.837374105812
4	279	46.901412410239	7.049209869052
4	284	47.60767340411	6.479329068821
4	293	49.854397831169	8.276346927205
4	302	51.712429580644	10.035258692614
4	312	54.008844709081	12.3283815991
4	317	54.912435067805	11.134229520818
4	322	55.999911031694	10.839736953217
4	327	56.94904594098	8.502501145645
4	332	58.152455973673	8.258856473549
4	339	58.903987545621	7.022242962656
4	358	61.036555656906	2.077883202434
4	370	62.756619470496	1.471268681933
4	424	73.413956414594	1.924845171362
4	440	75.653577262726	1.42804249342
4	459	79.726333314392	2.158026260398
4	482	87.473195797157	6.254794766594
4	505	88.313544264125	0.139134041988
4	525	94.857198109497	6.468411449206
4	530	95.099753855894	6.535801810386
4	550	98.628911083774	6.614739540628
4	555	99.158558838811	4.498847803226
4	561	99.673864630517	4.356574182378
5	99	15.776463549009	9.057441530074
5	104	16.321159378182	8.451947660485
5	108	16.715734870892	6.651092905384
5	123	18.32145183643	1.320657496656
5	127	19.628048319209	2.29517900334
5	143	24.280976012206	2.189433454158
5	159	25.562556493898	2.901835488905
5	198	30.649442396929	7.86376731311
5	210	31.272118741731	7.294350898638
5	226	36.616794641361	11.996906717019
5	351	60.343314995712	34.85366358689
5	365	61.807587783054	25.914116244486
5	376	63.01032397267	18.777719126551
5	381	63.252909510517	18.555583595574
5	396	68.495812090253	20.387553348533
5	401	68.94997352722	19.03594584443
5	407	69.97609853968	16.23986330818
5	412	69.976686809588	11.533021075225
5	419	73.393311525141	14.431832038691
5	435	75.163236755553	15.672257294985
5	452	79.08321454331	18.716690596484
5	464	79.7517192444	11.803603443652
5	474	82.552912709122	14.142089207394
5	487	87.560641536311	14.108582792086
5	493	88.137801628291	13.785345003544
5	500	88.25853784181	10.087498177535
5	520	94.832110312324	15.857060435963

