version 2
run First-n3-11-20191125-12:37:03-3496
attr configname First-n3
attr datetime 20191125-12:37:03
attr experiment First-n3
attr inifile omnetpp.ini
attr iterationvars ""
attr iterationvarsf ""
attr measurement ""
attr network org.omnetpp.queueing.Pizza
attr processid 3496
attr repetition 11
attr replication ""
attr resultdir results_no_transient
attr runnumber 11
attr seedset 11
param **.PS.maxInventoriedPS 3
param **.U1.interArrivalTime exponential(2s)
param **.U2.interArrivalTime exponential(4s)
param **.PS.serviceTimeForInventoryU1 exponential(0.8s)
param **.PS.serviceTimeForInventoryU2 exponential(1.0s)
param **.PS.serviceTimeDirectU1 exponential(1.2s)
param **.PS.serviceTimeDirectU2 exponential(1.4s)
param **.PS.probabilityProducing 0.5
param **.CS.serviceTimeU1 exponential(0.8s)
param **.CS.serviceTimeU2 exponential(1.0s)

vector 0 Pizza.EntryQueueU1 queueLength:vector ETV
attr interpolationmode sample-hold
attr title "queue length, vector"
vector 1 Pizza.CS queueLength:vector ETV
attr interpolationmode sample-hold
attr title "queue length, vector"
vector 2 Pizza.EntryQueueU2 queueLength:vector ETV
attr interpolationmode sample-hold
attr title "queue length, vector"
vector 3 Pizza.sink lifeTime:vector ETV
attr interpolationmode none
attr title "lifetime of arrived jobs, vector"
attr unit s
vector 4 Pizza.sink lifeTimeU2:vector ETV
attr interpolationmode none
attr title "lifetime of arrived jobs, vector"
attr unit s
vector 5 Pizza.sink lifeTimeU1:vector ETV
attr interpolationmode none
attr title "lifetime of arrived jobs, vector"
attr unit s
0	0	0	0
0	7	0.397559776347	1
0	9	0.82918977245	2
0	12	1.924040615244	1
0	21	3.410677649658	2
0	23	3.605489874977	3
0	25	4.534659223345	2
0	31	5.118339758079	1
0	36	5.262681591808	0
0	48	7.410359181033	1
0	50	7.754101433183	2
0	52	7.805043269295	3
0	58	10.650790573663	4
0	60	10.887594790891	5
0	61	11.353524261599	4
0	67	12.351379131909	3
0	73	13.574806216492	2
0	81	14.351577282477	1
0	86	14.408853832952	0
0	92	14.877857899092	1
0	95	16.128483621229	2
0	96	16.791205407895	1
0	101	17.010622977155	0
0	114	18.400533118504	1
0	116	18.475817916481	2
0	118	18.539013135895	1
0	124	18.621782265538	2
0	127	19.787916653489	1
0	132	20.295277256268	0
0	138	20.885277512983	1
0	140	20.989297017595	2
0	141	21.061005740234	1
0	145	21.886512663043	2
0	147	22.256323966474	3
0	151	22.867302254254	4
0	152	23.751540109805	3
0	158	24.138133534737	2
0	162	25.057467450431	3
0	164	25.77068022718	4
0	168	26.254322990227	5
0	169	28.419818953954	4
0	175	28.907867735977	5
0	178	29.263991840107	4
0	183	29.960211847812	3
0	187	30.301265118663	4
0	189	30.413194788866	5
0	193	32.527836501058	6
0	195	32.609882852783	7
0	196	33.028084894483	6
0	201	33.827834890681	5
0	207	34.665528136473	6
0	208	35.35925622017	5
0	214	36.501423793213	4
0	222	36.996657884354	3
0	227	37.75253858216	2
0	233	38.532594496628	1
0	238	38.96653481662	0
0	252	40.650336116528	1
0	256	41.177726449389	0
0	284	43.300456150904	1
0	288	44.895003528826	0
0	294	45.01441853064	1
0	299	46.167710846285	2
0	301	46.346892555703	3
0	302	46.569397658936	2
0	309	46.706384360886	3
0	310	47.557771246988	2
0	315	48.150861695493	1
0	323	49.006202680611	0
0	344	54.003261703219	1
0	348	54.3850375315	2
0	349	55.126578449107	1
0	354	55.677100355305	0
0	373	60.094056215569	1
0	377	61.216421489039	2
0	378	61.249257419097	1
0	385	61.61436172453	0
0	405	67.319874790708	1
0	408	68.537221517085	0
0	415	68.867939871084	1
0	417	68.868284405826	2
0	419	69.535736624111	1
0	424	69.660984312002	0
0	433	70.276592147045	1
0	435	70.350304347575	2
0	438	74.497195931426	1
0	443	75.14301455082	0
0	470	77.59749024685	1
0	472	79.457842695456	2
0	473	80.214244678579	1
0	479	80.668839976253	2
0	480	80.734708243009	1
0	485	80.900619719314	0
0	520	86.681836939602	1
0	522	87.22973193649	2
0	524	87.506307782927	1
0	529	87.774193114106	0
0	540	94.264529818688	1
0	544	95.468282169538	2
0	547	96.145880085194	1
0	555	97.266054624416	0
1	0	0	0
2	0	0	0
2	5	0.36167654501	1
2	19	2.850333390812	2
2	41	6.881213055259	1
2	80	14.226270272121	2
2	106	18.085487953919	1
2	126	19.287524350526	2
2	173	28.719928815395	3
2	244	39.387740951742	2
2	250	39.526489685712	3
2	255	41.064492584549	4
2	261	41.416189889623	3
2	266	41.630643907974	2
2	271	42.350373616635	1
2	278	42.926554454644	0
2	322	48.971827434896	1
2	328	50.403565314751	0
2	346	54.264250983449	1
2	359	56.328336812334	0
2	375	60.962625052999	1
2	384	61.506125052148	2
2	390	64.758753606481	1
2	395	65.031016632239	0
2	403	66.946519647622	1
2	407	67.638101784612	2
2	429	70.050242053289	1
2	451	76.021606656283	0
2	468	77.223562993505	1
2	490	81.472087870204	0
2	502	83.054145102661	1
2	505	83.162672608372	0
2	542	94.876349538993	1
2	551	96.252162782188	2
2	561	98.38108747844	1
2	567	98.75371219183	0
2	580	99.980628494788	1
3	14	1.924040615244	1.641033596265
3	27	4.534659223345	4.137099446998
3	33	5.118339758079	4.289149985629
3	38	5.262681591808	1.85200394215
3	43	6.881213055259	3.275723180282
3	63	11.353524261599	10.991847716589
3	69	12.351379131909	4.941019950876
3	75	13.574806216492	5.820704783309
3	83	14.351577282477	6.546534013182
3	88	14.408853832952	3.758063259289
3	98	16.791205407895	5.903610617004
3	103	17.010622977155	2.132765078063
3	108	18.085487953919	1.95700433269
3	120	18.539013135895	15.688679745083
3	129	19.787916653489	1.387383534985
3	134	20.295277256268	1.819459339787
3	143	21.061005740234	2.439223474696
3	154	23.751540109805	2.866262596822
3	160	24.138133534737	3.148836517142
3	171	28.419818953954	6.533306290911
3	180	29.263991840107	7.007667873633
3	185	29.960211847812	7.092909593558
3	198	33.028084894483	7.970617444052
3	203	33.827834890681	8.057154663501
3	210	35.35925622017	9.104933229943
3	216	36.501423793213	7.593556057236
3	224	36.996657884354	6.695392765691
3	229	37.75253858216	7.339343793294
3	235	38.532594496628	6.00475799557
3	240	38.96653481662	6.356651963837
3	246	39.387740951742	4.722212815269
3	258	41.177726449389	26.951456177268
3	263	41.416189889623	0.765853773095
3	268	41.630643907974	22.343119557448
3	273	42.350373616635	13.63044480124
3	280	42.926554454644	3.400064768932
3	290	44.895003528826	3.830510944277
3	304	46.569397658936	3.268941508032
3	312	47.557771246988	2.543352716348
3	317	48.150861695493	1.983150849208
3	325	49.006202680611	2.659310124908
3	330	50.403565314751	3.697180953865
3	335	51.598914392156	2.62708695726
3	351	55.126578449107	2.210066993664
3	356	55.677100355305	1.673838652086
3	361	56.328336812334	1.943299280834
3	365	57.128266566468	2.864015583019
3	380	61.249257419097	1.836874625414
3	387	61.61436172453	1.520305508961
3	392	64.758753606481	3.542332117442
3	397	65.031016632239	4.06839157924
3	410	68.537221517085	7.031096464937
3	421	69.535736624111	2.215861833403
3	426	69.660984312002	0.793044440918
3	431	70.050242053289	1.181957647463
3	440	74.497195931426	7.550676283804
3	445	75.14301455082	4.866422403775
3	453	76.021606656283	5.671302308708
3	457	76.034185500452	8.39608371584
3	475	80.214244678579	3.105211604149
3	482	80.734708243009	3.137217996159
3	487	80.900619719314	1.442777023858
3	492	81.472087870204	0.803247893951
3	497	82.515564138534	5.292001145029
3	507	83.162672608372	0.377174702099
3	511	83.217077969861	0.1629328672
3	526	87.506307782927	2.432173457168
3	531	87.774193114106	1.092356174504
3	535	88.182901984436	0.953170047946
3	549	96.145880085194	4.065900310294
3	557	97.266054624416	3.001524805728
3	563	98.38108747844	2.912805308902
3	569	98.75371219183	3.877362652837
3	573	99.30303608141	3.050873299222
4	14	1.924040615244	1.641033596265
4	63	11.353524261599	10.991847716589
4	120	18.539013135895	15.688679745083
4	258	41.177726449389	26.951456177268
4	268	41.630643907974	22.343119557448
4	273	42.350373616635	13.63044480124
4	280	42.926554454644	3.400064768932
4	290	44.895003528826	3.830510944277
4	335	51.598914392156	2.62708695726
4	351	55.126578449107	2.210066993664
4	365	57.128266566468	2.864015583019
4	380	61.249257419097	1.836874625414
4	397	65.031016632239	4.06839157924
4	410	68.537221517085	7.031096464937
4	440	74.497195931426	7.550676283804
4	457	76.034185500452	8.39608371584
4	497	82.515564138534	5.292001145029
4	511	83.217077969861	0.1629328672
4	569	98.75371219183	3.877362652837
4	573	99.30303608141	3.050873299222
5	27	4.534659223345	4.137099446998
5	33	5.118339758079	4.289149985629
5	38	5.262681591808	1.85200394215
5	43	6.881213055259	3.275723180282
5	69	12.351379131909	4.941019950876
5	75	13.574806216492	5.820704783309
5	83	14.351577282477	6.546534013182
5	88	14.408853832952	3.758063259289
5	98	16.791205407895	5.903610617004
5	103	17.010622977155	2.132765078063
5	108	18.085487953919	1.95700433269
5	129	19.787916653489	1.387383534985
5	134	20.295277256268	1.819459339787
5	143	21.061005740234	2.439223474696
5	154	23.751540109805	2.866262596822
5	160	24.138133534737	3.148836517142
5	171	28.419818953954	6.533306290911
5	180	29.263991840107	7.007667873633
5	185	29.960211847812	7.092909593558
5	198	33.028084894483	7.970617444052
5	203	33.827834890681	8.057154663501
5	210	35.35925622017	9.104933229943
5	216	36.501423793213	7.593556057236
5	224	36.996657884354	6.695392765691
5	229	37.75253858216	7.339343793294
5	235	38.532594496628	6.00475799557
5	240	38.96653481662	6.356651963837
5	246	39.387740951742	4.722212815269
5	263	41.416189889623	0.765853773095
5	304	46.569397658936	3.268941508032
5	312	47.557771246988	2.543352716348
5	317	48.150861695493	1.983150849208
5	325	49.006202680611	2.659310124908
5	330	50.403565314751	3.697180953865
5	356	55.677100355305	1.673838652086
5	361	56.328336812334	1.943299280834
5	387	61.61436172453	1.520305508961
5	392	64.758753606481	3.542332117442
5	421	69.535736624111	2.215861833403
5	426	69.660984312002	0.793044440918
5	431	70.050242053289	1.181957647463
5	445	75.14301455082	4.866422403775
5	453	76.021606656283	5.671302308708
5	475	80.214244678579	3.105211604149
5	482	80.734708243009	3.137217996159
5	487	80.900619719314	1.442777023858
5	492	81.472087870204	0.803247893951
5	507	83.162672608372	0.377174702099
5	526	87.506307782927	2.432173457168
5	531	87.774193114106	1.092356174504
5	535	88.182901984436	0.953170047946
5	549	96.145880085194	4.065900310294
5	557	97.266054624416	3.001524805728
5	563	98.38108747844	2.912805308902

