version 2
run First-n3-16-20191125-12:37:10-6864
attr configname First-n3
attr datetime 20191125-12:37:10
attr experiment First-n3
attr inifile omnetpp.ini
attr iterationvars ""
attr iterationvarsf ""
attr measurement ""
attr network org.omnetpp.queueing.Pizza
attr processid 6864
attr repetition 16
attr replication ""
attr resultdir results_no_transient
attr runnumber 16
attr seedset 16
param **.PS.maxInventoriedPS 3
param **.U1.interArrivalTime exponential(2s)
param **.U2.interArrivalTime exponential(4s)
param **.PS.serviceTimeForInventoryU1 exponential(0.8s)
param **.PS.serviceTimeForInventoryU2 exponential(1.0s)
param **.PS.serviceTimeDirectU1 exponential(1.2s)
param **.PS.serviceTimeDirectU2 exponential(1.4s)
param **.PS.probabilityProducing 0.5
param **.CS.serviceTimeU1 exponential(0.8s)
param **.CS.serviceTimeU2 exponential(1.0s)

vector 0 Pizza.EntryQueueU1 queueLength:vector ETV
attr interpolationmode sample-hold
attr title "queue length, vector"
vector 1 Pizza.CS queueLength:vector ETV
attr interpolationmode sample-hold
attr title "queue length, vector"
vector 2 Pizza.EntryQueueU2 queueLength:vector ETV
attr interpolationmode sample-hold
attr title "queue length, vector"
vector 3 Pizza.sink lifeTime:vector ETV
attr interpolationmode none
attr title "lifetime of arrived jobs, vector"
attr unit s
vector 4 Pizza.sink lifeTimeU1:vector ETV
attr interpolationmode none
attr title "lifetime of arrived jobs, vector"
attr unit s
vector 5 Pizza.sink lifeTimeU2:vector ETV
attr interpolationmode none
attr title "lifetime of arrived jobs, vector"
attr unit s
0	0	0	0
0	41	6.054260114827	1
0	44	6.951636759616	2
0	46	7.13241955071	1
0	53	7.435938215113	2
0	54	7.534487687361	1
0	61	7.791348163015	0
0	65	7.868808933336	1
0	68	7.995179258584	0
0	79	8.624216305009	1
0	81	9.703862338775	0
0	106	12.911620229762	1
0	107	13.212933255632	0
0	115	13.52284933117	1
0	116	13.633892023374	0
0	136	17.047984036675	1
0	139	18.764194584039	2
0	141	18.784872517764	3
0	142	19.382499715204	2
0	148	19.408586518476	1
0	153	19.618099622237	0
0	159	19.666251283201	1
0	161	20.660142727468	2
0	162	20.703027574977	1
0	168	22.415486066642	2
0	170	22.660967810974	1
0	175	23.989717493609	0
0	179	24.924332355148	1
0	181	26.050870373733	2
0	184	28.931592860281	1
0	188	28.952522067628	2
0	191	29.447670110468	1
0	198	31.045800163909	0
0	204	32.425853796202	1
0	205	33.077018550606	0
0	218	35.88167723863	1
0	219	35.945256931523	0
0	280	56.25841138926	1
0	284	57.140664547399	2
0	287	58.688100412849	1
0	293	59.264379735822	2
0	298	59.730231048841	3
0	301	61.165242180258	4
0	303	61.285365660297	5
0	304	61.290712658083	4
0	310	62.434344716289	5
0	311	63.456284765844	4
0	315	64.267312446586	5
0	318	65.084715316276	4
0	322	65.910841423579	5
0	324	68.042473577204	6
0	329	70.774281136308	5
0	335	72.152865813309	6
0	336	72.231853703144	5
0	342	72.508184799938	6
0	344	73.166215848367	5
0	349	73.167804946879	4
0	353	73.401227734699	5
0	356	76.169924014186	4
0	362	77.293393436472	3
0	367	77.309369637319	2
0	371	77.938820118664	3
0	373	78.555882398186	4
0	376	79.413431046118	3
0	380	79.970629418405	4
0	384	80.199748697477	5
0	387	80.60114804558	4
0	393	84.823576789617	3
0	399	86.239827934583	4
0	400	86.365281485595	3
0	405	87.139360612014	2
0	411	88.648783494356	3
0	414	89.298810714018	2
0	420	90.716580230417	3
0	424	91.561612195683	4
0	425	92.59977084976	3
0	429	92.730588188428	4
0	433	94.623139736189	5
0	434	94.92851410931	4
0	438	95.128875614601	5
0	443	96.828272876898	4
0	447	97.163308556539	5
0	452	98.59867349988	4
0	458	99.270256006522	5
0	459	99.283551923793	4
1	0	0	0
2	0	0	0
2	34	5.825214860208	1
2	35	5.939681019278	0
2	60	7.561005946589	1
2	73	8.24632791571	0
2	85	10.115788279048	1
2	87	10.415636806652	2
2	90	10.975742791474	1
2	97	12.131003055383	0
2	103	12.826588546919	1
2	121	14.324104791149	0
2	195	29.718285777083	1
2	211	34.647446083051	2
2	212	35.723159550647	1
2	224	37.615198110528	0
2	282	56.504666578327	1
2	286	57.341443064045	2
2	296	59.528789730397	3
2	328	70.566867419045	4
2	382	80.106773979555	5
2	409	87.791770483261	6
2	418	90.313172512427	7
2	440	95.162857681497	8
2	451	98.226322184384	9
3	7	0.611476025569	0.106096790346
3	17	1.654916754784	0.072920069745
3	24	2.650047837663	0.663506016686
3	37	5.939681019278	0.230445771976
3	48	7.13241955071	1.307204690502
3	56	7.534487687361	1.480227572534
3	63	7.791348163015	0.839711403399
3	70	7.995179258584	0.559241043471
3	75	8.24632791571	0.377518982374
3	83	9.703862338775	2.142856392186
3	92	10.975742791474	2.351526486465
3	99	12.131003055383	2.015214776335
3	109	13.212933255632	2.79729644898
3	118	13.633892023374	0.722271793612
3	123	14.324104791149	0.801255459979
3	129	15.846568812389	3.01998026547
3	144	19.382499715204	3.012703925592
3	150	19.408586518476	2.360602481801
3	155	19.618099622237	0.853905038198
3	164	20.703027574977	1.918155057213
3	172	22.660967810974	2.994716527773
3	177	23.989717493609	3.329574766141
3	186	28.931592860281	6.516106793639
3	193	29.447670110468	4.52333775532
3	200	31.045800163909	4.994929790176
3	207	33.077018550606	4.124496482978
3	214	35.723159550647	3.297305754445
3	221	35.945256931523	6.22697115444
3	226	37.615198110528	1.733520871898
3	231	37.781779031074	3.134332948023
3	241	46.70623360446	1.027858364359
3	251	48.662201728801	0.2841290227
3	258	51.430446942529	2.406182387028
3	265	52.125295010357	0.056608221512
3	273	54.731684842385	0.402661851216
3	289	58.688100412849	2.614410161238
3	306	61.290712658083	5.032301268823
3	313	63.456284765844	6.315620218445
3	320	65.084715316276	5.820335580454
3	331	70.774281136308	11.044050087467
3	338	72.231853703144	11.066611522886
3	346	73.166215848367	11.88085018807
3	351	73.167804946879	10.73346023059
3	358	76.169924014186	11.9026115676
3	364	77.293393436472	11.382552012893
3	369	77.309369637319	9.266896060115
3	378	79.413431046118	7.260565232809
3	389	80.60114804558	8.092963245642
3	395	84.823576789617	11.422349054918
3	402	86.365281485595	8.426461366931
3	407	87.139360612014	8.583478213828
3	416	89.298810714018	9.328181295613
3	427	92.59977084976	12.400022152283
3	436	94.92851410931	8.688686174727
3	445	96.828272876898	8.179489382542
3	454	98.59867349988	7.882093269463
3	461	99.283551923793	7.72193972811
4	7	0.611476025569	0.106096790346
4	24	2.650047837663	0.663506016686
4	37	5.939681019278	0.230445771976
4	56	7.534487687361	1.480227572534
4	63	7.791348163015	0.839711403399
4	70	7.995179258584	0.559241043471
4	75	8.24632791571	0.377518982374
4	92	10.975742791474	2.351526486465
4	118	13.633892023374	0.722271793612
4	123	14.324104791149	0.801255459979
4	144	19.382499715204	3.012703925592
4	150	19.408586518476	2.360602481801
4	155	19.618099622237	0.853905038198
4	164	20.703027574977	1.918155057213
4	172	22.660967810974	2.994716527773
4	177	23.989717493609	3.329574766141
4	186	28.931592860281	6.516106793639
4	193	29.447670110468	4.52333775532
4	200	31.045800163909	4.994929790176
4	207	33.077018550606	4.124496482978
4	214	35.723159550647	3.297305754445
4	226	37.615198110528	1.733520871898
4	241	46.70623360446	1.027858364359
4	251	48.662201728801	0.2841290227
4	265	52.125295010357	0.056608221512
4	273	54.731684842385	0.402661851216
4	306	61.290712658083	5.032301268823
4	313	63.456284765844	6.315620218445
4	320	65.084715316276	5.820335580454
4	331	70.774281136308	11.044050087467
4	338	72.231853703144	11.066611522886
4	346	73.166215848367	11.88085018807
4	351	73.167804946879	10.73346023059
4	358	76.169924014186	11.9026115676
4	364	77.293393436472	11.382552012893
4	369	77.309369637319	9.266896060115
4	378	79.413431046118	7.260565232809
4	389	80.60114804558	8.092963245642
4	395	84.823576789617	11.422349054918
4	402	86.365281485595	8.426461366931
4	407	87.139360612014	8.583478213828
4	416	89.298810714018	9.328181295613
4	427	92.59977084976	12.400022152283
4	436	94.92851410931	8.688686174727
4	445	96.828272876898	8.179489382542
4	454	98.59867349988	7.882093269463
4	461	99.283551923793	7.72193972811
5	17	1.654916754784	0.072920069745
5	48	7.13241955071	1.307204690502
5	83	9.703862338775	2.142856392186
5	99	12.131003055383	2.015214776335
5	109	13.212933255632	2.79729644898
5	129	15.846568812389	3.01998026547
5	221	35.945256931523	6.22697115444
5	231	37.781779031074	3.134332948023
5	258	51.430446942529	2.406182387028
5	289	58.688100412849	2.614410161238

