version 2
run First-n3-8-20191125-12:36:57-8256
attr configname First-n3
attr datetime 20191125-12:36:57
attr experiment First-n3
attr inifile omnetpp.ini
attr iterationvars ""
attr iterationvarsf ""
attr measurement ""
attr network org.omnetpp.queueing.Pizza
attr processid 8256
attr repetition 8
attr replication ""
attr resultdir results_no_transient
attr runnumber 8
attr seedset 8
param **.PS.maxInventoriedPS 3
param **.U1.interArrivalTime exponential(2s)
param **.U2.interArrivalTime exponential(4s)
param **.PS.serviceTimeForInventoryU1 exponential(0.8s)
param **.PS.serviceTimeForInventoryU2 exponential(1.0s)
param **.PS.serviceTimeDirectU1 exponential(1.2s)
param **.PS.serviceTimeDirectU2 exponential(1.4s)
param **.PS.probabilityProducing 0.5
param **.CS.serviceTimeU1 exponential(0.8s)
param **.CS.serviceTimeU2 exponential(1.0s)

vector 0 Pizza.EntryQueueU1 queueLength:vector ETV
attr interpolationmode sample-hold
attr title "queue length, vector"
vector 1 Pizza.CS queueLength:vector ETV
attr interpolationmode sample-hold
attr title "queue length, vector"
vector 2 Pizza.EntryQueueU2 queueLength:vector ETV
attr interpolationmode sample-hold
attr title "queue length, vector"
vector 3 Pizza.sink lifeTime:vector ETV
attr interpolationmode none
attr title "lifetime of arrived jobs, vector"
attr unit s
vector 4 Pizza.sink lifeTimeU2:vector ETV
attr interpolationmode none
attr title "lifetime of arrived jobs, vector"
attr unit s
vector 5 Pizza.sink lifeTimeU1:vector ETV
attr interpolationmode none
attr title "lifetime of arrived jobs, vector"
attr unit s
0	0	0	0
0	19	5.163414617132	1
0	20	5.779043977599	0
0	34	7.814975175597	1
0	35	8.148548248622	0
0	59	13.904410303721	1
0	60	14.269745660026	0
0	66	14.307915261128	1
0	69	14.47342201526	0
0	80	15.822176477579	1
0	83	16.081727911768	2
0	88	16.948484293405	3
0	92	18.638029171679	4
0	93	19.233185995864	3
0	98	19.541351119028	2
0	103	19.638010539982	1
0	110	20.79635865759	2
0	111	20.929795627896	1
0	116	21.670150573601	0
0	127	22.101435962508	1
0	131	24.234675577346	0
0	145	25.224375389211	1
0	150	27.197027518421	2
0	155	27.50818106098	1
0	162	28.733391071066	2
0	165	29.804422553957	1
0	170	30.376050701863	0
0	190	31.409180759838	1
0	191	32.484543746567	0
0	197	32.917972364957	1
0	201	33.579806760523	0
0	214	35.470517971269	1
0	215	35.67864724241	0
0	221	35.696447963344	1
0	224	36.468889755737	2
0	225	36.698959321085	1
0	231	36.923719499363	2
0	233	37.204008266959	1
0	239	37.988186410748	0
0	245	38.215498808641	1
0	247	38.832158415494	2
0	251	40.228373285747	1
0	258	41.402404204841	2
0	259	42.26219853415	1
0	264	42.381355656763	0
0	270	42.46393569383	1
0	271	43.188514607692	0
0	282	44.937782554931	1
0	287	48.968004055803	0
0	345	62.452168213373	1
0	351	62.581913790745	2
0	352	63.119271403678	1
0	359	63.663737004117	2
0	360	64.239709179186	1
0	365	64.414774075524	0
0	369	64.453077861804	1
0	376	65.690053401963	2
0	377	66.137162235122	1
0	382	66.357396480184	0
0	400	67.44629450393	1
0	404	68.071509174582	0
0	509	95.886300573712	1
0	510	96.687772832504	0
1	0	0	0
2	0	0	0
2	68	14.428146340039	1
2	74	15.050046857433	0
2	86	16.429238405379	1
2	90	18.347572767551	2
2	121	21.874392312296	1
2	130	24.125981619754	2
2	136	24.266427267675	1
2	141	24.754113384059	0
2	154	27.501262852576	1
2	176	30.681868280085	2
2	177	30.885301750362	1
2	183	30.955613069153	0
2	199	33.0032284766	1
2	208	34.964108390609	0
2	286	48.347024719582	1
2	291	49.377336517058	2
2	295	51.405403246996	1
2	301	55.185126994881	0
2	316	56.964677706818	1
2	317	57.133239385476	0
2	343	62.046911267065	1
2	349	62.578000295055	2
2	374	65.379595904751	3
2	387	66.569417211735	2
2	394	67.433814048763	1
2	403	67.968522972473	2
2	410	69.184902752853	1
2	416	70.367728526043	0
2	470	80.049182840571	1
2	472	81.175886248887	0
3	10	1.184731110871	1.140024451117
3	22	5.779043977599	1.645133876297
3	27	6.746307072614	1.582892455482
3	37	8.148548248622	1.364168861757
3	41	8.447312196142	0.632337020545
3	51	9.9460111064	0.197540350679
3	62	14.269745660026	0.388800922783
3	71	14.47342201526	0.569011711539
3	76	15.050046857433	0.742131596305
3	95	19.233185995864	4.805039655825
3	100	19.541351119028	3.719174641449
3	105	19.638010539982	3.556282628214
3	113	20.929795627896	3.981311334491
3	118	21.670150573601	3.032121401922
3	123	21.874392312296	1.078033654706
3	133	24.234675577346	7.805437171967
3	138	24.266427267675	2.164991305167
3	143	24.754113384059	6.406540616508
3	157	27.50818106098	3.382199441226
3	167	29.804422553957	4.580047164746
3	172	30.376050701863	3.179023183442
3	179	30.885301750362	2.151910679296
3	185	30.955613069153	3.454350216577
3	193	32.484543746567	1.802675466482
3	203	33.579806760523	2.170626000685
3	210	34.964108390609	2.046136025652
3	217	35.67864724241	2.67541876581
3	227	36.698959321085	1.228441349816
3	235	37.204008266959	1.507560303615
3	241	37.988186410748	1.519296655011
3	253	40.228373285747	3.304653786384
3	261	42.26219853415	4.046699725509
3	266	42.381355656763	3.549197241269
3	273	43.188514607692	1.786110402851
3	277	43.28257456404	0.81863887021
3	289	48.968004055803	5.424842721761
3	297	51.405403246996	6.467620692065
3	303	55.185126994881	6.838102275299
3	307	55.285641897995	5.908305380937
3	319	57.133239385476	0.496452986984
3	323	57.378131673796	0.413453966978
3	330	58.123710923858	0.51085616461
3	337	59.712616650484	0.937713197918
3	354	63.119271403678	2.698573382043
3	362	64.239709179186	1.787540965813
3	367	64.414774075524	1.832860284779
3	379	66.137162235122	2.473425231005
3	384	66.357396480184	1.90431861838
3	389	66.569417211735	0.879363809772
3	396	67.433814048763	5.386902781698
3	406	68.071509174582	5.493508879527
3	412	69.184902752853	1.738608248923
3	418	70.367728526043	4.988132621292
3	423	71.018309082493	3.04978611002
3	430	71.463333368852	0.005785999728
3	437	72.908919623604	0.616143736677
3	447	75.476457988675	0.816760011037
3	455	77.532332208565	0.38423356366
3	462	78.103006025292	0.165865798174
3	474	81.175886248887	1.357496137742
3	478	81.534596995167	1.485414154596
3	486	82.480744304649	0.138412257203
3	494	84.025499262482	0.443924079342
3	502	86.350201580338	0.829601860831
3	512	96.687772832504	0.938245619644
3	516	97.157184496527	1.270883922815
3	524	99.249341923851	2.069585474556
4	10	1.184731110871	1.140024451117
4	62	14.269745660026	0.388800922783
4	95	19.233185995864	4.805039655825
4	133	24.234675577346	7.805437171967
4	143	24.754113384059	6.406540616508
4	157	27.50818106098	3.382199441226
4	185	30.955613069153	3.454350216577
4	193	32.484543746567	1.802675466482
4	217	35.67864724241	2.67541876581
4	303	55.185126994881	6.838102275299
4	307	55.285641897995	5.908305380937
4	323	57.378131673796	0.413453966978
4	396	67.433814048763	5.386902781698
4	406	68.071509174582	5.493508879527
4	418	70.367728526043	4.988132621292
4	423	71.018309082493	3.04978611002
4	447	75.476457988675	0.816760011037
4	478	81.534596995167	1.485414154596
4	486	82.480744304649	0.138412257203
4	524	99.249341923851	2.069585474556
5	22	5.779043977599	1.645133876297
5	27	6.746307072614	1.582892455482
5	37	8.148548248622	1.364168861757
5	41	8.447312196142	0.632337020545
5	51	9.9460111064	0.197540350679
5	71	14.47342201526	0.569011711539
5	76	15.050046857433	0.742131596305
5	100	19.541351119028	3.719174641449
5	105	19.638010539982	3.556282628214
5	113	20.929795627896	3.981311334491
5	118	21.670150573601	3.032121401922
5	123	21.874392312296	1.078033654706
5	138	24.266427267675	2.164991305167
5	167	29.804422553957	4.580047164746
5	172	30.376050701863	3.179023183442
5	179	30.885301750362	2.151910679296
5	203	33.579806760523	2.170626000685
5	210	34.964108390609	2.046136025652
5	227	36.698959321085	1.228441349816
5	235	37.204008266959	1.507560303615
5	241	37.988186410748	1.519296655011
5	253	40.228373285747	3.304653786384
5	261	42.26219853415	4.046699725509
5	266	42.381355656763	3.549197241269
5	273	43.188514607692	1.786110402851
5	277	43.28257456404	0.81863887021
5	289	48.968004055803	5.424842721761
5	297	51.405403246996	6.467620692065
5	319	57.133239385476	0.496452986984
5	330	58.123710923858	0.51085616461
5	337	59.712616650484	0.937713197918
5	354	63.119271403678	2.698573382043
5	362	64.239709179186	1.787540965813
5	367	64.414774075524	1.832860284779
5	379	66.137162235122	2.473425231005
5	384	66.357396480184	1.90431861838
5	389	66.569417211735	0.879363809772
5	412	69.184902752853	1.738608248923
5	430	71.463333368852	0.005785999728
5	437	72.908919623604	0.616143736677
5	455	77.532332208565	0.38423356366
5	462	78.103006025292	0.165865798174
5	474	81.175886248887	1.357496137742
5	494	84.025499262482	0.443924079342
5	502	86.350201580338	0.829601860831
5	512	96.687772832504	0.938245619644
5	516	97.157184496527	1.270883922815

