version 2
run First-n3-1-20191125-12:36:48-9640
attr configname First-n3
attr datetime 20191125-12:36:48
attr experiment First-n3
attr inifile omnetpp.ini
attr iterationvars ""
attr iterationvarsf ""
attr measurement ""
attr network org.omnetpp.queueing.Pizza
attr processid 9640
attr repetition 1
attr replication ""
attr resultdir results_no_transient
attr runnumber 1
attr seedset 1
param **.PS.maxInventoriedPS 3
param **.U1.interArrivalTime exponential(2s)
param **.U2.interArrivalTime exponential(4s)
param **.PS.serviceTimeForInventoryU1 exponential(0.8s)
param **.PS.serviceTimeForInventoryU2 exponential(1.0s)
param **.PS.serviceTimeDirectU1 exponential(1.2s)
param **.PS.serviceTimeDirectU2 exponential(1.4s)
param **.PS.probabilityProducing 0.5
param **.CS.serviceTimeU1 exponential(0.8s)
param **.CS.serviceTimeU2 exponential(1.0s)

vector 0 Pizza.EntryQueueU1 queueLength:vector ETV
attr interpolationmode sample-hold
attr title "queue length, vector"
vector 1 Pizza.CS queueLength:vector ETV
attr interpolationmode sample-hold
attr title "queue length, vector"
vector 2 Pizza.EntryQueueU2 queueLength:vector ETV
attr interpolationmode sample-hold
attr title "queue length, vector"
vector 3 Pizza.sink lifeTime:vector ETV
attr interpolationmode none
attr title "lifetime of arrived jobs, vector"
attr unit s
vector 4 Pizza.sink lifeTimeU1:vector ETV
attr interpolationmode none
attr title "lifetime of arrived jobs, vector"
attr unit s
vector 5 Pizza.sink lifeTimeU2:vector ETV
attr interpolationmode none
attr title "lifetime of arrived jobs, vector"
attr unit s
0	0	0	0
0	5	3.627462129344	1
0	7	3.627690904589	2
0	9	3.901908065775	3
0	13	4.530428224701	2
0	17	4.621933561487	3
0	20	5.182127811435	2
0	24	5.60368787706	3
0	26	7.151607417611	4
0	31	9.396866798728	3
0	37	10.008433400689	2
0	44	10.662839249793	1
0	50	10.897254751353	2
0	51	11.669781018733	1
0	56	11.747695610033	0
0	77	21.969406460073	1
0	79	22.176457164384	2
0	80	22.443172934606	1
0	88	23.974663327209	2
0	90	25.498223372319	3
0	93	25.633106503072	2
0	97	25.938397061751	3
0	101	26.696576010562	4
0	104	27.26691560979	3
0	110	30.295663468559	4
0	113	30.864764144473	3
0	119	31.337430866638	2
0	124	31.398386581085	1
0	129	32.192097005218	0
0	133	32.457025848584	1
0	137	32.720645311805	0
0	195	40.031233817162	1
0	197	40.327015417703	2
0	199	41.515358083474	3
0	201	41.815321648272	4
0	203	42.10289073719	3
0	208	42.247488999925	2
0	213	42.606096516283	1
0	221	44.154614382148	0
0	227	46.269087420199	1
0	230	46.395556111624	0
0	253	49.049229886949	1
0	255	49.202542805785	2
0	258	49.446304076751	3
0	259	49.543457750007	2
0	263	49.578727547942	3
0	269	50.456700070529	4
0	270	50.680254263837	3
0	274	50.997765277412	4
0	279	52.409783335987	3
0	285	54.504157426939	2
0	290	54.868640143808	1
0	296	55.671694307694	2
0	297	56.413118440348	1
0	303	56.93163605141	2
0	304	57.857826237048	1
0	313	59.27979697739	2
0	314	59.331221133763	1
0	319	59.830583099861	0
0	439	84.85993352938	1
0	440	85.203962483919	0
0	477	89.540005410454	1
0	478	90.013545797828	0
0	518	94.25005754277	1
0	519	94.319858396354	0
1	0	0	0
2	0	0	0
2	86	23.490899443926	1
2	92	25.613570028171	2
2	112	30.322596391847	3
2	143	33.629286848705	2
2	148	33.937915657046	1
2	154	34.81592150735	0
2	193	39.886712177258	1
2	217	42.999687053891	2
2	229	46.384960328101	3
2	235	47.162153075376	2
2	241	48.132406306038	3
2	242	48.559663502939	2
2	247	48.571401316657	1
2	267	50.367509201618	2
2	276	52.278383510705	3
2	308	58.184923070231	4
2	324	60.480341783105	3
2	334	63.044610402293	2
2	339	63.757573177745	1
2	344	63.865308992657	0
2	451	86.125946124659	1
2	453	87.22289234266	2
2	457	88.18248811407	1
2	462	88.353029009644	0
2	470	88.642057749281	1
2	471	89.40605788561	0
2	527	95.982805140529	1
2	528	96.458927325395	0
3	15	4.530428224701	3.451216571677
3	22	5.182127811435	1.554665682091
3	33	9.396866798728	5.769175894139
3	39	10.008433400689	6.106525334914
3	46	10.662839249793	6.040905688306
3	53	11.669781018733	6.066093141673
3	58	11.747695610033	4.596088192422
3	62	14.764244194747	3.866989443394
3	70	17.936234663558	0.138525737633
3	82	22.443172934606	1.111561571497
3	95	25.633106503072	3.663700042999
3	106	27.26691560979	5.090458445406
3	115	30.864764144473	6.890100817264
3	121	31.337430866638	5.839207494319
3	126	31.398386581085	5.459989519334
3	131	32.192097005218	5.495520994656
3	139	32.720645311805	2.424981843246
3	145	33.629286848705	1.172261000121
3	150	33.937915657046	10.44701621312
3	156	34.81592150735	9.202351479179
3	160	34.974599085708	4.652002693861
3	168	35.946489133436	0.107957697017
3	177	37.09949140719	0.051244304883
3	186	38.002787961633	0.872026513214
3	205	42.10289073719	2.337196340118
3	210	42.247488999925	2.216255182763
3	215	42.606096516283	2.27908109858
3	223	44.154614382148	2.639256298674
3	232	46.395556111624	4.580234463352
3	237	47.162153075376	0.893065655177
3	244	48.559663502939	8.672951325681
3	249	48.571401316657	5.571714262766
3	261	49.543457750007	3.158497421906
3	272	50.680254263837	1.631024376888
3	281	52.409783335987	3.207240530202
3	287	54.504157426939	5.057853350188
3	292	54.868640143808	5.289912595866
3	299	56.413118440348	5.956418369819
3	306	57.857826237048	6.860060959636
3	316	59.331221133763	3.659526826069
3	321	59.830583099861	2.898947048451
3	326	60.480341783105	1.200544805715
3	336	63.044610402293	14.912204096255
3	341	63.757573177745	13.390063976127
3	346	63.865308992657	11.586925481952
3	351	64.639299844809	6.454376774578
3	358	64.9348204087	0.260937478346
3	365	66.360297932061	0.076818014265
3	373	66.915548336916	0.366894302726
3	383	73.927635760101	0.392636255219
3	391	76.509016713695	0.44663102432
3	400	79.209428369344	0.359413792977
3	407	80.565936197048	0.090977744632
3	415	81.564695812723	0.998587745398
3	422	81.951631166745	0.074695834386
3	430	83.794062338797	0.181814879204
3	442	85.203962483919	0.696593088115
3	446	85.2450123486	0.38507881922
3	459	88.18248811407	2.394880754399
3	464	88.353029009644	2.227082884985
3	473	89.40605788561	2.18316554295
3	480	90.013545797828	1.371488048547
3	484	90.10617627668	0.566170866226
3	492	90.872292528142	0.56870478094
3	500	92.150873255664	0.113497225484
3	508	92.448181563175	0.077160169811
3	521	94.319858396354	0.100160516484
3	530	96.458927325395	2.208869782625
3	535	96.851255354572	0.868450214043
3	543	98.700405917838	1.18335262862
4	15	4.530428224701	3.451216571677
4	22	5.182127811435	1.554665682091
4	33	9.396866798728	5.769175894139
4	39	10.008433400689	6.106525334914
4	46	10.662839249793	6.040905688306
4	53	11.669781018733	6.066093141673
4	58	11.747695610033	4.596088192422
4	62	14.764244194747	3.866989443394
4	70	17.936234663558	0.138525737633
4	82	22.443172934606	1.111561571497
4	95	25.633106503072	3.663700042999
4	106	27.26691560979	5.090458445406
4	115	30.864764144473	6.890100817264
4	121	31.337430866638	5.839207494319
4	126	31.398386581085	5.459989519334
4	131	32.192097005218	5.495520994656
4	139	32.720645311805	2.424981843246
4	145	33.629286848705	1.172261000121
4	186	38.002787961633	0.872026513214
4	210	42.247488999925	2.216255182763
4	215	42.606096516283	2.27908109858
4	223	44.154614382148	2.639256298674
4	232	46.395556111624	4.580234463352
4	237	47.162153075376	0.893065655177
4	272	50.680254263837	1.631024376888
4	281	52.409783335987	3.207240530202
4	287	54.504157426939	5.057853350188
4	292	54.868640143808	5.289912595866
4	299	56.413118440348	5.956418369819
4	306	57.857826237048	6.860060959636
4	316	59.331221133763	3.659526826069
4	321	59.830583099861	2.898947048451
4	326	60.480341783105	1.200544805715
4	358	64.9348204087	0.260937478346
4	365	66.360297932061	0.076818014265
4	373	66.915548336916	0.366894302726
4	383	73.927635760101	0.392636255219
4	391	76.509016713695	0.44663102432
4	400	79.209428369344	0.359413792977
4	407	80.565936197048	0.090977744632
4	415	81.564695812723	0.998587745398
4	430	83.794062338797	0.181814879204
4	442	85.203962483919	0.696593088115
4	446	85.2450123486	0.38507881922
4	459	88.18248811407	2.394880754399
4	484	90.10617627668	0.566170866226
4	492	90.872292528142	0.56870478094
4	500	92.150873255664	0.113497225484
4	530	96.458927325395	2.208869782625
4	543	98.700405917838	1.18335262862
5	150	33.937915657046	10.44701621312
5	156	34.81592150735	9.202351479179
5	160	34.974599085708	4.652002693861
5	168	35.946489133436	0.107957697017
5	177	37.09949140719	0.051244304883
5	205	42.10289073719	2.337196340118
5	244	48.559663502939	8.672951325681
5	249	48.571401316657	5.571714262766
5	261	49.543457750007	3.158497421906
5	336	63.044610402293	14.912204096255
5	341	63.757573177745	13.390063976127
5	346	63.865308992657	11.586925481952
5	351	64.639299844809	6.454376774578
5	422	81.951631166745	0.074695834386
5	464	88.353029009644	2.227082884985
5	473	89.40605788561	2.18316554295
5	480	90.013545797828	1.371488048547
5	508	92.448181563175	0.077160169811
5	521	94.319858396354	0.100160516484
5	535	96.851255354572	0.868450214043

