version 2
run First-n4-3-20191125-12:36:51-3436
attr configname First-n4
attr datetime 20191125-12:36:51
attr experiment First-n4
attr inifile omnetpp.ini
attr iterationvars ""
attr iterationvarsf ""
attr measurement ""
attr network org.omnetpp.queueing.Pizza
attr processid 3436
attr repetition 3
attr replication ""
attr resultdir results_no_transient
attr runnumber 3
attr seedset 3
param **.PS.maxInventoriedPS 4
param **.U1.interArrivalTime exponential(2s)
param **.U2.interArrivalTime exponential(4s)
param **.PS.serviceTimeForInventoryU1 exponential(0.8s)
param **.PS.serviceTimeForInventoryU2 exponential(1.0s)
param **.PS.serviceTimeDirectU1 exponential(1.2s)
param **.PS.serviceTimeDirectU2 exponential(1.4s)
param **.PS.probabilityProducing 0.5
param **.CS.serviceTimeU1 exponential(0.8s)
param **.CS.serviceTimeU2 exponential(1.0s)

vector 0 Pizza.EntryQueueU1 queueLength:vector ETV
attr interpolationmode sample-hold
attr title "queue length, vector"
vector 1 Pizza.CS queueLength:vector ETV
attr interpolationmode sample-hold
attr title "queue length, vector"
vector 2 Pizza.EntryQueueU2 queueLength:vector ETV
attr interpolationmode sample-hold
attr title "queue length, vector"
vector 3 Pizza.sink lifeTime:vector ETV
attr interpolationmode none
attr title "lifetime of arrived jobs, vector"
attr unit s
vector 4 Pizza.sink lifeTimeU2:vector ETV
attr interpolationmode none
attr title "lifetime of arrived jobs, vector"
attr unit s
vector 5 Pizza.sink lifeTimeU1:vector ETV
attr interpolationmode none
attr title "lifetime of arrived jobs, vector"
attr unit s
0	0	0	0
0	5	1.600564781785	1
0	7	2.288095598378	2
0	9	2.54678412136	3
0	12	3.43315566706	2
0	16	3.976864716075	3
0	18	4.014716680362	4
0	20	4.283117778383	5
0	22	4.366076235853	6
0	24	4.830553000791	7
0	28	5.400293863054	8
0	32	5.596735977928	9
0	36	6.640850610252	8
0	42	6.99029768227	7
0	47	7.009716986619	6
0	53	7.970466970357	7
0	57	9.180801071354	6
0	62	9.887511426961	5
0	70	11.069266314761	4
0	75	11.30754414352	3
0	83	12.62259038886	2
0	87	15.242909753639	3
0	90	15.800037452771	2
0	98	17.311169449402	1
0	104	17.515139511956	0
0	111	18.553132227287	1
0	112	18.618300420454	0
0	118	19.243169297665	1
0	120	20.4670620962	0
0	140	21.416652938257	1
0	141	21.923973126332	0
0	155	22.738344149705	1
0	157	23.458648510352	0
0	175	26.04264078775	1
0	176	26.309714233606	0
0	182	26.350340712659	1
0	183	26.532084911998	0
0	214	31.456675411738	1
0	216	31.667628332224	2
0	217	31.720774415107	1
0	222	32.36542897553	0
0	231	34.02716857456	1
0	233	36.218150550083	2
0	236	37.140370966691	1
0	241	37.385467919974	0
0	247	38.507118205711	1
0	248	38.756332716788	0
0	260	43.023555493303	1
0	263	45.76334114217	0
0	267	45.9868649925	1
0	272	47.995282219346	2
0	274	48.432541173906	3
0	278	49.321001137185	2
0	288	50.84389489225	1
0	293	51.380805032475	0
0	304	51.953319969524	1
0	306	52.555114277011	0
0	349	56.312252647186	1
0	350	56.725631350358	0
0	371	59.038165192153	1
0	372	59.998823077906	0
0	410	71.772663645508	1
0	412	72.073070569033	2
0	413	72.154014722972	1
0	418	72.589221168653	0
0	431	73.619459676287	1
0	433	75.017156015337	0
0	463	79.46200507237	1
0	464	79.604911793181	0
0	470	80.36421583004	1
0	471	81.113612652883	0
0	486	83.107870527569	1
0	487	84.169957437299	0
0	491	84.638166258567	1
0	494	84.834734260544	0
0	498	87.621189970848	1
0	500	88.777268345653	2
0	507	91.558092459849	3
0	508	91.657890274205	2
0	513	92.411127988788	1
0	519	92.668215824996	0
0	531	93.969452855589	1
0	533	94.53765212104	0
1	0	0	0
2	0	0	0
2	26	5.219433132825	1
2	30	5.430788803539	2
2	51	7.755851531757	3
2	69	11.029369874195	4
2	97	17.091607846497	5
2	125	20.733750167552	4
2	132	21.202354341521	3
2	147	22.092592866874	4
2	149	22.28393374421	3
2	163	24.94387685301	2
2	169	25.720665679389	1
2	188	26.741783921739	0
2	194	27.012308254034	1
2	195	27.400424951673	0
2	212	31.217050316526	1
2	227	32.437369367708	0
2	284	49.760058042989	1
2	286	50.594313694068	2
2	298	51.891342923887	1
2	311	53.006219796837	0
2	319	53.731806643794	1
2	321	53.890589234044	2
2	322	53.946920325346	1
2	327	54.258823719721	0
2	383	63.568984537614	1
2	386	64.947826641347	0
2	392	66.113527061856	1
2	394	67.52554153601	0
2	445	76.158880107446	1
2	448	76.593498470722	0
2	505	89.594668472409	1
2	525	93.889608767443	0
2	539	94.68869224104	1
2	540	94.781164668527	0
2	546	94.996379683867	1
2	548	95.253592988946	2
2	551	97.045520735266	3
2	552	97.091487672864	2
2	559	97.425129149553	1
2	565	97.628191087944	0
3	14	3.43315566706	3.139753915202
3	38	6.640850610252	5.040285828467
3	44	6.99029768227	4.702202083892
3	49	7.009716986619	4.462932865259
3	59	9.180801071354	5.203936355279
3	64	9.887511426961	5.872794746599
3	72	11.069266314761	6.786148536378
3	77	11.30754414352	6.941467907667
3	85	12.62259038886	7.792037388069
3	92	15.800037452771	10.399743589717
3	100	17.311169449402	11.714433471474
3	106	17.515139511956	9.544672541599
3	114	18.618300420454	3.375390666815
3	122	20.4670620962	1.913929868913
3	127	20.733750167552	1.490580869887
3	134	21.202354341521	15.982921208696
3	143	21.923973126332	16.493184322793
3	151	22.28393374421	0.867280805953
3	159	23.458648510352	15.702796978595
3	165	24.94387685301	2.205532703305
3	171	25.720665679389	14.691295805194
3	178	26.309714233606	9.218106387109
3	185	26.532084911998	0.489444124248
3	190	26.741783921739	0.39144320908
3	197	27.400424951673	5.307832084799
3	201	28.104782853821	1.092474599787
3	219	31.720774415107	2.080068535012
3	224	32.36542897553	0.908753563792
3	229	32.437369367708	0.769741035484
3	238	37.140370966691	5.923320650165
3	243	37.385467919974	3.358299345414
3	250	38.756332716788	2.538182166705
3	254	40.296197919597	1.789079713886
3	265	45.76334114217	3.601121407748
3	280	49.321001137185	6.297445643882
3	290	50.84389489225	4.85702989975
3	295	51.380805032475	3.385522813129
3	300	51.891342923887	3.458801749981
3	308	52.555114277011	2.795056234022
3	313	53.006219796837	1.052899827313
3	324	53.946920325346	3.352606631278
3	329	54.258823719721	0.527017075927
3	333	54.493753139272	0.603163905228
3	341	55.161373619933	0.651963584299
3	352	56.725631350358	1.056194168253
3	356	56.783801898074	0.471549250888
3	363	57.260730323458	0.06920572524
3	374	59.998823077906	1.453476873432
3	378	60.240080291986	1.201915099833
3	388	64.947826641347	2.065174612306
3	396	67.52554153601	3.956556998396
3	400	69.502375845542	3.388848783686
3	415	72.154014722972	0.520705913566
3	420	72.589221168653	0.816557523145
3	424	73.167973971497	1.094903402464
3	435	75.017156015337	1.60427285331
3	439	75.706377993614	2.086918317327
3	450	76.593498470722	0.702139064928
3	454	76.931842128033	0.772962020587
3	466	79.604911793181	0.194625446098
3	473	81.113612652883	1.651607580513
3	477	81.77761984961	1.41340401957
3	489	84.169957437299	1.262980603074
3	496	84.834734260544	1.726863732975
3	510	91.657890274205	7.019724015638
3	515	92.411127988788	4.78993801794
3	521	92.668215824996	3.890947479343
3	527	93.889608767443	2.331516307594
3	535	94.53765212104	4.942983648631
3	542	94.781164668527	0.811711812938
3	554	97.091487672864	2.402795431824
3	561	97.425129149553	2.428749465686
3	567	97.628191087944	2.374598098998
3	571	98.316913736154	1.271393000888
4	14	3.43315566706	3.139753915202
4	134	21.202354341521	15.982921208696
4	143	21.923973126332	16.493184322793
4	159	23.458648510352	15.702796978595
4	171	25.720665679389	14.691295805194
4	178	26.309714233606	9.218106387109
4	197	27.400424951673	5.307832084799
4	201	28.104782853821	1.092474599787
4	238	37.140370966691	5.923320650165
4	308	52.555114277011	2.795056234022
4	324	53.946920325346	3.352606631278
4	329	54.258823719721	0.527017075927
4	333	54.493753139272	0.603163905228
4	341	55.161373619933	0.651963584299
4	352	56.725631350358	1.056194168253
4	388	64.947826641347	2.065174612306
4	396	67.52554153601	3.956556998396
4	400	69.502375845542	3.388848783686
4	415	72.154014722972	0.520705913566
4	435	75.017156015337	1.60427285331
4	454	76.931842128033	0.772962020587
4	535	94.53765212104	4.942983648631
4	554	97.091487672864	2.402795431824
4	561	97.425129149553	2.428749465686
4	567	97.628191087944	2.374598098998
4	571	98.316913736154	1.271393000888
5	38	6.640850610252	5.040285828467
5	44	6.99029768227	4.702202083892
5	49	7.009716986619	4.462932865259
5	59	9.180801071354	5.203936355279
5	64	9.887511426961	5.872794746599
5	72	11.069266314761	6.786148536378
5	77	11.30754414352	6.941467907667
5	85	12.62259038886	7.792037388069
5	92	15.800037452771	10.399743589717
5	100	17.311169449402	11.714433471474
5	106	17.515139511956	9.544672541599
5	114	18.618300420454	3.375390666815
5	122	20.4670620962	1.913929868913
5	127	20.733750167552	1.490580869887
5	151	22.28393374421	0.867280805953
5	165	24.94387685301	2.205532703305
5	185	26.532084911998	0.489444124248
5	190	26.741783921739	0.39144320908
5	219	31.720774415107	2.080068535012
5	224	32.36542897553	0.908753563792
5	229	32.437369367708	0.769741035484
5	243	37.385467919974	3.358299345414
5	250	38.756332716788	2.538182166705
5	254	40.296197919597	1.789079713886
5	265	45.76334114217	3.601121407748
5	280	49.321001137185	6.297445643882
5	290	50.84389489225	4.85702989975
5	295	51.380805032475	3.385522813129
5	300	51.891342923887	3.458801749981
5	313	53.006219796837	1.052899827313
5	356	56.783801898074	0.471549250888
5	363	57.260730323458	0.06920572524
5	374	59.998823077906	1.453476873432
5	378	60.240080291986	1.201915099833
5	420	72.589221168653	0.816557523145
5	424	73.167973971497	1.094903402464
5	439	75.706377993614	2.086918317327
5	450	76.593498470722	0.702139064928
5	466	79.604911793181	0.194625446098
5	473	81.113612652883	1.651607580513
5	477	81.77761984961	1.41340401957
5	489	84.169957437299	1.262980603074
5	496	84.834734260544	1.726863732975
5	510	91.657890274205	7.019724015638
5	515	92.411127988788	4.78993801794
5	521	92.668215824996	3.890947479343
5	527	93.889608767443	2.331516307594
5	542	94.781164668527	0.811711812938

