version 2
run First-n4-4-20191125-12:36:52-2440
attr configname First-n4
attr datetime 20191125-12:36:52
attr experiment First-n4
attr inifile omnetpp.ini
attr iterationvars ""
attr iterationvarsf ""
attr measurement ""
attr network org.omnetpp.queueing.Pizza
attr processid 2440
attr repetition 4
attr replication ""
attr resultdir results_no_transient
attr runnumber 4
attr seedset 4
param **.PS.maxInventoriedPS 4
param **.U1.interArrivalTime exponential(2s)
param **.U2.interArrivalTime exponential(4s)
param **.PS.serviceTimeForInventoryU1 exponential(0.8s)
param **.PS.serviceTimeForInventoryU2 exponential(1.0s)
param **.PS.serviceTimeDirectU1 exponential(1.2s)
param **.PS.serviceTimeDirectU2 exponential(1.4s)
param **.PS.probabilityProducing 0.5
param **.CS.serviceTimeU1 exponential(0.8s)
param **.CS.serviceTimeU2 exponential(1.0s)

vector 0 Pizza.EntryQueueU1 queueLength:vector ETV
attr interpolationmode sample-hold
attr title "queue length, vector"
vector 1 Pizza.CS queueLength:vector ETV
attr interpolationmode sample-hold
attr title "queue length, vector"
vector 2 Pizza.EntryQueueU2 queueLength:vector ETV
attr interpolationmode sample-hold
attr title "queue length, vector"
vector 3 Pizza.sink lifeTime:vector ETV
attr interpolationmode none
attr title "lifetime of arrived jobs, vector"
attr unit s
vector 4 Pizza.sink lifeTimeU1:vector ETV
attr interpolationmode none
attr title "lifetime of arrived jobs, vector"
attr unit s
vector 5 Pizza.sink lifeTimeU2:vector ETV
attr interpolationmode none
attr title "lifetime of arrived jobs, vector"
attr unit s
0	0	0	0
0	19	10.287334142778	1
0	25	12.291919922191	2
0	26	12.83773584874	1
0	34	13.565454010872	0
0	45	14.145268517297	1
0	46	15.267922764238	0
0	52	15.291190670384	1
0	53	15.300397349158	0
0	135	29.358370780912	1
0	137	29.897115748726	2
0	138	29.989120957793	1
0	143	30.159127610422	0
0	158	31.926892241597	1
0	159	32.727826180213	0
0	165	33.00526118706	1
0	166	33.080335022446	0
0	177	34.043061499763	1
0	178	35.325353438331	0
0	191	36.778732411074	1
0	193	36.978810869621	2
0	196	38.341468972787	1
0	201	39.262265333744	0
0	207	39.616781124221	1
0	208	39.964355879925	0
0	212	39.972337045933	1
0	216	41.764693967559	2
0	219	42.532629803817	1
0	223	42.668708171625	2
0	225	42.712419778087	3
0	227	42.811922723736	4
0	229	44.282673055733	5
0	235	44.51533200938	6
0	236	45.717121545822	5
0	242	45.961117232453	6
0	244	46.237195354984	7
0	249	49.432592802843	6
0	253	49.949240858276	7
0	256	52.267249325551	6
0	260	52.289312071742	7
0	266	55.928812044746	6
0	271	56.085047985642	5
0	279	57.827827986868	6
0	281	59.348160211133	5
0	286	59.590041834254	4
0	291	59.68552855704	3
0	300	59.757371971602	4
0	302	59.763233744329	5
0	305	61.547209976542	4
0	311	61.717273918246	5
0	312	62.603611425665	4
0	316	63.114188719085	5
0	319	64.501824822997	4
0	325	65.51047558311	3
0	331	65.805930141319	2
0	337	65.866835699014	3
0	338	67.071479065252	2
0	344	68.682765812777	3
0	349	70.004883922394	2
0	363	74.050135375213	3
0	365	74.57259712923	4
0	366	74.58557609539	3
0	371	74.701171022275	2
0	376	74.763151476088	1
0	381	76.852544976978	0
0	417	82.521450043051	1
0	418	82.719678402949	0
0	435	85.563673470759	1
0	436	85.583520050369	0
0	482	94.940085223973	1
0	485	95.709881034006	0
0	502	99.991226299325	1
1	0	0	0
2	0	0	0
2	12	9.23527612256	1
2	32	12.876075456012	2
2	39	13.601585850896	1
2	58	15.773374242673	0
2	133	28.896818017363	1
2	148	30.222107996156	0
2	154	30.699841235397	1
2	171	33.458156914653	0
2	218	42.455285530829	1
2	231	44.282969734006	2
2	240	45.749943994419	3
2	248	49.141122105329	4
2	262	55.322341486341	5
2	297	59.71992510896	6
2	304	60.578836748075	7
2	346	68.954389741814	8
2	348	69.717965537477	9
2	353	70.095831259774	10
2	355	70.964997640535	11
2	359	73.470614579505	12
2	361	73.512540221558	13
2	386	77.751053705726	12
2	394	79.103097310223	13
2	396	80.021092764093	12
2	402	80.37550551875	13
2	404	80.400881602489	14
2	405	81.02777191681	13
2	410	82.026608311041	12
2	424	83.108305132506	13
2	426	83.299837398316	12
2	442	85.887681403464	11
2	449	87.682132729023	10
2	455	89.231692886535	9
2	460	89.599019519564	8
2	465	90.055256170808	7
2	470	91.158214645499	6
2	476	91.547671049573	5
2	480	93.512733056053	6
2	490	95.782622613251	5
2	495	98.418332055415	4
3	7	8.055499867566	1.231195229197
3	28	12.83773584874	4.428679239785
3	36	13.565454010872	3.278119868094
3	41	13.601585850896	1.309665928705
3	48	15.267922764238	6.032646641678
3	55	15.300397349158	1.155128831861
3	60	15.773374242673	0.482183572289
3	64	15.851280203802	2.97520474779
3	74	18.978077424863	0.600466514304
3	81	20.29772620195	0.737509025587
3	91	22.246832903875	0.159464078834
3	100	24.067713341233	0.40453781152
3	108	24.334281745737	0.119497484032
3	117	26.675184502381	0.504514110805
3	124	27.106858526141	0.069465778942
3	140	29.989120957793	2.258579324315
3	145	30.159127610422	0.80075682951
3	150	30.222107996156	0.32499224743
3	161	32.727826180213	3.83100816285
3	168	33.080335022446	1.153442780849
3	173	33.458156914653	0.452895727593
3	180	35.325353438331	4.625512202934
3	184	36.049808407713	2.00674690795
3	198	38.341468972787	1.654087042614
3	203	39.262265333744	2.48353292267
3	210	39.964355879925	2.985545010304
3	221	42.532629803817	2.915848679596
3	238	45.717121545822	5.744784499889
3	251	49.432592802843	7.667898835284
3	258	52.267249325551	9.598541153926
3	268	55.928812044746	13.216392266659
3	273	56.085047985642	13.273125261906
3	283	59.348160211133	15.0654871554
3	288	59.590041834254	15.074709824874
3	293	59.68552855704	13.724411324587
3	307	61.547209976542	15.310014621558
3	314	62.603611425665	12.654370567389
3	321	64.501824822997	12.212512751255
3	327	65.51047558311	7.682647596242
3	333	65.805930141319	6.048558169717
3	340	67.071479065252	7.308245320923
3	351	70.004883922394	8.287610004148
3	368	74.58557609539	11.471387376305
3	373	74.701171022275	8.834335323261
3	378	74.763151476088	6.080385663311
3	383	76.852544976978	2.802409601765
3	388	77.751053705726	3.178456576496
3	398	80.021092764093	37.565807233264
3	407	81.02777191681	36.744802182804
3	412	82.026608311041	36.276664316622
3	420	82.719678402949	33.57855629762
3	428	83.299837398316	0.778387355265
3	438	85.583520050369	30.261178564028
3	444	85.887681403464	0.324007932705
3	451	87.682132729023	27.962207620063
3	457	89.231692886535	28.65285613846
3	462	89.599019519564	20.64462977775
3	467	90.055256170808	20.337290633331
3	472	91.158214645499	21.062383385725
3	478	91.547671049573	20.582673409038
3	487	95.709881034006	22.239266454501
3	492	95.782622613251	0.842537389278
3	497	98.418332055415	24.905791833857
4	7	8.055499867566	1.231195229197
4	28	12.83773584874	4.428679239785
4	36	13.565454010872	3.278119868094
4	41	13.601585850896	1.309665928705
4	55	15.300397349158	1.155128831861
4	60	15.773374242673	0.482183572289
4	74	18.978077424863	0.600466514304
4	91	22.246832903875	0.159464078834
4	100	24.067713341233	0.40453781152
4	108	24.334281745737	0.119497484032
4	117	26.675184502381	0.504514110805
4	124	27.106858526141	0.069465778942
4	145	30.159127610422	0.80075682951
4	150	30.222107996156	0.32499224743
4	168	33.080335022446	1.153442780849
4	173	33.458156914653	0.452895727593
4	184	36.049808407713	2.00674690795
4	198	38.341468972787	1.654087042614
4	203	39.262265333744	2.48353292267
4	210	39.964355879925	2.985545010304
4	221	42.532629803817	2.915848679596
4	238	45.717121545822	5.744784499889
4	251	49.432592802843	7.667898835284
4	258	52.267249325551	9.598541153926
4	268	55.928812044746	13.216392266659
4	273	56.085047985642	13.273125261906
4	283	59.348160211133	15.0654871554
4	288	59.590041834254	15.074709824874
4	293	59.68552855704	13.724411324587
4	307	61.547209976542	15.310014621558
4	314	62.603611425665	12.654370567389
4	321	64.501824822997	12.212512751255
4	327	65.51047558311	7.682647596242
4	333	65.805930141319	6.048558169717
4	340	67.071479065252	7.308245320923
4	351	70.004883922394	8.287610004148
4	368	74.58557609539	11.471387376305
4	373	74.701171022275	8.834335323261
4	378	74.763151476088	6.080385663311
4	383	76.852544976978	2.802409601765
4	388	77.751053705726	3.178456576496
4	428	83.299837398316	0.778387355265
4	444	85.887681403464	0.324007932705
4	492	95.782622613251	0.842537389278
5	48	15.267922764238	6.032646641678
5	64	15.851280203802	2.97520474779
5	81	20.29772620195	0.737509025587
5	140	29.989120957793	2.258579324315
5	161	32.727826180213	3.83100816285
5	180	35.325353438331	4.625512202934
5	398	80.021092764093	37.565807233264
5	407	81.02777191681	36.744802182804
5	412	82.026608311041	36.276664316622
5	420	82.719678402949	33.57855629762
5	438	85.583520050369	30.261178564028
5	451	87.682132729023	27.962207620063
5	457	89.231692886535	28.65285613846
5	462	89.599019519564	20.64462977775
5	467	90.055256170808	20.337290633331
5	472	91.158214645499	21.062383385725
5	478	91.547671049573	20.582673409038
5	487	95.709881034006	22.239266454501
5	497	98.418332055415	24.905791833857

