version 2
run First-n5-7-20191125-12:36:58-6244
attr configname First-n5
attr datetime 20191125-12:36:58
attr experiment First-n5
attr inifile omnetpp.ini
attr iterationvars ""
attr iterationvarsf ""
attr measurement ""
attr network org.omnetpp.queueing.Pizza
attr processid 6244
attr repetition 7
attr replication ""
attr resultdir results_no_transient
attr runnumber 7
attr seedset 7
param **.PS.maxInventoriedPS 5
param **.U1.interArrivalTime exponential(2s)
param **.U2.interArrivalTime exponential(4s)
param **.PS.serviceTimeForInventoryU1 exponential(0.8s)
param **.PS.serviceTimeForInventoryU2 exponential(1.0s)
param **.PS.serviceTimeDirectU1 exponential(1.2s)
param **.PS.serviceTimeDirectU2 exponential(1.4s)
param **.PS.probabilityProducing 0.5
param **.CS.serviceTimeU1 exponential(0.8s)
param **.CS.serviceTimeU2 exponential(1.0s)

vector 0 Pizza.EntryQueueU1 queueLength:vector ETV
attr interpolationmode sample-hold
attr title "queue length, vector"
vector 1 Pizza.CS queueLength:vector ETV
attr interpolationmode sample-hold
attr title "queue length, vector"
vector 2 Pizza.EntryQueueU2 queueLength:vector ETV
attr interpolationmode sample-hold
attr title "queue length, vector"
vector 3 Pizza.sink lifeTime:vector ETV
attr interpolationmode none
attr title "lifetime of arrived jobs, vector"
attr unit s
vector 4 Pizza.sink lifeTimeU1:vector ETV
attr interpolationmode none
attr title "lifetime of arrived jobs, vector"
attr unit s
vector 5 Pizza.sink lifeTimeU2:vector ETV
attr interpolationmode none
attr title "lifetime of arrived jobs, vector"
attr unit s
0	0	0	0
0	12	3.186271203354	1
0	16	3.922646749257	2
0	18	4.535346124087	3
0	20	5.926127373993	4
0	22	6.107604223705	5
0	24	6.257161520631	6
0	30	7.344452251714	7
0	32	7.741080339274	6
0	42	8.140385499458	5
0	47	8.332398939077	4
0	53	9.61851404012	5
0	55	10.227719621579	6
0	57	10.278148534068	7
0	59	10.983238070839	6
0	64	11.192644628015	5
0	73	13.056848400218	6
0	74	13.340759820876	5
0	81	14.539056613882	6
0	83	14.750831197976	7
0	84	14.807977375928	6
0	88	15.20927791945	7
0	94	16.558972778663	8
0	97	18.01560272238	7
0	102	18.138791305489	6
0	108	18.621206800031	5
0	113	18.887037691188	4
0	118	19.378643990127	3
0	124	20.198278473957	4
0	125	20.486416765095	3
0	131	23.66561354003	2
0	139	25.129136339737	1
0	144	25.544759129448	0
0	176	28.767808966418	1
0	178	30.710593247078	0
0	229	37.021667311064	1
0	230	37.986524736963	0
0	234	38.251676122522	1
0	236	38.484756180088	2
0	241	39.424473223631	1
0	247	39.719464237455	2
0	249	40.34389050286	3
0	250	40.977484974349	2
0	258	42.969848421664	1
0	264	44.444103595676	0
0	327	53.977752052356	1
0	328	53.983070267621	0
0	375	70.359997026693	1
0	376	70.389018827898	0
0	428	78.645548192372	1
0	429	78.880584136751	0
0	514	95.990545099206	1
0	517	98.094963390592	0
0	532	99.512155041335	1
1	0	0	0
2	0	0	0
2	7	1.031659898738	1
2	8	1.648071280365	0
2	14	3.463833041628	1
2	26	6.556890160398	2
2	38	7.807188770871	3
2	40	8.080031528368	4
2	70	12.567519483451	5
2	135	23.666160573974	6
2	150	26.009615306984	5
2	156	26.470516266565	6
2	158	27.163620607034	5
2	164	28.312202389302	4
2	170	28.681604670027	3
2	184	31.235538467017	4
2	185	31.57183905363	3
2	190	33.395501893247	2
2	195	33.764731982052	1
2	201	33.792629713244	2
2	202	33.865213699101	1
2	207	34.380028081022	0
2	240	39.209444138485	1
2	269	44.501517026505	0
2	343	57.385099127821	1
2	344	57.617890594902	0
2	417	77.915414603557	1
2	422	78.525029537372	0
2	512	95.911936126061	1
2	516	96.839064858508	2
2	522	98.463939218933	1
2	530	99.424129197525	2
3	10	1.648071280365	1.489317457428
3	34	7.741080339274	6.709420440536
3	44	8.140385499458	4.954114296104
3	49	8.332398939077	4.40975218982
3	61	10.983238070839	6.447891946752
3	66	11.192644628015	5.266517254022
3	76	13.340759820876	7.233155597171
3	86	14.807977375928	8.550815855297
3	99	18.01560272238	10.671150470666
3	104	18.138791305489	8.520277265369
3	110	18.621206800031	8.393487178452
3	115	18.887037691188	8.60888915712
3	120	19.378643990127	6.321795589909
3	127	20.486416765095	5.947360151213
3	133	23.66561354003	8.914782342054
3	141	25.129136339737	9.919858420287
3	146	25.544759129448	8.985786350785
3	152	26.009615306984	5.811336833027
3	160	27.163620607034	23.699787565406
3	166	28.312202389302	21.755312228904
3	172	28.681604670027	20.874415899156
3	180	30.710593247078	22.63056171871
3	187	31.57183905363	2.804030087212
3	192	33.395501893247	20.827982409796
3	197	33.764731982052	10.098571408078
3	204	33.865213699101	7.394697432536
3	209	34.380028081022	3.144489614005
3	214	35.283105529079	1.490475815835
3	222	35.709643088665	0.238675885917
3	232	37.986524736963	2.15370911186
3	243	39.424473223631	2.402805912567
3	252	40.977484974349	2.725808851827
3	260	42.969848421664	4.485092241576
3	266	44.444103595676	4.724639358221
3	271	44.501517026505	4.157626523645
3	276	45.142177659847	5.932733521362
3	284	45.975277186923	0.033969503975
3	293	47.930387826381	0.157226374246
3	301	48.18057909862	0.239423571526
3	310	50.566334458126	0.137135420652
3	319	51.492761398409	0.861069938477
3	330	53.983070267621	0.019342525599
3	334	54.518767818272	0.541015765916
3	346	57.617890594902	0.591505540158
3	351	57.923100700286	0.538001572465
3	360	59.420259841017	0.79444440648
3	368	64.127395047959	0.703773824256
3	378	70.389018827898	0.397529390394
3	382	71.027316923589	0.667319896896
3	389	72.199203809641	0.036175309511
3	398	73.665403953426	0.00660035473
3	405	73.911432218782	0.065736342395
3	412	75.18096070314	0.018770793293
3	424	78.525029537372	1.33819133436
3	431	78.880584136751	0.965169533194
3	435	79.149531523712	0.50398333134
3	443	81.278851704727	1.775730585425
3	453	83.650710503851	0.940621342657
3	460	84.54805725274	0.25351869975
3	472	88.668558641712	0.074012252141
3	481	89.603429326466	0.43316470792
3	489	92.704507429156	0.840919028359
3	496	93.234955107257	0.174594383325
3	503	93.685954383005	0.350197709825
3	519	98.094963390592	3.055258444971
3	524	98.463939218933	2.473394119727
4	10	1.648071280365	1.489317457428
4	44	8.140385499458	4.954114296104
4	49	8.332398939077	4.40975218982
4	61	10.983238070839	6.447891946752
4	66	11.192644628015	5.266517254022
4	76	13.340759820876	7.233155597171
4	86	14.807977375928	8.550815855297
4	99	18.01560272238	10.671150470666
4	104	18.138791305489	8.520277265369
4	110	18.621206800031	8.393487178452
4	115	18.887037691188	8.60888915712
4	120	19.378643990127	6.321795589909
4	127	20.486416765095	5.947360151213
4	133	23.66561354003	8.914782342054
4	141	25.129136339737	9.919858420287
4	146	25.544759129448	8.985786350785
4	152	26.009615306984	5.811336833027
4	187	31.57183905363	2.804030087212
4	222	35.709643088665	0.238675885917
4	232	37.986524736963	2.15370911186
4	243	39.424473223631	2.402805912567
4	252	40.977484974349	2.725808851827
4	260	42.969848421664	4.485092241576
4	266	44.444103595676	4.724639358221
4	271	44.501517026505	4.157626523645
4	284	45.975277186923	0.033969503975
4	293	47.930387826381	0.157226374246
4	319	51.492761398409	0.861069938477
4	334	54.518767818272	0.541015765916
4	346	57.617890594902	0.591505540158
4	360	59.420259841017	0.79444440648
4	368	64.127395047959	0.703773824256
4	378	70.389018827898	0.397529390394
4	382	71.027316923589	0.667319896896
4	398	73.665403953426	0.00660035473
4	412	75.18096070314	0.018770793293
4	424	78.525029537372	1.33819133436
4	435	79.149531523712	0.50398333134
4	460	84.54805725274	0.25351869975
4	481	89.603429326466	0.43316470792
4	489	92.704507429156	0.840919028359
4	503	93.685954383005	0.350197709825
4	519	98.094963390592	3.055258444971
4	524	98.463939218933	2.473394119727
5	34	7.741080339274	6.709420440536
5	160	27.163620607034	23.699787565406
5	166	28.312202389302	21.755312228904
5	172	28.681604670027	20.874415899156
5	180	30.710593247078	22.63056171871
5	192	33.395501893247	20.827982409796
5	197	33.764731982052	10.098571408078
5	204	33.865213699101	7.394697432536
5	209	34.380028081022	3.144489614005
5	214	35.283105529079	1.490475815835
5	276	45.142177659847	5.932733521362
5	301	48.18057909862	0.239423571526
5	310	50.566334458126	0.137135420652
5	330	53.983070267621	0.019342525599
5	351	57.923100700286	0.538001572465
5	389	72.199203809641	0.036175309511
5	405	73.911432218782	0.065736342395
5	431	78.880584136751	0.965169533194
5	443	81.278851704727	1.775730585425
5	453	83.650710503851	0.940621342657
5	472	88.668558641712	0.074012252141
5	496	93.234955107257	0.174594383325

