version 2
run First-n2-10-20191125-12:37:00-6744
attr configname First-n2
attr datetime 20191125-12:37:00
attr experiment First-n2
attr inifile omnetpp.ini
attr iterationvars ""
attr iterationvarsf ""
attr measurement ""
attr network org.omnetpp.queueing.Pizza
attr processid 6744
attr repetition 10
attr replication ""
attr resultdir results_no_transient
attr runnumber 10
attr seedset 10
param **.PS.maxInventoriedPS 2
param **.U1.interArrivalTime exponential(2s)
param **.U2.interArrivalTime exponential(4s)
param **.PS.serviceTimeForInventoryU1 exponential(0.8s)
param **.PS.serviceTimeForInventoryU2 exponential(1.0s)
param **.PS.serviceTimeDirectU1 exponential(1.2s)
param **.PS.serviceTimeDirectU2 exponential(1.4s)
param **.PS.probabilityProducing 0.5
param **.CS.serviceTimeU1 exponential(0.8s)
param **.CS.serviceTimeU2 exponential(1.0s)

vector 0 Pizza.EntryQueueU1 queueLength:vector ETV
attr interpolationmode sample-hold
attr title "queue length, vector"
vector 1 Pizza.CS queueLength:vector ETV
attr interpolationmode sample-hold
attr title "queue length, vector"
vector 2 Pizza.EntryQueueU2 queueLength:vector ETV
attr interpolationmode sample-hold
attr title "queue length, vector"
vector 3 Pizza.sink lifeTime:vector ETV
attr interpolationmode none
attr title "lifetime of arrived jobs, vector"
attr unit s
vector 4 Pizza.sink lifeTimeU2:vector ETV
attr interpolationmode none
attr title "lifetime of arrived jobs, vector"
attr unit s
vector 5 Pizza.sink lifeTimeU1:vector ETV
attr interpolationmode none
attr title "lifetime of arrived jobs, vector"
attr unit s
0	0	0	0
0	9	2.950868889951	1
0	13	4.158229986914	0
0	20	4.331200204502	1
0	21	4.403018544262	0
0	27	4.657127360658	1
0	33	6.855828073794	0
0	41	8.049318822225	1
0	46	8.195525494881	0
0	50	9.945532260478	1
0	52	10.635804565677	2
0	55	11.338981606409	1
0	61	13.235564636485	2
0	62	13.270610514916	1
0	68	13.542263416157	2
0	73	15.241982136704	1
0	77	15.295929313412	2
0	79	16.434301169086	3
0	81	16.657062434299	4
0	84	17.395238575573	3
0	92	18.580512165701	4
0	95	18.66587412757	3
0	102	21.465197933906	2
0	106	21.480734758979	3
0	109	22.21278601274	2
0	118	23.121098169072	3
0	121	24.259736780445	2
0	127	24.280690347465	3
0	130	25.312359641622	2
0	135	26.739343949905	1
0	144	27.702380638149	2
0	145	27.863392039691	1
0	154	31.124008133804	0
0	166	31.819972250505	1
0	167	31.879927382021	0
0	173	32.147722576965	1
0	175	32.603890777673	0
0	209	37.921862530083	1
0	210	38.211470710107	0
0	216	38.457722332922	1
0	218	38.941746213022	2
0	220	39.023305226096	3
0	224	39.40064644379	2
0	230	39.477223410743	3
0	233	39.720765164588	4
0	234	40.210207742367	3
0	243	41.470185080043	4
0	245	41.905853254227	3
0	250	42.650119467821	2
0	255	42.765736024754	1
0	262	44.125121348141	0
0	277	45.679238486283	1
0	278	46.094799334647	0
0	289	46.96845637695	1
0	293	47.798602137313	2
0	294	48.322555939989	1
0	299	48.412135644074	0
0	305	49.165188439341	1
0	308	50.553797287497	0
0	317	50.632281091767	1
0	320	51.305668690066	0
0	326	51.881504927698	1
0	327	52.011222602073	0
0	350	54.433148631862	1
0	351	54.500965218079	0
0	357	54.560234935787	1
0	360	55.131515189038	2
0	363	55.62528489128	3
0	364	56.236998264465	2
0	372	58.417943327476	3
0	373	59.704448535028	2
0	378	59.83222698377	1
0	387	60.780156742063	0
0	393	61.061928645007	1
0	394	61.405579504584	0
0	418	63.443211894259	1
0	421	64.209511806372	0
0	430	65.167121235819	1
0	433	68.412017244068	0
0	440	68.565591610466	1
0	441	68.785543851072	0
0	456	70.933213572986	1
0	458	71.122069529141	2
0	460	71.599124203151	3
0	462	72.49821200999	2
0	472	74.092941675673	1
0	479	74.818687609407	2
0	480	74.984571697608	1
0	485	75.46737046202	0
0	524	80.25041624534	1
0	527	80.394525747426	0
0	534	80.602961408332	1
0	535	80.923876951486	0
0	556	85.179261929054	1
0	558	86.006294191686	2
0	561	86.507699217581	1
0	566	86.571874076091	0
0	582	88.785606456916	1
0	584	88.981803415191	2
0	587	89.185549960842	3
0	588	89.338666229683	2
0	593	90.328821959354	1
0	598	91.208788373804	0
0	605	93.715227668829	1
0	606	93.900658556618	0
0	612	94.366825775123	1
0	613	94.375602519463	0
0	619	95.783757241721	1
0	620	95.863161092378	0
0	624	96.263285479731	1
0	627	96.797715549961	0
1	0	0	0
2	0	0	0
2	5	1.503508115357	1
2	29	5.520153280876	2
2	31	5.53597761008	3
2	39	7.174301375503	4
2	43	8.05749565984	5
2	45	8.181876179755	6
2	66	13.298893709637	7
2	72	15.168303153358	8
2	88	17.500692722169	9
2	90	17.733091776403	10
2	101	21.408657727324	11
2	116	23.021821155054	12
2	120	23.213947504258	13
2	142	27.151017732715	14
2	151	28.554707834326	15
2	153	30.129911264373	16
2	159	31.739180245129	15
2	179	32.6498743266	16
2	182	34.531950173978	15
2	187	34.719773152018	14
2	193	35.087338395967	15
2	196	37.051084478792	14
2	203	37.846965301781	13
2	223	39.151247501603	14
2	241	41.081918145785	15
2	261	44.049678954096	16
2	269	45.26122384886	15
2	275	45.481360744404	16
2	283	46.215993439296	15
2	291	47.377026111994	16
2	313	50.610218759333	15
2	332	52.183498828844	14
2	339	54.017493536166	13
2	344	54.069289771742	12
2	384	59.949625862763	13
2	399	62.098451224364	12
2	404	62.522032662787	11
2	412	63.358472847648	10
2	420	64.092988628124	11
2	426	64.240480935325	10
2	448	69.212816259372	9
2	452	70.36918703396	10
2	468	73.197998042433	11
2	471	74.081086807919	12
2	490	75.531519198321	11
2	497	76.017836944942	10
2	502	76.253050177056	9
2	506	76.372729689749	10
2	510	79.314442230879	9
2	516	79.812115863824	10
2	518	79.897685400314	11
2	520	80.106401028424	10
2	540	80.935671367419	9
2	545	81.330986812169	8
2	552	84.084384570818	7
2	573	87.711225523881	6
2	579	88.114724417218	7
2	633	98.573448714345	8
2	636	98.971130896168	7
2	641	99.334961950683	6
3	15	4.158229986914	2.738603048725
3	23	4.403018544262	1.452149654311
3	35	6.855828073794	2.524627869292
3	48	8.195525494881	3.538398134223
3	57	11.338981606409	3.289662784184
3	64	13.270610514916	3.325078254438
3	75	15.241982136704	4.606177571027
3	86	17.395238575573	4.159673939088
3	97	18.66587412757	5.123610711413
3	104	21.465197933906	6.169268620494
3	111	22.21278601274	5.778484843654
3	123	24.259736780445	7.602674346146
3	132	25.312359641622	6.731847475921
3	137	26.739343949905	5.258609190926
3	147	27.863392039691	4.742293870619
3	156	31.124008133804	6.843317786339
3	161	31.739180245129	4.03679960698
3	169	31.879927382021	30.376419266664
3	177	32.603890777673	0.783918527168
3	184	34.531950173978	2.384227597013
3	189	34.719773152018	29.199619871142
3	198	37.051084478792	31.515106868712
3	205	37.846965301781	30.672663926278
3	212	38.211470710107	30.153975050267
3	226	39.40064644379	1.478783913707
3	236	40.210207742367	1.752485409445
3	247	41.905853254227	2.964107041205
3	252	42.650119467821	3.626814241725
3	257	42.765736024754	3.288512614011
3	264	44.125121348141	4.404356183553
3	271	45.26122384886	3.791038768817
3	280	46.094799334647	37.912923154892
3	285	46.215993439296	0.536754953013
3	296	48.322555939989	35.023662230352
3	301	48.412135644074	1.443679267124
3	310	50.553797287497	2.755195150184
3	315	50.610218759333	1.445030319992
3	322	51.305668690066	36.137365536708
3	329	52.011222602073	1.378941510306
3	334	52.183498828844	0.301993901146
3	341	54.017493536166	36.516800813997
3	346	54.069289771742	36.336197995339
3	353	54.500965218079	33.092307490755
3	366	56.236998264465	1.803849632603
3	375	59.704448535028	5.144213599241
3	380	59.83222698377	4.700711794732
3	389	60.780156742063	5.154871850783
3	396	61.405579504584	2.987636177108
3	401	62.098451224364	1.036522579357
3	406	62.522032662787	39.500211507733
3	414	63.358472847648	40.14452534339
3	423	64.209511806372	37.058494073657
3	428	64.240480935325	0.797269041066
3	435	68.412017244068	39.857309409742
3	443	68.785543851072	3.618422615253
3	450	69.212816259372	0.647224648906
3	464	72.49821200999	42.368300745617
3	474	74.092941675673	3.159728102687
3	482	74.984571697608	3.862502168467
3	487	75.46737046202	3.868246258869
3	492	75.531519198321	0.712831588914
3	499	76.017836944942	43.367962618342
3	504	76.253050177056	41.165711781089
3	512	79.314442230879	40.163194729276
3	522	80.106401028424	39.024482882639
3	529	80.394525747426	36.34484679333
3	537	80.923876951486	0.673460706146
3	542	80.935671367419	0.332709959087
3	547	81.330986812169	35.849626067765
3	554	84.084384570818	36.707358458824
3	563	86.507699217581	26.558073354818
3	568	86.571874076091	1.392612147037
3	575	87.711225523881	1.704931332195
3	590	89.338666229683	25.245677601559
3	595	90.328821959354	1.543215502438
3	600	91.208788373804	2.226984958613
3	608	93.900658556618	4.715108595776
3	615	94.375602519463	0.660374850634
3	622	95.863161092378	1.496335317255
3	629	96.797715549961	1.01395830824
3	638	98.971130896168	2.707845416437
3	643	99.334961950683	28.965774916723
4	15	4.158229986914	2.738603048725
4	169	31.879927382021	30.376419266664
4	189	34.719773152018	29.199619871142
4	198	37.051084478792	31.515106868712
4	205	37.846965301781	30.672663926278
4	212	38.211470710107	30.153975050267
4	280	46.094799334647	37.912923154892
4	296	48.322555939989	35.023662230352
4	322	51.305668690066	36.137365536708
4	341	54.017493536166	36.516800813997
4	346	54.069289771742	36.336197995339
4	353	54.500965218079	33.092307490755
4	406	62.522032662787	39.500211507733
4	414	63.358472847648	40.14452534339
4	423	64.209511806372	37.058494073657
4	435	68.412017244068	39.857309409742
4	464	72.49821200999	42.368300745617
4	499	76.017836944942	43.367962618342
4	504	76.253050177056	41.165711781089
4	512	79.314442230879	40.163194729276
4	522	80.106401028424	39.024482882639
4	529	80.394525747426	36.34484679333
4	547	81.330986812169	35.849626067765
4	554	84.084384570818	36.707358458824
4	563	86.507699217581	26.558073354818
4	590	89.338666229683	25.245677601559
4	643	99.334961950683	28.965774916723
5	23	4.403018544262	1.452149654311
5	35	6.855828073794	2.524627869292
5	48	8.195525494881	3.538398134223
5	57	11.338981606409	3.289662784184
5	64	13.270610514916	3.325078254438
5	75	15.241982136704	4.606177571027
5	86	17.395238575573	4.159673939088
5	97	18.66587412757	5.123610711413
5	104	21.465197933906	6.169268620494
5	111	22.21278601274	5.778484843654
5	123	24.259736780445	7.602674346146
5	132	25.312359641622	6.731847475921
5	137	26.739343949905	5.258609190926
5	147	27.863392039691	4.742293870619
5	156	31.124008133804	6.843317786339
5	161	31.739180245129	4.03679960698
5	177	32.603890777673	0.783918527168
5	184	34.531950173978	2.384227597013
5	226	39.40064644379	1.478783913707
5	236	40.210207742367	1.752485409445
5	247	41.905853254227	2.964107041205
5	252	42.650119467821	3.626814241725
5	257	42.765736024754	3.288512614011
5	264	44.125121348141	4.404356183553
5	271	45.26122384886	3.791038768817
5	285	46.215993439296	0.536754953013
5	301	48.412135644074	1.443679267124
5	310	50.553797287497	2.755195150184
5	315	50.610218759333	1.445030319992
5	329	52.011222602073	1.378941510306
5	334	52.183498828844	0.301993901146
5	366	56.236998264465	1.803849632603
5	375	59.704448535028	5.144213599241
5	380	59.83222698377	4.700711794732
5	389	60.780156742063	5.154871850783
5	396	61.405579504584	2.987636177108
5	401	62.098451224364	1.036522579357
5	428	64.240480935325	0.797269041066
5	443	68.785543851072	3.618422615253
5	450	69.212816259372	0.647224648906
5	474	74.092941675673	3.159728102687
5	482	74.984571697608	3.862502168467
5	487	75.46737046202	3.868246258869
5	492	75.531519198321	0.712831588914
5	537	80.923876951486	0.673460706146
5	542	80.935671367419	0.332709959087
5	568	86.571874076091	1.392612147037
5	575	87.711225523881	1.704931332195
5	595	90.328821959354	1.543215502438
5	600	91.208788373804	2.226984958613
5	608	93.900658556618	4.715108595776
5	615	94.375602519463	0.660374850634
5	622	95.863161092378	1.496335317255
5	629	96.797715549961	1.01395830824
5	638	98.971130896168	2.707845416437

