version 2
run First-n4-18-20191125-12:37:13-6708
attr configname First-n4
attr datetime 20191125-12:37:13
attr experiment First-n4
attr inifile omnetpp.ini
attr iterationvars ""
attr iterationvarsf ""
attr measurement ""
attr network org.omnetpp.queueing.Pizza
attr processid 6708
attr repetition 18
attr replication ""
attr resultdir results_no_transient
attr runnumber 18
attr seedset 18
param **.PS.maxInventoriedPS 4
param **.U1.interArrivalTime exponential(2s)
param **.U2.interArrivalTime exponential(4s)
param **.PS.serviceTimeForInventoryU1 exponential(0.8s)
param **.PS.serviceTimeForInventoryU2 exponential(1.0s)
param **.PS.serviceTimeDirectU1 exponential(1.2s)
param **.PS.serviceTimeDirectU2 exponential(1.4s)
param **.PS.probabilityProducing 0.5
param **.CS.serviceTimeU1 exponential(0.8s)
param **.CS.serviceTimeU2 exponential(1.0s)

vector 0 Pizza.EntryQueueU1 queueLength:vector ETV
attr interpolationmode sample-hold
attr title "queue length, vector"
vector 1 Pizza.CS queueLength:vector ETV
attr interpolationmode sample-hold
attr title "queue length, vector"
vector 2 Pizza.EntryQueueU2 queueLength:vector ETV
attr interpolationmode sample-hold
attr title "queue length, vector"
vector 3 Pizza.sink lifeTime:vector ETV
attr interpolationmode none
attr title "lifetime of arrived jobs, vector"
attr unit s
vector 4 Pizza.sink lifeTimeU2:vector ETV
attr interpolationmode none
attr title "lifetime of arrived jobs, vector"
attr unit s
vector 5 Pizza.sink lifeTimeU1:vector ETV
attr interpolationmode none
attr title "lifetime of arrived jobs, vector"
attr unit s
0	0	0	0
0	13	2.558026770941	1
0	15	2.581173658892	2
0	20	4.003604927843	1
0	24	4.775011115572	2
0	26	4.832439629344	3
0	31	6.92441673768	2
0	37	8.795808639043	1
0	44	9.488702830233	0
0	67	12.560094858392	1
0	68	13.021618257303	0
0	79	14.329683956091	1
0	83	15.974998281959	0
0	94	17.625275742601	1
0	98	18.521612559296	2
0	99	19.761169880585	1
0	106	21.666612326032	0
0	121	24.322028539024	1
0	122	24.597479063056	0
0	210	41.090212641993	1
0	213	42.571705635271	2
0	214	43.578470357205	1
0	219	44.372474767285	0
0	226	44.922585616948	1
0	227	45.044747134817	0
0	242	46.581126597005	1
0	243	46.626837397119	0
0	289	53.503349182631	1
0	290	53.819742318597	0
0	296	53.840372686938	1
0	299	54.629856910414	0
0	336	63.26677196455	1
0	338	63.525439938942	2
0	339	64.501351921956	1
0	347	66.665203442353	2
0	348	66.815004110109	1
0	354	66.991950133525	2
0	357	68.623279517679	1
0	367	69.861740814035	2
0	369	69.950205995689	3
0	370	70.312383020166	2
0	377	71.374324456473	1
0	383	71.499515272691	2
0	385	72.234828828873	3
0	386	72.235916342733	2
0	391	72.26468591795	1
0	395	72.791234944541	2
0	399	73.36150178642	3
0	402	74.999601787489	2
0	407	75.602595025194	1
0	413	76.393348048667	2
0	415	78.297640434661	3
0	418	81.991952735159	2
0	424	82.567252124964	3
0	427	83.110795400791	2
0	432	84.257154804931	1
0	442	88.643053667785	2
0	444	89.25070962896	3
0	446	90.080565584737	4
0	447	90.084856537076	3
0	453	92.380498655473	4
0	454	92.480633016067	3
0	459	92.58661948941	2
0	463	92.669769058116	3
0	466	94.973138610512	2
0	470	95.023909477124	3
0	474	96.395817494987	2
0	480	97.444340874704	3
0	481	97.558170520724	2
0	485	97.613759135097	3
1	0	0	0
2	0	0	0
2	17	3.132674834365	1
2	28	5.359395578063	2
2	43	9.398715797703	3
2	50	11.513046990454	2
2	56	12.249078955393	1
2	61	12.469004294746	0
2	89	17.309897929885	1
2	90	17.382692682634	0
2	103	20.472516809627	1
2	113	23.763242299824	2
2	115	24.271952453085	1
2	127	24.802013122536	0
2	150	27.288456088737	1
2	152	28.238375542252	0
2	256	47.108261361551	1
2	257	47.13065068995	0
2	281	53.037443783929	1
2	282	53.044636212134	0
2	298	54.12061209307	1
2	305	54.974717280883	0
2	343	65.662424253099	1
2	352	66.844436859882	2
2	361	68.852740177054	3
2	365	69.459002559756	4
2	397	72.905338681242	5
2	411	75.923544576627	6
2	422	82.044652514013	7
2	436	84.811621130439	8
2	438	88.207622011753	9
2	487	98.857717323303	10
3	7	1.310347029447	0.994127584796
3	22	4.003604927843	1.901821000403
3	33	6.92441673768	4.366389966739
3	39	8.795808639043	6.214634980151
3	46	9.488702830233	4.713691714661
3	52	11.513046990454	6.68060736111
3	58	12.249078955393	9.116404121028
3	63	12.469004294746	7.109608716683
3	70	13.021618257303	3.6229024596
3	74	13.190288828974	0.630193970582
3	85	15.974998281959	2.120083370939
3	92	17.382692682634	3.053008726543
3	101	19.761169880585	2.4512719507
3	108	21.666612326032	4.041336583431
3	117	24.271952453085	5.750339893789
3	124	24.597479063056	4.124962253429
3	129	24.802013122536	0.479984583512
3	133	24.907210016726	1.143967716902
3	142	27.100227578661	0.79594613179
3	154	28.238375542252	1.119898740579
3	159	28.638890188797	1.35043410006
3	170	32.476380550383	0.562573901531
3	178	36.583088272881	0.534164202941
3	185	37.149686123456	0.495907582813
3	194	38.730285669853	1.088333282159
3	201	39.337560074127	0.359838181449
3	216	43.578470357205	2.808637099517
3	221	44.372474767285	3.282262125292
3	229	45.044747134817	2.473041499546
3	235	45.553589750923	0.631004133975
3	245	46.626837397119	0.37880357108
3	249	46.665773813899	0.084647216894
3	259	47.13065068995	0.174967662378
3	264	48.925158699841	1.81689733829
3	272	50.695388141782	1.075074215172
3	284	53.044636212134	0.833915266415
3	292	53.819742318597	0.782298534668
3	301	54.629856910414	1.126507727783
3	307	54.974717280883	1.134344593945
3	311	55.319242056699	1.198629963629
3	322	58.483595299043	0.664081764816
3	329	60.598848889937	0.014664839034
3	341	64.501351921956	2.162929885477
3	350	66.815004110109	3.548232145559
3	359	68.623279517679	5.097839578737
3	372	70.312383020166	3.647179577813
3	379	71.374324456473	4.382374322948
3	388	72.235916342733	2.374175528698
3	393	72.26468591795	2.314479922261
3	404	74.999601787489	3.500086514798
3	409	75.602595025194	3.367766196321
3	420	81.991952735159	9.200717790618
3	429	83.110795400791	9.749293614371
3	434	84.257154804931	7.863806756264
3	449	90.084856537076	11.787216102415
3	456	92.480633016067	9.913380891103
3	461	92.58661948941	3.943565821625
3	468	94.973138610512	5.722428981552
3	476	96.395817494987	6.31525191025
3	483	97.558170520724	5.177671865251
4	7	1.310347029447	0.994127584796
4	58	12.249078955393	9.116404121028
4	63	12.469004294746	7.109608716683
4	70	13.021618257303	3.6229024596
4	101	19.761169880585	2.4512719507
4	124	24.597479063056	4.124962253429
4	133	24.907210016726	1.143967716902
4	142	27.100227578661	0.79594613179
4	159	28.638890188797	1.35043410006
4	170	32.476380550383	0.562573901531
4	194	38.730285669853	1.088333282159
4	264	48.925158699841	1.81689733829
4	272	50.695388141782	1.075074215172
4	292	53.819742318597	0.782298534668
4	311	55.319242056699	1.198629963629
4	322	58.483595299043	0.664081764816
5	22	4.003604927843	1.901821000403
5	33	6.92441673768	4.366389966739
5	39	8.795808639043	6.214634980151
5	46	9.488702830233	4.713691714661
5	52	11.513046990454	6.68060736111
5	74	13.190288828974	0.630193970582
5	85	15.974998281959	2.120083370939
5	92	17.382692682634	3.053008726543
5	108	21.666612326032	4.041336583431
5	117	24.271952453085	5.750339893789
5	129	24.802013122536	0.479984583512
5	154	28.238375542252	1.119898740579
5	178	36.583088272881	0.534164202941
5	185	37.149686123456	0.495907582813
5	201	39.337560074127	0.359838181449
5	216	43.578470357205	2.808637099517
5	221	44.372474767285	3.282262125292
5	229	45.044747134817	2.473041499546
5	235	45.553589750923	0.631004133975
5	245	46.626837397119	0.37880357108
5	249	46.665773813899	0.084647216894
5	259	47.13065068995	0.174967662378
5	284	53.044636212134	0.833915266415
5	301	54.629856910414	1.126507727783
5	307	54.974717280883	1.134344593945
5	329	60.598848889937	0.014664839034
5	341	64.501351921956	2.162929885477
5	350	66.815004110109	3.548232145559
5	359	68.623279517679	5.097839578737
5	372	70.312383020166	3.647179577813
5	379	71.374324456473	4.382374322948
5	388	72.235916342733	2.374175528698
5	393	72.26468591795	2.314479922261
5	404	74.999601787489	3.500086514798
5	409	75.602595025194	3.367766196321
5	420	81.991952735159	9.200717790618
5	429	83.110795400791	9.749293614371
5	434	84.257154804931	7.863806756264
5	449	90.084856537076	11.787216102415
5	456	92.480633016067	9.913380891103
5	461	92.58661948941	3.943565821625
5	468	94.973138610512	5.722428981552
5	476	96.395817494987	6.31525191025
5	483	97.558170520724	5.177671865251

