version 2
run First-n2-2-20191125-12:36:48-7216
attr configname First-n2
attr datetime 20191125-12:36:48
attr experiment First-n2
attr inifile omnetpp.ini
attr iterationvars ""
attr iterationvarsf ""
attr measurement ""
attr network org.omnetpp.queueing.Pizza
attr processid 7216
attr repetition 2
attr replication ""
attr resultdir results_no_transient
attr runnumber 2
attr seedset 2
param **.PS.maxInventoriedPS 2
param **.U1.interArrivalTime exponential(2s)
param **.U2.interArrivalTime exponential(4s)
param **.PS.serviceTimeForInventoryU1 exponential(0.8s)
param **.PS.serviceTimeForInventoryU2 exponential(1.0s)
param **.PS.serviceTimeDirectU1 exponential(1.2s)
param **.PS.serviceTimeDirectU2 exponential(1.4s)
param **.PS.probabilityProducing 0.5
param **.CS.serviceTimeU1 exponential(0.8s)
param **.CS.serviceTimeU2 exponential(1.0s)

vector 0 Pizza.EntryQueueU1 queueLength:vector ETV
attr interpolationmode sample-hold
attr title "queue length, vector"
vector 1 Pizza.CS queueLength:vector ETV
attr interpolationmode sample-hold
attr title "queue length, vector"
vector 2 Pizza.EntryQueueU2 queueLength:vector ETV
attr interpolationmode sample-hold
attr title "queue length, vector"
vector 3 Pizza.sink lifeTime:vector ETV
attr interpolationmode none
attr title "lifetime of arrived jobs, vector"
attr unit s
vector 4 Pizza.sink lifeTimeU2:vector ETV
attr interpolationmode none
attr title "lifetime of arrived jobs, vector"
attr unit s
vector 5 Pizza.sink lifeTimeU1:vector ETV
attr interpolationmode none
attr title "lifetime of arrived jobs, vector"
attr unit s
0	0	0	0
0	7	1.145383979254	1
0	12	4.959248770767	0
0	28	7.048072724609	1
0	30	8.105567922135	0
0	45	9.345943748084	1
0	49	10.926173406891	2
0	52	11.888265965664	1
0	58	11.972333657346	2
0	60	12.107364092655	3
0	63	12.170205568853	2
0	69	12.330653011101	1
0	74	12.53561214186	0
0	78	12.786350378304	1
0	82	13.012566131284	2
0	84	13.525481764445	1
0	88	13.873597528366	2
0	92	14.324247453501	3
0	96	14.924786405957	2
0	102	15.643942422815	3
0	106	16.187282980728	2
0	111	18.859013027215	1
0	116	19.413544154135	0
0	140	25.03238175775	1
0	141	25.032849298669	0
0	163	28.233341954236	1
0	164	28.308862496091	0
0	170	29.362982766109	1
0	173	30.659067913839	0
0	196	36.415165290967	1
0	200	38.679860009486	0
0	240	45.562872285801	1
0	242	46.427122694894	2
0	243	46.549545701071	1
0	248	47.346771556811	0
0	252	47.488317096322	1
0	258	48.325149132862	2
0	260	49.076743861965	3
0	267	54.210245237109	2
0	275	55.641417748134	3
0	277	55.927385180436	2
0	282	56.793925994079	1
0	289	59.868689350715	2
0	290	60.352329586125	1
0	295	60.467383585045	0
0	315	62.878918640457	1
0	318	63.728942189164	2
0	320	64.341390769594	3
0	321	64.360235854367	2
0	326	66.477874077143	1
0	331	67.752555650282	0
0	335	68.851758531352	1
0	341	70.727002625485	2
0	344	72.563262323442	1
0	350	73.36668662754	2
0	351	73.512337240022	1
0	356	74.723632788873	0
0	360	74.904384632864	1
0	362	75.554292095567	2
0	366	76.118517081343	3
0	372	76.53164839553	4
0	374	76.531895579159	5
0	375	77.696482053143	4
0	380	77.85049243734	3
0	385	77.930603375633	2
0	389	78.516942179412	3
0	391	79.184410413717	4
0	394	80.743877113582	3
0	400	81.765767588603	2
0	405	82.023517794666	1
0	409	82.256710250485	2
0	411	82.570509994081	3
0	413	82.670715025419	4
0	415	84.0787739225	5
0	417	84.607012980857	6
0	419	85.423234182274	7
0	425	87.485018628347	8
0	430	89.016095909007	7
0	435	89.797082086152	6
0	440	90.066881678966	5
0	445	90.313626461447	4
0	449	91.107119135734	5
0	452	91.273872895451	4
0	457	91.66460975997	3
0	467	93.546155151396	4
0	469	93.681992770227	5
0	471	93.871428312434	6
0	473	93.960379774847	7
0	474	94.191122684312	6
0	480	94.847462487925	7
0	481	95.272762404411	6
0	485	95.288823447636	7
0	488	95.3118378414	6
0	494	97.179590635689	5
0	500	99.468073152979	6
0	501	99.636989826662	5
1	0	0	0
2	0	0	0
2	5	0.923744484492	1
2	9	4.114776180093	2
2	20	6.400572828014	1
2	26	6.400777452587	2
2	36	8.812620906474	1
2	41	9.11169843652	0
2	47	9.413573086627	1
2	62	12.140320219844	2
2	94	14.375640924369	3
2	122	20.67752140761	4
2	124	22.349374893992	5
2	125	23.708008442299	4
2	131	23.864458150313	5
2	133	24.265831275979	4
2	146	26.044241199288	3
2	152	27.775195178738	2
2	157	28.024937042773	1
2	172	30.490058130512	2
2	179	33.286817734374	3
2	181	33.572761120075	2
2	187	34.127926249224	1
2	192	34.174681398742	0
2	204	39.078813667745	1
2	207	39.540289278471	0
2	254	47.559627369512	1
2	256	48.038259509432	2
2	262	49.961339836081	3
2	264	50.132125281515	4
2	271	54.297435372201	5
2	299	60.804832413235	6
2	302	61.975828046614	5
2	309	62.759655653358	4
2	337	68.932519398619	5
2	339	69.09585418967	6
2	364	76.096401378169	7
2	421	87.1074229877	8
2	428	87.812918184672	9
2	463	93.228305000177	10
2	465	93.4428479825	11
3	14	4.959248770767	4.140577233661
3	22	6.400572828014	5.25518884876
3	32	8.105567922135	7.181823437643
3	38	8.812620906474	1.764548181865
3	43	9.11169843652	4.996922256427
3	54	11.888265965664	5.487488513077
3	65	12.170205568853	2.824261820769
3	71	12.330653011101	1.40447960421
3	76	12.53561214186	0.563278484514
3	86	13.525481764445	1.41811767179
3	98	14.924786405957	2.138436027653
3	108	16.187282980728	3.174716849444
3	113	18.859013027215	4.985415498849
3	118	19.413544154135	5.089296700634
3	127	23.708008442299	8.064066019484
3	135	24.265831275979	14.852258189352
3	143	25.032849298669	12.892529078825
3	148	26.044241199288	1.011859441538
3	154	27.775195178738	13.399554254369
3	159	28.024937042773	7.347415635163
3	166	28.308862496091	5.959487602099
3	175	30.659067913839	2.425725959603
3	183	33.572761120075	4.209778353966
3	189	34.127926249224	10.263468098911
3	194	34.174681398742	3.68462326823
3	202	38.679860009486	5.393042275112
3	209	39.540289278471	3.125123987504
3	216	42.151395387532	3.072581719787
3	224	42.619150265865	0.313873836495
3	232	44.51547000472	0.451497357648
3	245	46.549545701071	1.967162587403
3	250	47.346771556811	1.78389927101
3	269	54.210245237109	7.783122542215
3	279	55.927385180436	8.439068084114
3	284	56.793925994079	8.468776861217
3	292	60.352329586125	11.27558572416
3	297	60.467383585045	4.825965836911
3	304	61.975828046614	2.107138695899
3	311	62.759655653358	15.200028283846
3	323	64.360235854367	16.321976344935
3	328	66.477874077143	3.598955436686
3	333	67.752555650282	4.023613461118
3	346	72.563262323442	8.221871553848
3	353	73.512337240022	4.66057870867
3	358	74.723632788873	3.996630163388
3	377	77.696482053143	4.329795425603
3	382	77.85049243734	2.946107804476
3	387	77.930603375633	2.376311280066
3	396	80.743877113582	4.625360032239
3	402	81.765767588603	5.234119193073
3	407	82.023517794666	5.491622215507
3	432	89.016095909007	10.499153729595
3	437	89.797082086152	10.612671672435
3	442	90.066881678966	7.810171428481
3	447	90.313626461447	7.743116467366
3	454	91.273872895451	8.603157870032
3	459	91.66460975997	7.58583583747
3	476	94.191122684312	9.584109703455
3	483	95.272762404411	9.849528222137
3	490	95.3118378414	7.826819213053
3	496	97.179590635689	6.072471499955
3	503	99.636989826662	6.090834675266
4	14	4.959248770767	4.140577233661
4	32	8.105567922135	7.181823437643
4	43	9.11169843652	4.996922256427
4	54	11.888265965664	5.487488513077
4	135	24.265831275979	14.852258189352
4	143	25.032849298669	12.892529078825
4	154	27.775195178738	13.399554254369
4	159	28.024937042773	7.347415635163
4	166	28.308862496091	5.959487602099
4	189	34.127926249224	10.263468098911
4	194	34.174681398742	3.68462326823
4	202	38.679860009486	5.393042275112
4	216	42.151395387532	3.072581719787
4	224	42.619150265865	0.313873836495
4	232	44.51547000472	0.451497357648
4	311	62.759655653358	15.200028283846
4	323	64.360235854367	16.321976344935
5	22	6.400572828014	5.25518884876
5	38	8.812620906474	1.764548181865
5	65	12.170205568853	2.824261820769
5	71	12.330653011101	1.40447960421
5	76	12.53561214186	0.563278484514
5	86	13.525481764445	1.41811767179
5	98	14.924786405957	2.138436027653
5	108	16.187282980728	3.174716849444
5	113	18.859013027215	4.985415498849
5	118	19.413544154135	5.089296700634
5	127	23.708008442299	8.064066019484
5	148	26.044241199288	1.011859441538
5	175	30.659067913839	2.425725959603
5	183	33.572761120075	4.209778353966
5	209	39.540289278471	3.125123987504
5	245	46.549545701071	1.967162587403
5	250	47.346771556811	1.78389927101
5	269	54.210245237109	7.783122542215
5	279	55.927385180436	8.439068084114
5	284	56.793925994079	8.468776861217
5	292	60.352329586125	11.27558572416
5	297	60.467383585045	4.825965836911
5	304	61.975828046614	2.107138695899
5	328	66.477874077143	3.598955436686
5	333	67.752555650282	4.023613461118
5	346	72.563262323442	8.221871553848
5	353	73.512337240022	4.66057870867
5	358	74.723632788873	3.996630163388
5	377	77.696482053143	4.329795425603
5	382	77.85049243734	2.946107804476
5	387	77.930603375633	2.376311280066
5	396	80.743877113582	4.625360032239
5	402	81.765767588603	5.234119193073
5	407	82.023517794666	5.491622215507
5	432	89.016095909007	10.499153729595
5	437	89.797082086152	10.612671672435
5	442	90.066881678966	7.810171428481
5	447	90.313626461447	7.743116467366
5	454	91.273872895451	8.603157870032
5	459	91.66460975997	7.58583583747
5	476	94.191122684312	9.584109703455
5	483	95.272762404411	9.849528222137
5	490	95.3118378414	7.826819213053
5	496	97.179590635689	6.072471499955
5	503	99.636989826662	6.090834675266

