version 2
run First-n4-7-20191125-12:36:56-10972
attr configname First-n4
attr datetime 20191125-12:36:56
attr experiment First-n4
attr inifile omnetpp.ini
attr iterationvars ""
attr iterationvarsf ""
attr measurement ""
attr network org.omnetpp.queueing.Pizza
attr processid 10972
attr repetition 7
attr replication ""
attr resultdir results_no_transient
attr runnumber 7
attr seedset 7
param **.PS.maxInventoriedPS 4
param **.U1.interArrivalTime exponential(2s)
param **.U2.interArrivalTime exponential(4s)
param **.PS.serviceTimeForInventoryU1 exponential(0.8s)
param **.PS.serviceTimeForInventoryU2 exponential(1.0s)
param **.PS.serviceTimeDirectU1 exponential(1.2s)
param **.PS.serviceTimeDirectU2 exponential(1.4s)
param **.PS.probabilityProducing 0.5
param **.CS.serviceTimeU1 exponential(0.8s)
param **.CS.serviceTimeU2 exponential(1.0s)

vector 0 Pizza.EntryQueueU1 queueLength:vector ETV
attr interpolationmode sample-hold
attr title "queue length, vector"
vector 1 Pizza.CS queueLength:vector ETV
attr interpolationmode sample-hold
attr title "queue length, vector"
vector 2 Pizza.EntryQueueU2 queueLength:vector ETV
attr interpolationmode sample-hold
attr title "queue length, vector"
vector 3 Pizza.sink lifeTime:vector ETV
attr interpolationmode none
attr title "lifetime of arrived jobs, vector"
attr unit s
vector 4 Pizza.sink lifeTimeU1:vector ETV
attr interpolationmode none
attr title "lifetime of arrived jobs, vector"
attr unit s
vector 5 Pizza.sink lifeTimeU2:vector ETV
attr interpolationmode none
attr title "lifetime of arrived jobs, vector"
attr unit s
0	0	0	0
0	12	3.186271203354	1
0	16	3.922646749257	2
0	18	4.535346124087	3
0	20	5.926127373993	4
0	22	6.107604223705	5
0	24	6.257161520631	6
0	30	7.344452251714	7
0	32	7.741080339274	6
0	42	8.140385499458	5
0	47	8.332398939077	4
0	53	9.61851404012	5
0	55	10.227719621579	6
0	57	10.278148534068	7
0	59	10.983238070839	6
0	64	11.192644628015	5
0	73	13.056848400218	6
0	74	13.340759820876	5
0	81	14.539056613882	6
0	83	14.750831197976	7
0	84	14.807977375928	6
0	88	15.20927791945	7
0	94	16.558972778663	8
0	97	18.01560272238	7
0	102	18.138791305489	6
0	108	18.621206800031	5
0	113	18.887037691188	4
0	118	19.378643990127	3
0	124	20.198278473957	4
0	125	20.486416765095	3
0	131	23.66561354003	2
0	138	24.53893800631	1
0	145	26.566319984951	0
0	168	28.767808966418	1
0	171	29.332535004525	0
0	183	31.064972530954	1
0	185	31.375073398757	2
0	188	33.587470809043	1
0	193	35.046401080737	0
0	214	37.1776719197	1
0	215	37.249087276447	0
0	224	38.571675080342	1
0	226	38.933523502697	2
0	230	40.286624236844	1
0	235	40.778627761427	0
0	252	44.979160742259	1
0	260	48.071383824152	0
0	274	49.155319997863	1
0	278	49.7671284195	0
0	299	52.506791124271	1
0	300	52.753537685401	0
0	317	53.750812879461	1
0	319	54.162399973205	2
0	322	54.436670814508	3
0	325	56.17571131098	4
0	326	56.306030912397	3
0	331	56.5089941903	2
0	336	57.19326846746	1
0	341	57.208742487939	0
0	345	57.360261926208	1
0	351	59.237286127871	0
0	357	59.662856409868	1
0	358	60.512733888898	0
0	362	61.141620260263	1
0	364	62.478734221515	2
0	366	63.119857256334	3
0	368	63.730277467102	4
0	370	64.100771691194	5
0	376	65.599300242213	6
0	378	67.552568126327	7
0	380	67.992696939916	8
0	381	68.277878054346	7
0	387	69.978807956115	8
0	388	69.993124412703	7
0	393	72.3803987856	6
0	398	72.994169492654	5
0	405	75.611751531547	4
0	410	75.856672916367	3
0	414	76.546676169916	4
0	421	77.20388313069	3
0	425	77.207949453395	4
0	428	77.2663727367	3
0	433	78.499932505892	2
0	437	79.24280881698	3
0	440	79.458357195932	2
0	445	80.242336155542	1
0	452	80.730510478511	2
0	454	80.810025230159	3
0	455	81.247093551964	2
0	460	81.468332087936	1
0	466	83.851006968844	0
0	521	90.611179604714	1
0	523	91.038824394934	2
0	524	91.111952671529	1
0	529	91.492288732963	0
1	0	0	0
2	0	0	0
2	7	1.031659898738	1
2	8	1.648071280365	0
2	14	3.463833041628	1
2	26	6.556890160398	2
2	38	7.807188770871	3
2	40	8.080031528368	4
2	70	12.567519483451	5
2	135	23.666160573974	6
2	144	25.861475567686	7
2	150	26.927387779201	6
2	156	27.506316153704	5
2	162	28.660321453754	4
2	170	28.821644212872	5
2	177	30.235891690878	4
2	198	35.341785151781	3
2	203	35.44226686883	2
2	208	36.10745891507	1
2	220	37.534906117333	0
2	239	41.137353046033	1
2	241	41.603513161164	2
2	244	42.216576248095	1
2	248	44.072929275898	2
2	250	44.951405704684	3
2	267	49.081915566182	2
2	276	49.446126429114	3
2	284	50.838044384131	2
2	290	52.017727808645	3
2	293	52.255954729172	2
2	306	52.945076542622	1
2	311	53.462001687991	0
2	347	57.73478782424	1
2	374	65.51374860146	2
2	404	75.109360179792	3
2	418	76.792027556049	4
2	420	76.97522440179	5
2	472	83.872149404583	6
2	473	83.941856275788	5
2	478	84.373565081859	4
2	485	86.43420198481	3
2	490	86.758851798755	2
2	496	87.357371656831	1
2	504	88.473825240421	0
2	542	93.980611688613	1
2	543	94.164631259492	0
3	10	1.648071280365	1.489317457428
3	34	7.741080339274	6.709420440536
3	44	8.140385499458	4.954114296104
3	49	8.332398939077	4.40975218982
3	61	10.983238070839	6.447891946752
3	66	11.192644628015	5.266517254022
3	76	13.340759820876	7.233155597171
3	86	14.807977375928	8.550815855297
3	99	18.01560272238	10.671150470666
3	104	18.138791305489	8.520277265369
3	110	18.621206800031	8.393487178452
3	115	18.887037691188	8.60888915712
3	120	19.378643990127	6.321795589909
3	127	20.486416765095	5.947360151213
3	133	23.66561354003	8.914782342054
3	140	24.53893800631	9.32966008686
3	147	26.566319984951	10.007347206288
3	152	26.927387779201	6.729109305244
3	158	27.506316153704	24.042483112076
3	164	28.660321453754	22.103431293356
3	173	29.332535004525	21.525346233654
3	179	30.235891690878	1.46808272446
3	190	33.587470809043	25.507439280675
3	195	35.046401080737	3.981428549783
3	200	35.341785151781	3.966711753024
3	205	35.44226686883	22.874747385379
3	210	36.10745891507	12.441298341096
3	217	37.249087276447	11.387611708761
3	222	37.534906117333	0.357234197633
3	232	40.286624236844	11.464980023972
3	237	40.778627761427	2.206952681085
3	246	42.216576248095	3.283052745398
3	262	48.071383824152	6.934030778119
3	269	49.081915566182	4.102754823923
3	280	49.7671284195	8.163615258336
3	286	50.838044384131	1.682724386268
3	295	52.255954729172	8.183025453274
3	302	52.753537685401	7.802131980717
3	308	52.945076542622	0.438285418351
3	313	53.462001687991	4.015875258877
3	328	56.306030912397	4.288303103752
3	333	56.5089941903	2.758181310839
3	338	57.19326846746	3.030868494255
3	343	57.208742487939	2.772071673431
3	353	59.237286127871	3.061574816891
3	360	60.512733888898	3.15247196269
3	383	68.277878054346	8.615021644478
3	390	69.993124412703	8.85150415244
3	395	72.3803987856	9.901664564085
3	400	72.994169492654	9.87431223632
3	407	75.611751531547	11.881474064445
3	412	75.856672916367	11.755901225173
3	423	77.20388313069	11.604582888477
3	430	77.2663727367	9.713804610373
3	435	78.499932505892	10.507235565976
3	442	79.458357195932	9.479549239817
3	447	80.242336155542	3.695659985626
3	457	81.247093551964	4.039144098569
3	462	81.468332087936	2.225523270956
3	468	83.851006968844	3.120496490333
3	475	83.941856275788	3.131831045629
3	480	84.373565081859	26.638777257619
3	487	86.43420198481	20.92045338335
3	492	86.758851798755	11.649491618963
3	498	87.357371656831	10.565344100782
3	506	88.473825240421	11.498600838631
3	512	89.221925169062	5.349775764479
3	526	91.111952671529	1.335936124709
3	531	91.492288732963	0.881109128249
3	535	91.67711425533	0.638289860396
3	545	94.164631259492	0.185425746489
3	551	95.726057692699	1.745446004086
4	10	1.648071280365	1.489317457428
4	44	8.140385499458	4.954114296104
4	49	8.332398939077	4.40975218982
4	61	10.983238070839	6.447891946752
4	66	11.192644628015	5.266517254022
4	76	13.340759820876	7.233155597171
4	86	14.807977375928	8.550815855297
4	99	18.01560272238	10.671150470666
4	104	18.138791305489	8.520277265369
4	110	18.621206800031	8.393487178452
4	115	18.887037691188	8.60888915712
4	120	19.378643990127	6.321795589909
4	127	20.486416765095	5.947360151213
4	133	23.66561354003	8.914782342054
4	140	24.53893800631	9.32966008686
4	147	26.566319984951	10.007347206288
4	152	26.927387779201	6.729109305244
4	179	30.235891690878	1.46808272446
4	195	35.046401080737	3.981428549783
4	200	35.341785151781	3.966711753024
4	222	37.534906117333	0.357234197633
4	237	40.778627761427	2.206952681085
4	246	42.216576248095	3.283052745398
4	269	49.081915566182	4.102754823923
4	286	50.838044384131	1.682724386268
4	308	52.945076542622	0.438285418351
4	333	56.5089941903	2.758181310839
4	338	57.19326846746	3.030868494255
4	343	57.208742487939	2.772071673431
4	353	59.237286127871	3.061574816891
4	360	60.512733888898	3.15247196269
4	383	68.277878054346	8.615021644478
4	390	69.993124412703	8.85150415244
4	395	72.3803987856	9.901664564085
4	400	72.994169492654	9.87431223632
4	407	75.611751531547	11.881474064445
4	412	75.856672916367	11.755901225173
4	423	77.20388313069	11.604582888477
4	430	77.2663727367	9.713804610373
4	435	78.499932505892	10.507235565976
4	442	79.458357195932	9.479549239817
4	447	80.242336155542	3.695659985626
4	457	81.247093551964	4.039144098569
4	462	81.468332087936	2.225523270956
4	468	83.851006968844	3.120496490333
4	475	83.941856275788	3.131831045629
4	531	91.492288732963	0.881109128249
4	535	91.67711425533	0.638289860396
4	545	94.164631259492	0.185425746489
5	34	7.741080339274	6.709420440536
5	158	27.506316153704	24.042483112076
5	164	28.660321453754	22.103431293356
5	173	29.332535004525	21.525346233654
5	190	33.587470809043	25.507439280675
5	205	35.44226686883	22.874747385379
5	210	36.10745891507	12.441298341096
5	217	37.249087276447	11.387611708761
5	232	40.286624236844	11.464980023972
5	262	48.071383824152	6.934030778119
5	280	49.7671284195	8.163615258336
5	295	52.255954729172	8.183025453274
5	302	52.753537685401	7.802131980717
5	313	53.462001687991	4.015875258877
5	328	56.306030912397	4.288303103752
5	480	84.373565081859	26.638777257619
5	487	86.43420198481	20.92045338335
5	492	86.758851798755	11.649491618963
5	498	87.357371656831	10.565344100782
5	506	88.473825240421	11.498600838631
5	512	89.221925169062	5.349775764479
5	526	91.111952671529	1.335936124709
5	551	95.726057692699	1.745446004086

