version 2
run First-n2-11-20191125-12:37:01-9348
attr configname First-n2
attr datetime 20191125-12:37:01
attr experiment First-n2
attr inifile omnetpp.ini
attr iterationvars ""
attr iterationvarsf ""
attr measurement ""
attr network org.omnetpp.queueing.Pizza
attr processid 9348
attr repetition 11
attr replication ""
attr resultdir results_no_transient
attr runnumber 11
attr seedset 11
param **.PS.maxInventoriedPS 2
param **.U1.interArrivalTime exponential(2s)
param **.U2.interArrivalTime exponential(4s)
param **.PS.serviceTimeForInventoryU1 exponential(0.8s)
param **.PS.serviceTimeForInventoryU2 exponential(1.0s)
param **.PS.serviceTimeDirectU1 exponential(1.2s)
param **.PS.serviceTimeDirectU2 exponential(1.4s)
param **.PS.probabilityProducing 0.5
param **.CS.serviceTimeU1 exponential(0.8s)
param **.CS.serviceTimeU2 exponential(1.0s)

vector 0 Pizza.EntryQueueU1 queueLength:vector ETV
attr interpolationmode sample-hold
attr title "queue length, vector"
vector 1 Pizza.CS queueLength:vector ETV
attr interpolationmode sample-hold
attr title "queue length, vector"
vector 2 Pizza.EntryQueueU2 queueLength:vector ETV
attr interpolationmode sample-hold
attr title "queue length, vector"
vector 3 Pizza.sink lifeTime:vector ETV
attr interpolationmode none
attr title "lifetime of arrived jobs, vector"
attr unit s
vector 4 Pizza.sink lifeTimeU2:vector ETV
attr interpolationmode none
attr title "lifetime of arrived jobs, vector"
attr unit s
vector 5 Pizza.sink lifeTimeU1:vector ETV
attr interpolationmode none
attr title "lifetime of arrived jobs, vector"
attr unit s
0	0	0	0
0	7	0.397559776347	1
0	9	0.82918977245	2
0	12	1.924040615244	1
0	21	3.410677649658	2
0	23	3.605489874977	3
0	25	4.534659223345	2
0	31	5.118339758079	1
0	36	5.262681591808	0
0	48	7.410359181033	1
0	50	7.754101433183	2
0	52	7.805043269295	3
0	57	10.650790573663	4
0	58	11.353524261599	3
0	64	11.418585714274	4
0	67	11.593961249551	5
0	68	12.949629504879	4
0	73	13.68174939978	3
0	81	14.088598425325	4
0	84	14.905176484363	3
0	91	16.030526090288	4
0	93	16.173717466475	5
0	94	16.728764250077	4
0	100	17.781355794133	5
0	102	19.03198151627	6
0	103	19.11111582502	5
0	108	19.441172923335	4
0	115	21.511267976515	3
0	120	21.569344144332	2
0	125	21.599458063523	1
0	133	23.747075290676	0
0	144	27.667957067392	1
0	148	28.127782064363	0
0	177	31.13723538183	1
0	181	32.628837567921	0
0	235	45.286819657119	1
0	236	45.468510862875	0
0	243	46.273099560308	1
0	244	46.546020617309	0
0	262	53.281867788119	1
0	264	53.330898581542	2
0	269	54.341401799561	1
0	274	55.942099362547	0
0	294	57.96414812237	1
0	295	59.069259671648	0
0	299	59.678110502106	1
0	301	60.444110790611	2
0	305	61.034563194544	3
0	309	62.051780645272	2
0	314	62.128473750105	1
0	319	62.413978297608	0
0	341	65.925657210835	1
0	344	66.651080545842	2
0	345	66.939523425045	1
0	350	67.431024151093	0
0	369	72.85414761609	1
0	371	73.188993827841	2
0	375	75.025814068662	1
0	381	75.281349649428	2
0	383	76.056470779086	3
0	386	78.104206021315	2
0	391	79.428109234414	1
0	398	81.445171234631	2
0	400	82.01222280984	1
0	406	82.021859493494	2
0	407	82.176944203576	1
0	413	83.112661781516	2
0	415	84.462901954008	3
0	416	84.751298160223	2
0	421	86.143212847629	1
0	425	86.273043224945	2
0	430	88.07056700288	1
0	435	88.308300242014	0
0	459	91.065773829391	1
0	460	92.299484469942	0
0	467	93.154286102316	1
0	468	93.391884080019	0
0	482	95.469147807732	1
0	483	95.706756309372	0
0	495	96.225184428388	1
0	496	97.208909521994	0
0	505	98.085536876994	1
1	0	0	0
2	0	0	0
2	5	0.36167654501	1
2	19	2.850333390812	2
2	41	6.881213055259	1
2	83	14.226270272121	2
2	131	21.761216749885	3
2	138	27.302659525779	2
2	147	28.005734337854	3
2	152	28.213773347078	4
2	156	29.124614088828	3
2	161	29.189566157488	2
2	167	29.575379835665	1
2	173	30.783241101308	0
2	266	54.022298458155	1
2	279	56.780124721883	0
2	308	61.929633308502	1
2	325	63.61804696877	0
2	331	64.236217939792	1
2	332	64.359410029401	0
2	339	65.491246542203	1
2	355	68.01654743393	0
2	367	72.478059712902	1
2	379	75.230669243891	2
2	440	88.433547929905	1
2	445	88.920120106514	0
2	454	89.416746893031	1
2	456	89.560704214007	2
2	473	93.832721287057	1
2	480	94.89262061993	2
2	489	95.751263994705	1
2	501	97.729373086424	0
3	14	1.924040615244	1.641033596265
3	27	4.534659223345	4.137099446998
3	33	5.118339758079	4.289149985629
3	38	5.262681591808	1.85200394215
3	43	6.881213055259	3.275723180282
3	60	11.353524261599	10.991847716589
3	70	12.949629504879	5.539270323846
3	75	13.68174939978	5.927647966597
3	86	14.905176484363	7.100133215068
3	96	16.728764250077	6.077973676414
3	105	19.11111582502	7.692530110746
3	110	19.441172923335	7.847211673784
3	117	21.511267976515	7.42266955119
3	122	21.569344144332	5.538818054044
3	127	21.599458063523	5.425740597048
3	135	23.747075290676	5.965719496543
3	140	27.302659525779	8.270678009509
3	150	28.127782064363	25.277448673551
3	158	29.124614088828	1.456657021436
3	163	29.189566157488	14.963295885367
3	169	29.575379835665	7.81416308578
3	175	30.783241101308	2.777506763454
3	183	32.628837567921	4.415064220843
3	187	32.766959295239	1.629723913409
3	196	34.714669073617	1.052054881089
3	205	37.612816165147	1.072300348158
3	212	37.84420995101	0.080885333004
3	220	39.540495007605	0.093854480607
3	228	43.84183033834	0.093697740279
3	238	45.468510862875	0.482293036962
3	246	46.546020617309	1.25920096019
3	250	47.29855686094	1.025457300632
3	257	50.685050657463	3.327100297176
3	271	54.341401799561	1.82853546086
3	276	55.942099362547	2.660231574428
3	281	56.780124721883	3.449226140341
3	287	57.356305559892	3.334007101737
3	297	59.069259671648	1.574759259346
3	311	62.051780645272	4.087632522902
3	316	62.128473750105	2.450363247999
3	321	62.413978297608	1.969867506997
3	327	63.61804696877	2.583483774226
3	334	64.359410029401	2.429776720899
3	347	66.939523425045	2.703305485253
3	352	67.431024151093	1.505366940258
3	357	68.01654743393	1.365466888088
3	361	68.207435348071	2.716188805868
3	377	75.025814068662	3.5337598353
3	388	78.104206021315	5.250058405225
3	393	79.428109234414	6.239115406573
3	402	82.01222280984	6.730873160412
3	409	82.176944203576	6.12047342449
3	418	84.751298160223	3.306126925592
3	423	86.143212847629	4.121353354135
3	432	88.07056700288	4.957905221364
3	437	88.308300242014	3.845398288006
3	442	88.433547929905	2.16050470496
3	447	88.920120106514	16.442060393612
3	462	92.299484469942	17.068815226051
3	470	93.391884080019	2.326110250628
3	475	93.832721287057	0.678435184741
3	485	95.706756309372	6.290009416341
3	491	95.751263994705	0.282116186973
3	498	97.208909521994	7.648205307987
3	503	97.729373086424	1.504188658036
4	14	1.924040615244	1.641033596265
4	60	11.353524261599	10.991847716589
4	150	28.127782064363	25.277448673551
4	163	29.189566157488	14.963295885367
4	169	29.575379835665	7.81416308578
4	175	30.783241101308	2.777506763454
4	183	32.628837567921	4.415064220843
4	196	34.714669073617	1.052054881089
4	220	39.540495007605	0.093854480607
4	287	57.356305559892	3.334007101737
4	334	64.359410029401	2.429776720899
4	347	66.939523425045	2.703305485253
4	361	68.207435348071	2.716188805868
4	447	88.920120106514	16.442060393612
4	462	92.299484469942	17.068815226051
4	485	95.706756309372	6.290009416341
4	498	97.208909521994	7.648205307987
5	27	4.534659223345	4.137099446998
5	33	5.118339758079	4.289149985629
5	38	5.262681591808	1.85200394215
5	43	6.881213055259	3.275723180282
5	70	12.949629504879	5.539270323846
5	75	13.68174939978	5.927647966597
5	86	14.905176484363	7.100133215068
5	96	16.728764250077	6.077973676414
5	105	19.11111582502	7.692530110746
5	110	19.441172923335	7.847211673784
5	117	21.511267976515	7.42266955119
5	122	21.569344144332	5.538818054044
5	127	21.599458063523	5.425740597048
5	135	23.747075290676	5.965719496543
5	140	27.302659525779	8.270678009509
5	158	29.124614088828	1.456657021436
5	187	32.766959295239	1.629723913409
5	205	37.612816165147	1.072300348158
5	212	37.84420995101	0.080885333004
5	228	43.84183033834	0.093697740279
5	238	45.468510862875	0.482293036962
5	246	46.546020617309	1.25920096019
5	250	47.29855686094	1.025457300632
5	257	50.685050657463	3.327100297176
5	271	54.341401799561	1.82853546086
5	276	55.942099362547	2.660231574428
5	281	56.780124721883	3.449226140341
5	297	59.069259671648	1.574759259346
5	311	62.051780645272	4.087632522902
5	316	62.128473750105	2.450363247999
5	321	62.413978297608	1.969867506997
5	327	63.61804696877	2.583483774226
5	352	67.431024151093	1.505366940258
5	357	68.01654743393	1.365466888088
5	377	75.025814068662	3.5337598353
5	388	78.104206021315	5.250058405225
5	393	79.428109234414	6.239115406573
5	402	82.01222280984	6.730873160412
5	409	82.176944203576	6.12047342449
5	418	84.751298160223	3.306126925592
5	423	86.143212847629	4.121353354135
5	432	88.07056700288	4.957905221364
5	437	88.308300242014	3.845398288006
5	442	88.433547929905	2.16050470496
5	470	93.391884080019	2.326110250628
5	475	93.832721287057	0.678435184741
5	491	95.751263994705	0.282116186973
5	503	97.729373086424	1.504188658036

