version 2
run First-n5-9-20191125-12:37:01-9232
attr configname First-n5
attr datetime 20191125-12:37:01
attr experiment First-n5
attr inifile omnetpp.ini
attr iterationvars ""
attr iterationvarsf ""
attr measurement ""
attr network org.omnetpp.queueing.Pizza
attr processid 9232
attr repetition 9
attr replication ""
attr resultdir results_no_transient
attr runnumber 9
attr seedset 9
param **.PS.maxInventoriedPS 5
param **.U1.interArrivalTime exponential(2s)
param **.U2.interArrivalTime exponential(4s)
param **.PS.serviceTimeForInventoryU1 exponential(0.8s)
param **.PS.serviceTimeForInventoryU2 exponential(1.0s)
param **.PS.serviceTimeDirectU1 exponential(1.2s)
param **.PS.serviceTimeDirectU2 exponential(1.4s)
param **.PS.probabilityProducing 0.5
param **.CS.serviceTimeU1 exponential(0.8s)
param **.CS.serviceTimeU2 exponential(1.0s)

vector 0 Pizza.EntryQueueU1 queueLength:vector ETV
attr interpolationmode sample-hold
attr title "queue length, vector"
vector 1 Pizza.CS queueLength:vector ETV
attr interpolationmode sample-hold
attr title "queue length, vector"
vector 2 Pizza.EntryQueueU2 queueLength:vector ETV
attr interpolationmode sample-hold
attr title "queue length, vector"
vector 3 Pizza.sink lifeTime:vector ETV
attr interpolationmode none
attr title "lifetime of arrived jobs, vector"
attr unit s
vector 4 Pizza.sink lifeTimeU1:vector ETV
attr interpolationmode none
attr title "lifetime of arrived jobs, vector"
attr unit s
vector 5 Pizza.sink lifeTimeU2:vector ETV
attr interpolationmode none
attr title "lifetime of arrived jobs, vector"
attr unit s
0	0	0	0
0	28	3.075591881666	1
0	30	3.154630015333	2
0	32	3.397227905087	1
0	41	5.223509751997	0
0	65	10.973359897441	1
0	67	11.194012119284	2
0	69	11.565794993076	3
0	71	11.731071802341	4
0	74	13.203534908592	5
0	75	13.30940327011	4
0	82	14.554069553248	5
0	83	14.887061572649	4
0	91	15.830683422209	3
0	96	16.228896632394	2
0	103	17.076207302163	1
0	109	18.909705346282	0
0	154	25.24980942688	1
0	155	25.641459771316	0
0	208	32.849381304715	1
0	210	33.166876298178	2
0	211	33.256452617853	1
0	217	33.907395077734	0
0	275	40.233926057795	1
0	277	40.520603963646	2
0	284	42.531977348274	1
0	289	43.018010716995	0
0	302	45.131774687759	1
0	303	45.357541881578	0
0	338	51.845648486025	1
0	339	51.903017635997	0
0	359	56.870505674293	1
0	362	57.200290778888	0
0	370	59.392644051678	1
0	371	59.802068402609	0
0	412	67.097260136509	1
0	413	67.165255501042	0
0	435	71.299257513855	1
0	436	71.381866145822	0
0	458	72.910219569528	1
0	460	73.210280126492	2
0	463	73.303351477454	3
0	464	73.551399665572	2
0	473	73.954264514376	1
0	478	74.242863898655	0
0	524	79.502714144005	1
0	525	80.075121033136	0
0	546	86.212545846361	1
0	548	86.68764094562	0
0	562	89.086475927239	1
0	567	90.95286819521	0
0	596	99.158796428828	1
0	598	99.778613972449	0
1	0	0	0
2	0	0	0
2	25	1.813127449552	1
2	39	3.686435149716	2
2	46	5.614339988537	1
2	51	6.4464497555	0
2	90	15.734463795259	1
2	114	19.840671797146	0
2	204	31.962024073343	1
2	222	34.670864325217	0
2	229	35.381474594238	1
2	230	35.510769612745	0
2	279	40.945725672641	1
2	281	41.423307033935	2
2	283	41.709051392503	3
2	294	43.704099024923	2
2	308	45.391592378035	1
2	313	45.679013901928	0
2	328	49.384662830767	1
2	330	50.58413856119	0
2	357	56.648232223927	1
2	361	56.94171146088	2
2	368	58.273687217554	3
2	376	60.051274002263	2
2	383	61.816087005669	1
2	388	62.583716903818	0
2	405	66.600511162558	1
2	406	66.833041418791	0
2	470	73.677269250567	1
2	472	73.762104113011	2
2	484	74.349951129884	3
2	485	74.945111736856	2
2	492	75.80963960862	1
2	497	75.865023089899	0
2	503	75.918229410265	1
2	505	76.815995317087	2
2	506	76.944226976076	1
2	513	77.542596365773	2
2	515	77.585859851137	1
2	531	81.078198320858	0
3	8	0.965486833298	0.944630143657
3	17	1.48490675662	0.070243232535
3	34	3.397227905087	1.686661929778
3	43	5.223509751997	2.147917870331
3	48	5.614339988537	2.459709973204
3	53	6.4464497555	4.633322305948
3	57	7.073188548768	3.386753399052
3	77	13.30940327011	3.276720640724
3	85	14.887061572649	3.913701675208
3	93	15.830683422209	4.636671302925
3	98	16.228896632394	4.663101639318
3	105	17.076207302163	5.345135499822
3	111	18.909705346282	5.70617043769
3	116	19.840671797146	5.286602243898
3	120	20.182232186099	4.44776839084
3	129	22.589295629054	0.149173685948
3	139	24.67964464557	0.156286876371
3	146	24.953018284422	0.058130156828
3	157	25.641459771316	0.437337311148
3	164	26.849898942492	1.600089515612
3	171	27.859156660234	0.004574292067
3	180	28.673182550129	0.192899353321
3	188	29.009689150834	0.264365530131
3	197	31.641238004199	0.545507254881
3	213	33.256452617853	1.327142128331
3	219	33.907395077734	1.058013773019
3	224	34.670864325217	1.503988027039
3	232	35.510769612745	3.548745539402
3	236	35.551205566402	0.169730972164
3	244	37.048421366539	1.203909123913
3	251	37.249236547853	0.038708834885
3	258	37.944265440103	0.087240604032
3	266	39.397309122829	1.418966437584
3	286	42.531977348274	2.802978627593
3	291	43.018010716995	2.7840846592
3	296	43.704099024923	3.183495061277
3	305	45.357541881578	4.411816208937
3	310	45.391592378035	0.259817690276
3	315	45.679013901928	4.255706867993
3	319	45.693311277178	3.984259884675
3	332	50.58413856119	1.503520748076
3	341	51.903017635997	2.51835480523
3	345	52.431791261202	0.586142775177
3	364	57.200290778888	1.292253796597
3	373	59.802068402609	2.931562728316
3	378	60.051274002263	0.658629950585
3	385	61.816087005669	5.167854781742
3	390	62.583716903818	5.642005442938
3	395	63.106613113212	4.832925895658
3	408	66.833041418791	1.150338350577
3	415	67.165255501042	0.564744338484
3	419	67.322534262593	0.225274126084
3	427	69.012443597661	0.498351382204
3	438	71.381866145822	1.535261443075
3	442	71.402587483097	0.103329969242
3	450	72.267617857704	0.22778813709
3	466	73.551399665572	0.831154030705
3	475	73.954264514376	1.044044944848
3	480	74.242863898655	1.032583772163
3	487	74.945111736856	1.641760259402
3	494	75.80963960862	2.132370358053
3	499	75.865023089899	2.102918976888
3	508	76.944226976076	2.594275846192
3	517	77.585859851137	1.667630440872
3	527	80.075121033136	3.259125716049
3	533	81.078198320858	1.575484176853
3	538	82.175884877196	4.633288511423
3	550	86.68764094562	0.54101969883
3	555	86.949318849303	0.736773002942
3	569	90.95286819521	2.017902231713
3	573	91.486464582898	2.399988655659
3	582	95.709395851815	2.037811241092
3	589	96.919895230247	0.178331320434
3	600	99.778613972449	0.686360343511
4	8	0.965486833298	0.944630143657
4	17	1.48490675662	0.070243232535
4	34	3.397227905087	1.686661929778
4	43	5.223509751997	2.147917870331
4	48	5.614339988537	2.459709973204
4	77	13.30940327011	3.276720640724
4	85	14.887061572649	3.913701675208
4	93	15.830683422209	4.636671302925
4	98	16.228896632394	4.663101639318
4	105	17.076207302163	5.345135499822
4	111	18.909705346282	5.70617043769
4	116	19.840671797146	5.286602243898
4	129	22.589295629054	0.149173685948
4	139	24.67964464557	0.156286876371
4	146	24.953018284422	0.058130156828
4	164	26.849898942492	1.600089515612
4	180	28.673182550129	0.192899353321
4	197	31.641238004199	0.545507254881
4	219	33.907395077734	1.058013773019
4	224	34.670864325217	1.503988027039
4	291	43.018010716995	2.7840846592
4	296	43.704099024923	3.183495061277
4	310	45.391592378035	0.259817690276
4	345	52.431791261202	0.586142775177
4	373	59.802068402609	2.931562728316
4	378	60.051274002263	0.658629950585
4	419	67.322534262593	0.225274126084
4	427	69.012443597661	0.498351382204
4	438	71.381866145822	1.535261443075
4	442	71.402587483097	0.103329969242
4	475	73.954264514376	1.044044944848
4	480	74.242863898655	1.032583772163
4	487	74.945111736856	1.641760259402
4	533	81.078198320858	1.575484176853
4	550	86.68764094562	0.54101969883
4	555	86.949318849303	0.736773002942
4	573	91.486464582898	2.399988655659
4	582	95.709395851815	2.037811241092
4	600	99.778613972449	0.686360343511
5	53	6.4464497555	4.633322305948
5	57	7.073188548768	3.386753399052
5	120	20.182232186099	4.44776839084
5	157	25.641459771316	0.437337311148
5	171	27.859156660234	0.004574292067
5	188	29.009689150834	0.264365530131
5	213	33.256452617853	1.327142128331
5	232	35.510769612745	3.548745539402
5	236	35.551205566402	0.169730972164
5	244	37.048421366539	1.203909123913
5	251	37.249236547853	0.038708834885
5	258	37.944265440103	0.087240604032
5	266	39.397309122829	1.418966437584
5	286	42.531977348274	2.802978627593
5	305	45.357541881578	4.411816208937
5	315	45.679013901928	4.255706867993
5	319	45.693311277178	3.984259884675
5	332	50.58413856119	1.503520748076
5	341	51.903017635997	2.51835480523
5	364	57.200290778888	1.292253796597
5	385	61.816087005669	5.167854781742
5	390	62.583716903818	5.642005442938
5	395	63.106613113212	4.832925895658
5	408	66.833041418791	1.150338350577
5	415	67.165255501042	0.564744338484
5	450	72.267617857704	0.22778813709
5	466	73.551399665572	0.831154030705
5	494	75.80963960862	2.132370358053
5	499	75.865023089899	2.102918976888
5	508	76.944226976076	2.594275846192
5	517	77.585859851137	1.667630440872
5	527	80.075121033136	3.259125716049
5	538	82.175884877196	4.633288511423
5	569	90.95286819521	2.017902231713
5	589	96.919895230247	0.178331320434

