version 2
run First-n4-2-20191125-12:36:49-9564
attr configname First-n4
attr datetime 20191125-12:36:49
attr experiment First-n4
attr inifile omnetpp.ini
attr iterationvars ""
attr iterationvarsf ""
attr measurement ""
attr network org.omnetpp.queueing.Pizza
attr processid 9564
attr repetition 2
attr replication ""
attr resultdir results_no_transient
attr runnumber 2
attr seedset 2
param **.PS.maxInventoriedPS 4
param **.U1.interArrivalTime exponential(2s)
param **.U2.interArrivalTime exponential(4s)
param **.PS.serviceTimeForInventoryU1 exponential(0.8s)
param **.PS.serviceTimeForInventoryU2 exponential(1.0s)
param **.PS.serviceTimeDirectU1 exponential(1.2s)
param **.PS.serviceTimeDirectU2 exponential(1.4s)
param **.PS.probabilityProducing 0.5
param **.CS.serviceTimeU1 exponential(0.8s)
param **.CS.serviceTimeU2 exponential(1.0s)

vector 0 Pizza.EntryQueueU1 queueLength:vector ETV
attr interpolationmode sample-hold
attr title "queue length, vector"
vector 1 Pizza.CS queueLength:vector ETV
attr interpolationmode sample-hold
attr title "queue length, vector"
vector 2 Pizza.EntryQueueU2 queueLength:vector ETV
attr interpolationmode sample-hold
attr title "queue length, vector"
vector 3 Pizza.sink lifeTime:vector ETV
attr interpolationmode none
attr title "lifetime of arrived jobs, vector"
attr unit s
vector 4 Pizza.sink lifeTimeU2:vector ETV
attr interpolationmode none
attr title "lifetime of arrived jobs, vector"
attr unit s
vector 5 Pizza.sink lifeTimeU1:vector ETV
attr interpolationmode none
attr title "lifetime of arrived jobs, vector"
attr unit s
0	0	0	0
0	7	1.145383979254	1
0	12	4.959248770767	0
0	28	7.048072724609	1
0	29	7.153771736524	0
0	35	7.337153272846	1
0	38	7.744913506768	2
0	39	7.860824720863	1
0	45	8.343068566861	2
0	46	8.406174147506	1
0	51	8.472571207911	0
0	55	9.389228817316	1
0	57	10.796618395726	2
0	63	11.501467403698	3
0	65	12.619127755961	4
0	72	12.866161618152	5
0	75	13.211259494398	4
0	81	13.378559445049	5
0	82	13.410342701202	4
0	89	14.293385373831	3
0	97	15.100782772038	4
0	100	16.312615939561	3
0	104	16.508134465713	4
0	106	18.243155519684	5
0	108	18.497651694454	6
0	110	18.851838835295	7
0	114	19.173502554717	8
0	117	22.500210667442	7
0	123	22.998389919513	8
0	124	23.128542205836	7
0	128	23.755931547674	8
0	134	24.354720798551	9
0	135	24.482525469964	8
0	145	27.351938245359	9
0	146	27.698324919738	8
0	150	28.264431299076	9
0	153	30.192540983788	8
0	158	30.719371583284	7
0	164	32.070043566998	8
0	168	35.470460194463	7
0	173	36.439102487204	6
0	179	37.737042634264	7
0	180	38.702514327362	6
0	186	39.048829262498	7
0	187	39.20239648516	6
0	193	40.159159520795	7
0	195	40.252669819832	8
0	197	41.241522428274	7
0	202	41.707315166742	6
0	207	44.308263316858	5
0	212	45.01793218363	4
0	216	45.647738023394	5
0	220	46.626159472633	6
0	226	48.129789565551	5
0	236	49.295439399367	6
0	238	49.347205478755	7
0	239	49.407026435759	6
0	244	49.96669177315	5
0	250	50.250200194052	6
0	251	50.516541236947	5
0	256	51.505420371795	4
0	261	52.939362868392	3
0	265	55.16810666256	4
0	267	56.0049386991	5
0	269	56.24425476906	6
0	271	57.205794932384	7
0	276	57.303859306432	6
0	280	57.957389661487	7
0	283	60.214463980891	6
0	291	62.195301806089	5
0	296	63.429369386298	4
0	302	64.290225489849	5
0	305	65.360957129726	4
0	312	68.013162678279	3
0	317	68.103314779879	2
0	322	68.471176897555	1
0	327	70.087548071067	0
0	335	71.19250796612	1
0	336	71.408561998291	0
0	348	75.702875727878	1
0	350	75.784543123404	2
0	351	77.284501383017	1
0	358	79.023871300394	0
0	362	79.284816717654	1
0	364	81.074155823565	2
0	370	81.841902760188	1
0	378	82.611853828889	2
0	380	83.252427606302	3
0	388	83.730890575566	4
0	390	83.925887505275	5
0	391	84.044107082094	4
0	397	84.62275992466	3
0	403	84.625491328075	4
0	404	84.816340113262	3
0	410	85.326373654922	2
0	416	86.134775687523	3
0	418	86.779151202682	4
0	419	86.818421844303	3
0	424	87.217997313804	2
0	432	87.905771220434	1
0	437	88.101880552233	0
0	488	95.711656441203	1
0	492	96.342047945308	2
0	494	96.347219775497	3
0	495	96.537925299764	2
0	501	97.245708955861	1
0	506	97.721096067366	0
0	515	98.280501672483	1
0	517	99.372753166201	0
1	0	0	0
2	0	0	0
2	5	0.923744484492	1
2	9	4.114776180093	2
2	20	6.400572828014	1
2	26	6.400777452587	2
2	59	10.996519499536	3
2	61	11.266580370153	4
2	67	12.62455294145	5
2	74	13.030606516214	6
2	88	14.033874155512	7
2	93	14.935174005783	8
2	112	19.026300732865	9
2	130	23.852235796368	10
2	142	26.083527131089	11
2	166	32.814539367826	12
2	222	46.918904417541	13
2	224	46.941143811072	14
2	234	48.8481971361	15
2	275	57.272991740714	16
2	290	61.4383018314	17
2	304	65.029123518244	18
2	331	71.049582097727	19
2	341	74.786889703622	18
2	355	77.451902901763	19
2	368	81.359923137214	20
2	382	83.384960678681	21
2	384	83.426172417419	22
2	386	83.426666784677	23
2	428	87.396759985183	24
2	442	89.67322065345	23
2	449	91.277101605733	22
2	455	91.520328877329	23
2	457	91.594084853965	24
2	461	91.960627650007	25
2	463	92.496619613564	24
2	471	93.941655306915	25
2	472	94.208452307714	24
2	477	94.227619967236	23
2	482	94.448300447092	22
2	490	95.715820733072	23
2	513	97.981097256157	24
2	522	99.40743765302	23
2	528	99.612728683258	22
3	14	4.959248770767	4.140577233661
3	22	6.400572828014	5.25518884876
3	31	7.153771736524	6.230027252032
3	41	7.860824720863	0.812751996254
3	48	8.406174147506	1.06902087466
3	53	8.472571207911	0.727657701143
3	77	13.211259494398	4.868190927537
3	84	13.410342701202	4.021113883886
3	91	14.293385373831	3.496766978105
3	102	16.312615939561	4.811148535863
3	119	22.500210667442	9.881082911481
3	126	23.128542205836	10.262380587684
3	137	24.482525469964	11.103966024915
3	148	27.698324919738	12.5975421477
3	155	30.192540983788	13.684406518075
3	160	30.719371583284	12.4762160636
3	170	35.470460194463	16.972808500009
3	175	36.439102487204	17.587263651909
3	182	38.702514327362	19.529011772645
3	189	39.20239648516	16.204006565647
3	199	41.241522428274	17.4855908806
3	204	41.707315166742	17.352594368191
3	209	44.308263316858	16.956325071499
3	214	45.01793218363	16.753500884554
3	228	48.129789565551	16.059745998553
3	241	49.407026435759	11.669983801495
3	246	49.96669177315	10.917862510652
3	253	50.516541236947	10.357381716152
3	258	51.505420371795	11.252750551963
3	263	52.939362868392	7.291624844998
3	278	57.303859306432	10.677699833799
3	285	60.214463980891	10.919024581524
3	293	62.195301806089	12.848096327334
3	298	63.429369386298	13.179169192246
3	307	65.360957129726	10.192850467166
3	314	68.013162678279	12.008223979179
3	319	68.103314779879	11.859060010819
3	324	68.471176897555	11.265381965171
3	329	70.087548071067	12.13015840958
3	338	71.408561998291	7.118336508442
3	343	74.786889703622	3.594381737502
3	353	77.284501383017	73.169725202924
3	360	79.023871300394	3.320995572516
3	372	81.841902760188	6.057359636784
3	393	84.044107082094	4.75929036444
3	399	84.62275992466	3.548604101095
3	406	84.816340113262	2.204486284373
3	412	85.326373654922	2.07394604862
3	421	86.818421844303	3.087531268737
3	426	87.217997313804	3.292109808529
3	434	87.905771220434	3.280279892359
3	439	88.101880552233	1.96710486471
3	444	89.67322065345	2.894069450768
3	451	91.277101605733	84.876324153146
3	465	92.496619613564	81.500100114028
3	474	94.208452307714	82.941871937561
3	479	94.227619967236	81.603067025786
3	484	94.448300447092	81.417693930878
3	497	96.537925299764	82.504051144252
3	503	97.245708955861	1.534052514658
3	508	97.721096067366	1.379048122058
3	519	99.372753166201	3.025533390704
3	524	99.40743765302	1.126935980537
3	530	99.612728683258	84.677554677475
4	14	4.959248770767	4.140577233661
4	31	7.153771736524	6.230027252032
4	353	77.284501383017	73.169725202924
4	451	91.277101605733	84.876324153146
4	465	92.496619613564	81.500100114028
4	474	94.208452307714	82.941871937561
4	479	94.227619967236	81.603067025786
4	484	94.448300447092	81.417693930878
4	497	96.537925299764	82.504051144252
4	530	99.612728683258	84.677554677475
5	22	6.400572828014	5.25518884876
5	41	7.860824720863	0.812751996254
5	48	8.406174147506	1.06902087466
5	53	8.472571207911	0.727657701143
5	77	13.211259494398	4.868190927537
5	84	13.410342701202	4.021113883886
5	91	14.293385373831	3.496766978105
5	102	16.312615939561	4.811148535863
5	119	22.500210667442	9.881082911481
5	126	23.128542205836	10.262380587684
5	137	24.482525469964	11.103966024915
5	148	27.698324919738	12.5975421477
5	155	30.192540983788	13.684406518075
5	160	30.719371583284	12.4762160636
5	170	35.470460194463	16.972808500009
5	175	36.439102487204	17.587263651909
5	182	38.702514327362	19.529011772645
5	189	39.20239648516	16.204006565647
5	199	41.241522428274	17.4855908806
5	204	41.707315166742	17.352594368191
5	209	44.308263316858	16.956325071499
5	214	45.01793218363	16.753500884554
5	228	48.129789565551	16.059745998553
5	241	49.407026435759	11.669983801495
5	246	49.96669177315	10.917862510652
5	253	50.516541236947	10.357381716152
5	258	51.505420371795	11.252750551963
5	263	52.939362868392	7.291624844998
5	278	57.303859306432	10.677699833799
5	285	60.214463980891	10.919024581524
5	293	62.195301806089	12.848096327334
5	298	63.429369386298	13.179169192246
5	307	65.360957129726	10.192850467166
5	314	68.013162678279	12.008223979179
5	319	68.103314779879	11.859060010819
5	324	68.471176897555	11.265381965171
5	329	70.087548071067	12.13015840958
5	338	71.408561998291	7.118336508442
5	343	74.786889703622	3.594381737502
5	360	79.023871300394	3.320995572516
5	372	81.841902760188	6.057359636784
5	393	84.044107082094	4.75929036444
5	399	84.62275992466	3.548604101095
5	406	84.816340113262	2.204486284373
5	412	85.326373654922	2.07394604862
5	421	86.818421844303	3.087531268737
5	426	87.217997313804	3.292109808529
5	434	87.905771220434	3.280279892359
5	439	88.101880552233	1.96710486471
5	444	89.67322065345	2.894069450768
5	503	97.245708955861	1.534052514658
5	508	97.721096067366	1.379048122058
5	519	99.372753166201	3.025533390704
5	524	99.40743765302	1.126935980537

