version 2
run First-n5-17-20191125-12:37:12-5964
attr configname First-n5
attr datetime 20191125-12:37:12
attr experiment First-n5
attr inifile omnetpp.ini
attr iterationvars ""
attr iterationvarsf ""
attr measurement ""
attr network org.omnetpp.queueing.Pizza
attr processid 5964
attr repetition 17
attr replication ""
attr resultdir results_no_transient
attr runnumber 17
attr seedset 17
param **.PS.maxInventoriedPS 5
param **.U1.interArrivalTime exponential(2s)
param **.U2.interArrivalTime exponential(4s)
param **.PS.serviceTimeForInventoryU1 exponential(0.8s)
param **.PS.serviceTimeForInventoryU2 exponential(1.0s)
param **.PS.serviceTimeDirectU1 exponential(1.2s)
param **.PS.serviceTimeDirectU2 exponential(1.4s)
param **.PS.probabilityProducing 0.5
param **.CS.serviceTimeU1 exponential(0.8s)
param **.CS.serviceTimeU2 exponential(1.0s)

vector 0 Pizza.EntryQueueU1 queueLength:vector ETV
attr interpolationmode sample-hold
attr title "queue length, vector"
vector 1 Pizza.CS queueLength:vector ETV
attr interpolationmode sample-hold
attr title "queue length, vector"
vector 2 Pizza.EntryQueueU2 queueLength:vector ETV
attr interpolationmode sample-hold
attr title "queue length, vector"
vector 3 Pizza.sink lifeTime:vector ETV
attr interpolationmode none
attr title "lifetime of arrived jobs, vector"
attr unit s
vector 4 Pizza.sink lifeTimeU1:vector ETV
attr interpolationmode none
attr title "lifetime of arrived jobs, vector"
attr unit s
vector 5 Pizza.sink lifeTimeU2:vector ETV
attr interpolationmode none
attr title "lifetime of arrived jobs, vector"
attr unit s
0	0	0	0
0	9	2.210708385975	1
0	11	2.351339497469	2
0	15	3.783911004085	1
0	20	4.113174257508	0
0	24	5.639619000026	1
0	28	6.525372369066	2
0	30	6.649218235706	3
0	31	7.557453343831	2
0	35	8.339100524735	3
0	37	8.408931952725	4
0	45	10.486816781568	3
0	50	10.487716406509	2
0	55	11.506832856323	1
0	60	12.426484587904	0
0	64	12.6048033868	1
0	69	13.207894492492	0
0	75	13.641847394101	1
0	77	14.333366461357	2
0	78	14.412460377242	1
0	84	14.721788891965	2
0	85	15.941082177906	1
0	89	16.400407166182	2
0	91	16.572263280856	3
0	93	16.703237690652	4
0	99	17.70611722291	3
0	108	18.278147140856	4
0	110	19.072212623543	5
0	112	19.213011912291	6
0	114	20.356082539447	5
0	121	20.444915079339	6
0	122	21.370965782562	5
0	127	21.574612475163	4
0	134	23.166766993779	5
0	135	23.794546428266	4
0	140	24.005058350329	3
0	145	24.436495307601	2
0	150	25.43284666968	1
0	155	26.046230924073	0
0	161	26.962885542103	1
0	163	26.984392040169	2
0	165	27.120312402959	3
0	167	28.051284156287	4
0	171	29.782879023774	5
0	172	29.813963500837	4
0	176	31.180155643907	5
0	178	31.302672449859	6
0	180	31.742579180188	7
0	182	32.253972023302	8
0	184	32.427977458143	9
0	187	33.66167246747	8
0	193	36.68986054321	7
0	198	37.569918102752	6
0	202	38.735218269738	7
0	204	39.733967268249	8
0	206	40.373863242831	9
0	209	40.841271864568	8
0	213	42.472654561759	9
0	221	44.671819427797	8
0	227	44.987705967556	9
0	228	45.266356423631	8
0	233	45.948222782546	7
0	238	47.302741003672	6
0	243	47.99445859159	5
0	247	48.062719125577	6
0	250	48.96223541835	5
0	256	49.400320405914	6
0	258	49.849955189238	5
0	263	51.356190203378	4
0	270	52.731747383761	3
0	275	53.966668959546	2
0	280	55.31054735203	1
0	284	55.855437039078	2
0	287	56.915346726379	1
0	291	58.146661747303	2
0	294	59.115126524243	1
0	298	59.145826390686	2
0	304	60.395813043044	3
0	306	60.679708943229	4
0	307	61.253991172795	3
0	317	64.595743937696	4
0	318	65.130166333186	3
0	323	66.260178617245	2
0	330	67.637228047669	1
0	337	69.404726979463	0
0	341	71.257495585943	1
0	348	73.81643565794	0
0	388	77.554051726763	1
0	390	77.738502102121	2
0	393	78.455117166538	1
0	401	82.986550804822	0
0	407	83.029919341649	1
0	408	83.123380336515	0
0	427	84.889703179663	1
0	432	88.027344497358	2
0	434	88.142383708191	3
0	436	88.550031256143	4
0	438	89.079187790291	5
0	440	89.945238412804	6
0	442	92.045433791452	7
0	444	92.07799535568	8
0	445	92.304357663504	7
0	452	92.827574946194	6
0	457	93.716916280228	5
0	463	94.611407137217	6
0	465	94.98563787799	7
0	469	96.418001220384	8
0	470	96.995315467472	7
0	474	97.527407169902	8
0	476	98.652448415073	9
1	0	0	0
2	0	0	0
2	5	0.802485226615	1
2	7	1.652886462415	2
2	44	10.440918691762	3
2	68	13.083860316862	4
2	98	17.459954417937	5
2	105	17.964349666745	6
2	159	26.72074790264	7
2	215	43.358466535782	8
2	220	44.620342589364	9
2	269	52.442862187735	10
2	300	59.598817884009	11
2	311	62.490813941766	12
2	313	63.977989217958	13
2	329	67.635602094173	14
2	336	69.016341141467	15
2	343	72.515785046699	16
2	347	73.072902337822	17
2	353	74.071949637619	16
2	359	74.73138099332	15
2	364	75.24818108706	14
2	369	75.285850912147	13
2	374	75.864008802236	12
2	379	77.387396351285	11
2	384	77.482752959343	10
2	415	84.158090614044	9
2	420	84.584646245362	8
2	451	92.73873283622	9
2	461	94.273527891893	10
3	17	3.783911004085	3.085746166951
3	22	4.113174257508	1.902465871533
3	33	7.557453343831	5.206113846362
3	47	10.486816781568	4.847197781542
3	52	10.487716406509	3.962344037443
3	57	11.506832856323	4.857614620617
3	62	12.426484587904	4.087384063169
3	71	13.207894492492	4.798962539767
3	80	14.412460377242	1.807656990442
3	87	15.941082177906	2.299234783805
3	101	17.70611722291	3.372750761553
3	116	20.356082539447	5.634293647482
3	124	21.370965782562	4.97055861638
3	129	21.574612475163	5.002349194307
3	137	23.794546428266	7.091308737614
3	142	24.005058350329	5.726911209473
3	147	24.436495307601	5.364282684058
3	152	25.43284666968	6.219834757389
3	157	26.046230924073	5.601315844734
3	174	29.813963500837	6.647196507058
3	189	33.66167246747	6.698786925367
3	195	36.68986054321	9.705468503041
3	200	37.569918102752	10.449605699793
3	211	40.841271864568	12.789987708281
3	223	44.671819427797	14.888940404023
3	230	45.266356423631	14.086200779724
3	235	45.948222782546	14.645550332687
3	240	47.302741003672	15.560161823484
3	245	47.99445859159	15.740486568288
3	252	48.96223541835	16.534257960207
3	260	49.849955189238	11.1147369195
3	265	51.356190203378	11.622222935129
3	272	52.731747383761	12.35788414093
3	277	53.966668959546	11.494014397787
3	282	55.31054735203	10.322841384474
3	289	56.915346726379	8.852627600802
3	296	59.115126524243	9.714806118329
3	309	61.253991172795	5.398554133717
3	320	65.130166333186	6.983504585883
3	325	66.260178617245	7.114352226559
3	332	67.637228047669	7.241415004625
3	339	69.404726979463	8.725018036234
3	350	73.81643565794	9.220691720244
3	355	74.071949637619	2.814454051676
3	361	74.73138099332	73.928895766705
3	366	75.24818108706	73.595294624645
3	371	75.285850912147	64.844932220385
3	376	75.864008802236	62.780148485374
3	381	77.387396351285	59.927441933348
3	386	77.482752959343	59.518403292598
3	395	78.455117166538	51.734369263898
3	403	82.986550804822	5.432499078059
3	410	83.123380336515	5.384878234394
3	417	84.158090614044	1.128171272395
3	422	84.584646245362	41.22617970958
3	447	92.304357663504	47.68401507414
3	454	92.827574946194	7.937871766531
3	459	93.716916280228	5.68957178287
3	472	96.995315467472	8.852931759281
4	17	3.783911004085	3.085746166951
4	22	4.113174257508	1.902465871533
4	33	7.557453343831	5.206113846362
4	47	10.486816781568	4.847197781542
4	52	10.487716406509	3.962344037443
4	57	11.506832856323	4.857614620617
4	62	12.426484587904	4.087384063169
4	71	13.207894492492	4.798962539767
4	80	14.412460377242	1.807656990442
4	87	15.941082177906	2.299234783805
4	101	17.70611722291	3.372750761553
4	116	20.356082539447	5.634293647482
4	124	21.370965782562	4.97055861638
4	129	21.574612475163	5.002349194307
4	137	23.794546428266	7.091308737614
4	142	24.005058350329	5.726911209473
4	147	24.436495307601	5.364282684058
4	152	25.43284666968	6.219834757389
4	157	26.046230924073	5.601315844734
4	174	29.813963500837	6.647196507058
4	189	33.66167246747	6.698786925367
4	195	36.68986054321	9.705468503041
4	200	37.569918102752	10.449605699793
4	211	40.841271864568	12.789987708281
4	223	44.671819427797	14.888940404023
4	230	45.266356423631	14.086200779724
4	235	45.948222782546	14.645550332687
4	240	47.302741003672	15.560161823484
4	245	47.99445859159	15.740486568288
4	252	48.96223541835	16.534257960207
4	260	49.849955189238	11.1147369195
4	265	51.356190203378	11.622222935129
4	272	52.731747383761	12.35788414093
4	277	53.966668959546	11.494014397787
4	282	55.31054735203	10.322841384474
4	289	56.915346726379	8.852627600802
4	296	59.115126524243	9.714806118329
4	309	61.253991172795	5.398554133717
4	320	65.130166333186	6.983504585883
4	325	66.260178617245	7.114352226559
4	332	67.637228047669	7.241415004625
4	339	69.404726979463	8.725018036234
4	350	73.81643565794	9.220691720244
4	355	74.071949637619	2.814454051676
4	403	82.986550804822	5.432499078059
4	410	83.123380336515	5.384878234394
4	417	84.158090614044	1.128171272395
4	454	92.827574946194	7.937871766531
4	459	93.716916280228	5.68957178287
4	472	96.995315467472	8.852931759281
5	361	74.73138099332	73.928895766705
5	366	75.24818108706	73.595294624645
5	371	75.285850912147	64.844932220385
5	376	75.864008802236	62.780148485374
5	381	77.387396351285	59.927441933348
5	386	77.482752959343	59.518403292598
5	395	78.455117166538	51.734369263898
5	422	84.584646245362	41.22617970958
5	447	92.304357663504	47.68401507414

