version 2
run First-n5-3-20191125-12:36:52-9108
attr configname First-n5
attr datetime 20191125-12:36:52
attr experiment First-n5
attr inifile omnetpp.ini
attr iterationvars ""
attr iterationvarsf ""
attr measurement ""
attr network org.omnetpp.queueing.Pizza
attr processid 9108
attr repetition 3
attr replication ""
attr resultdir results_no_transient
attr runnumber 3
attr seedset 3
param **.PS.maxInventoriedPS 5
param **.U1.interArrivalTime exponential(2s)
param **.U2.interArrivalTime exponential(4s)
param **.PS.serviceTimeForInventoryU1 exponential(0.8s)
param **.PS.serviceTimeForInventoryU2 exponential(1.0s)
param **.PS.serviceTimeDirectU1 exponential(1.2s)
param **.PS.serviceTimeDirectU2 exponential(1.4s)
param **.PS.probabilityProducing 0.5
param **.CS.serviceTimeU1 exponential(0.8s)
param **.CS.serviceTimeU2 exponential(1.0s)

vector 0 Pizza.EntryQueueU1 queueLength:vector ETV
attr interpolationmode sample-hold
attr title "queue length, vector"
vector 1 Pizza.CS queueLength:vector ETV
attr interpolationmode sample-hold
attr title "queue length, vector"
vector 2 Pizza.EntryQueueU2 queueLength:vector ETV
attr interpolationmode sample-hold
attr title "queue length, vector"
vector 3 Pizza.sink lifeTime:vector ETV
attr interpolationmode none
attr title "lifetime of arrived jobs, vector"
attr unit s
vector 4 Pizza.sink lifeTimeU2:vector ETV
attr interpolationmode none
attr title "lifetime of arrived jobs, vector"
attr unit s
vector 5 Pizza.sink lifeTimeU1:vector ETV
attr interpolationmode none
attr title "lifetime of arrived jobs, vector"
attr unit s
0	0	0	0
0	5	1.600564781785	1
0	7	2.288095598378	2
0	9	2.54678412136	3
0	12	3.43315566706	2
0	16	3.976864716075	3
0	18	4.014716680362	4
0	20	4.283117778383	5
0	22	4.366076235853	6
0	24	4.830553000791	7
0	28	5.400293863054	8
0	32	5.596735977928	9
0	36	6.640850610252	8
0	42	6.99029768227	7
0	47	7.009716986619	6
0	53	7.970466970357	7
0	57	9.180801071354	6
0	62	9.887511426961	5
0	70	11.069266314761	4
0	75	11.30754414352	3
0	83	12.62259038886	2
0	87	15.242909753639	3
0	90	15.800037452771	2
0	98	17.311169449402	1
0	104	17.515139511956	0
0	111	18.553132227287	1
0	112	18.618300420454	0
0	118	19.243169297665	1
0	120	20.4670620962	0
0	141	21.416652938257	1
0	143	21.599194246301	2
0	149	22.869777600079	1
0	156	23.958624718997	2
0	158	24.191496255297	1
0	164	24.8129273164	0
0	170	24.894157366898	1
0	172	25.201857291807	2
0	173	25.284166159774	1
0	179	25.328863787706	2
0	182	26.600312226748	1
0	187	26.621408981542	0
0	228	33.251455836755	1
0	229	33.434339224217	0
0	269	41.97994299381	1
0	270	42.630413937369	0
0	294	49.678465224012	1
0	299	50.170229905483	2
0	300	50.799177497717	1
0	305	50.830934015767	0
0	318	54.628772634381	1
0	319	54.81095752739	0
0	326	55.276473421824	1
0	327	55.65338567294	0
0	342	56.580400590422	1
0	344	57.724103197763	2
0	349	59.044244778029	1
0	354	59.113450503269	0
0	358	59.308406869404	1
0	365	62.926721145363	0
0	384	65.731571370705	1
0	385	65.890592937725	0
0	418	69.462353882915	1
0	419	70.101709574654	0
0	449	77.783305908237	1
0	450	78.063596035476	0
0	483	87.715281707855	1
0	484	88.965160948892	0
0	490	89.245577438853	1
0	491	89.384447707516	0
0	497	89.770480271705	1
0	498	89.980881105599	0
0	504	92.551304385901	1
0	507	94.665125072686	0
0	511	95.098316270217	1
0	514	95.316345009841	0
0	547	99.379286538903	1
1	0	0	0
2	0	0	0
2	26	5.219433132825	1
2	30	5.430788803539	2
2	51	7.755851531757	3
2	69	11.029369874195	4
2	97	17.091607846497	5
2	125	20.727621288096	4
2	130	20.805799192106	3
2	135	21.030667623037	2
2	147	22.092592866874	3
2	193	27.012308254034	4
2	194	27.137029625613	3
2	199	27.206346931105	2
2	206	27.531139905246	1
2	211	27.669590650292	0
2	244	37.017917156907	1
2	246	37.863941628469	0
2	286	48.378549379617	1
2	287	48.619711158886	0
2	333	55.823641685338	1
2	334	55.910410414825	0
2	340	56.456419435673	1
2	346	58.214963337737	2
2	348	58.505816076317	3
2	360	61.213459288829	4
2	364	62.199097264187	5
2	370	63.287631633951	4
2	378	65.546873076621	3
2	390	66.028205131957	2
2	395	66.395917519515	1
2	402	67.694758199272	0
2	481	87.668094170896	1
2	506	93.982997186264	2
2	519	95.738016469862	1
2	524	96.465308750479	0
2	540	98.805717977745	1
2	541	99.291979537062	0
3	14	3.43315566706	3.139753915202
3	38	6.640850610252	5.040285828467
3	44	6.99029768227	4.702202083892
3	49	7.009716986619	4.462932865259
3	59	9.180801071354	5.203936355279
3	64	9.887511426961	5.872794746599
3	72	11.069266314761	6.786148536378
3	77	11.30754414352	6.941467907667
3	85	12.62259038886	7.792037388069
3	92	15.800037452771	10.399743589717
3	100	17.311169449402	11.714433471474
3	106	17.515139511956	9.544672541599
3	114	18.618300420454	3.375390666815
3	122	20.4670620962	1.913929868913
3	127	20.727621288096	1.484451990431
3	132	20.805799192106	15.586366059281
3	137	21.030667623037	15.599878819498
3	151	22.869777600079	15.113926068322
3	160	24.191496255297	2.77484331704
3	166	24.8129273164	3.213733070099
3	175	25.284166159774	1.325541440777
3	184	26.600312226748	1.70615485985
3	189	26.621408981542	1.419551689735
3	196	27.137029625613	1.808165837907
3	201	27.206346931105	16.17697705691
3	208	27.531139905246	10.439532058749
3	213	27.669590650292	5.576997783418
3	218	29.830465428374	2.81815717434
3	231	33.434339224217	0.982559401208
3	236	34.470974347899	1.219518511144
3	248	37.863941628469	1.185323799679
3	252	38.868150241892	1.850233084985
3	261	40.545148505514	0.174903581824
3	272	42.630413937369	1.293422148988
3	277	44.153307692434	2.173364698624
3	289	48.619711158886	0.283521285436
3	302	50.799177497717	2.4206281181
3	307	50.830934015767	1.152468791755
3	311	51.258655697338	1.088425791855
3	321	54.81095752739	0.234929419551
3	329	55.65338567294	1.024613038559
3	336	55.910410414825	0.633936993001
3	351	59.044244778029	3.220603092691
3	356	59.113450503269	2.533049912847
3	367	62.926721145363	5.2026179476
3	372	63.287631633951	3.979224764547
3	380	65.546873076621	9.090453640948
3	387	65.890592937725	7.675629599988
3	392	66.028205131957	0.296633761252
3	397	66.395917519515	7.890101443198
3	404	67.694758199272	6.481298910443
3	409	68.467952752899	6.268855488712
3	421	70.101709574654	0.973213455743
3	425	70.882974581347	1.420620698432
3	432	72.810046330138	0.139146740603
3	442	74.980003224704	1.392311572379
3	452	78.063596035476	0.956977441862
3	456	78.289252716746	0.505946808509
3	465	82.199826810469	0.302263993029
3	473	86.120154805709	0.450839839014
3	486	88.965160948892	1.450772934381
3	493	89.384447707516	1.669165999661
3	500	89.980881105599	0.735303666746
3	509	94.665125072686	4.894644800981
3	516	95.316345009841	2.76504062394
3	521	95.738016469862	0.639700199645
3	526	96.465308750479	8.797214579583
3	531	97.113352104076	3.130354917812
3	543	99.291979537062	0.521474366877
4	14	3.43315566706	3.139753915202
4	132	20.805799192106	15.586366059281
4	137	21.030667623037	15.599878819498
4	151	22.869777600079	15.113926068322
4	201	27.206346931105	16.17697705691
4	208	27.531139905246	10.439532058749
4	213	27.669590650292	5.576997783418
4	218	29.830465428374	2.81815717434
4	252	38.868150241892	1.850233084985
4	272	42.630413937369	1.293422148988
4	302	50.799177497717	2.4206281181
4	321	54.81095752739	0.234929419551
4	351	59.044244778029	3.220603092691
4	380	65.546873076621	9.090453640948
4	387	65.890592937725	7.675629599988
4	397	66.395917519515	7.890101443198
4	404	67.694758199272	6.481298910443
4	409	68.467952752899	6.268855488712
4	526	96.465308750479	8.797214579583
4	531	97.113352104076	3.130354917812
5	38	6.640850610252	5.040285828467
5	44	6.99029768227	4.702202083892
5	49	7.009716986619	4.462932865259
5	59	9.180801071354	5.203936355279
5	64	9.887511426961	5.872794746599
5	72	11.069266314761	6.786148536378
5	77	11.30754414352	6.941467907667
5	85	12.62259038886	7.792037388069
5	92	15.800037452771	10.399743589717
5	100	17.311169449402	11.714433471474
5	106	17.515139511956	9.544672541599
5	114	18.618300420454	3.375390666815
5	122	20.4670620962	1.913929868913
5	127	20.727621288096	1.484451990431
5	160	24.191496255297	2.77484331704
5	166	24.8129273164	3.213733070099
5	175	25.284166159774	1.325541440777
5	184	26.600312226748	1.70615485985
5	189	26.621408981542	1.419551689735
5	196	27.137029625613	1.808165837907
5	231	33.434339224217	0.982559401208
5	236	34.470974347899	1.219518511144
5	248	37.863941628469	1.185323799679
5	261	40.545148505514	0.174903581824
5	277	44.153307692434	2.173364698624
5	289	48.619711158886	0.283521285436
5	307	50.830934015767	1.152468791755
5	311	51.258655697338	1.088425791855
5	329	55.65338567294	1.024613038559
5	336	55.910410414825	0.633936993001
5	356	59.113450503269	2.533049912847
5	367	62.926721145363	5.2026179476
5	372	63.287631633951	3.979224764547
5	392	66.028205131957	0.296633761252
5	421	70.101709574654	0.973213455743
5	425	70.882974581347	1.420620698432
5	432	72.810046330138	0.139146740603
5	442	74.980003224704	1.392311572379
5	452	78.063596035476	0.956977441862
5	456	78.289252716746	0.505946808509
5	465	82.199826810469	0.302263993029
5	473	86.120154805709	0.450839839014
5	486	88.965160948892	1.450772934381
5	493	89.384447707516	1.669165999661
5	500	89.980881105599	0.735303666746
5	509	94.665125072686	4.894644800981
5	516	95.316345009841	2.76504062394
5	521	95.738016469862	0.639700199645
5	543	99.291979537062	0.521474366877

