version 2
run First-n5-15-20191125-12:37:08-10788
attr configname First-n5
attr datetime 20191125-12:37:08
attr experiment First-n5
attr inifile omnetpp.ini
attr iterationvars ""
attr iterationvarsf ""
attr measurement ""
attr network org.omnetpp.queueing.Pizza
attr processid 10788
attr repetition 15
attr replication ""
attr resultdir results_no_transient
attr runnumber 15
attr seedset 15
param **.PS.maxInventoriedPS 5
param **.U1.interArrivalTime exponential(2s)
param **.U2.interArrivalTime exponential(4s)
param **.PS.serviceTimeForInventoryU1 exponential(0.8s)
param **.PS.serviceTimeForInventoryU2 exponential(1.0s)
param **.PS.serviceTimeDirectU1 exponential(1.2s)
param **.PS.serviceTimeDirectU2 exponential(1.4s)
param **.PS.probabilityProducing 0.5
param **.CS.serviceTimeU1 exponential(0.8s)
param **.CS.serviceTimeU2 exponential(1.0s)

vector 0 Pizza.EntryQueueU1 queueLength:vector ETV
attr interpolationmode sample-hold
attr title "queue length, vector"
vector 1 Pizza.CS queueLength:vector ETV
attr interpolationmode sample-hold
attr title "queue length, vector"
vector 2 Pizza.EntryQueueU2 queueLength:vector ETV
attr interpolationmode sample-hold
attr title "queue length, vector"
vector 3 Pizza.sink lifeTime:vector ETV
attr interpolationmode none
attr title "lifetime of arrived jobs, vector"
attr unit s
vector 4 Pizza.sink lifeTimeU1:vector ETV
attr interpolationmode none
attr title "lifetime of arrived jobs, vector"
attr unit s
vector 5 Pizza.sink lifeTimeU2:vector ETV
attr interpolationmode none
attr title "lifetime of arrived jobs, vector"
attr unit s
0	0	0	0
0	5	4.17274849821	1
0	7	4.284541970041	2
0	9	4.519827285931	3
0	15	5.417214924167	4
0	17	6.14338972316	5
0	22	6.942359780066	4
0	28	7.500111611894	3
0	36	8.688786154527	4
0	37	8.8164932114	3
0	44	9.161625189042	4
0	46	9.242066029311	5
0	48	9.490018313288	6
0	49	9.795606840984	5
0	53	9.936882534884	6
0	60	11.481437250553	5
0	65	11.688471833181	4
0	70	12.189001975725	3
0	76	13.317293734609	2
0	82	14.03695402325	1
0	87	14.817401601139	0
0	140	23.00018522155	1
0	142	23.787877792677	0
0	194	37.874479959351	1
0	195	38.186685284619	0
0	218	42.875123215898	1
0	221	43.08978349838	0
0	298	58.597500721986	1
0	300	58.615671791931	2
0	301	59.259705509269	1
0	306	59.573056948775	0
0	320	60.496203354259	1
0	323	60.722739023241	0
0	345	66.152537335599	1
0	347	66.317409428647	0
0	353	66.354856699112	1
0	356	66.840027774805	2
0	357	67.122668401409	1
0	362	67.492283116747	0
0	383	70.745199365574	1
0	385	71.276663470018	0
0	400	72.849061614126	1
0	401	72.977528966597	0
0	422	77.417685166747	1
0	423	77.43738514467	0
0	494	95.80429284572	1
0	496	96.450760802904	0
1	0	0	0
2	0	0	0
2	20	6.719022018935	1
2	34	7.869211717697	2
2	55	10.064641965508	3
2	92	16.319515186869	2
2	97	16.714090679579	1
2	106	17.000794339774	2
2	109	17.235285745631	1
2	114	17.377580357367	0
2	201	38.233600858179	1
2	204	39.22622618011	2
2	206	42.462426004323	1
2	211	42.72787525288	0
2	220	42.940015357591	1
2	226	43.858663873388	0
2	254	48.859862704347	1
2	256	49.745794188929	2
2	257	49.962759149803	1
2	263	50.686286502197	0
2	322	60.515131904932	1
2	329	62.39790738626	0
2	343	65.268138583166	1
2	368	69.103427676319	0
2	435	79.217769710107	1
2	438	79.340922454829	0
2	462	87.192564244556	1
2	463	87.815772266416	0
3	24	6.942359780066	3.163822100587
3	30	7.500111611894	3.327363113684
3	39	8.8164932114	4.531951241359
3	51	9.795606840984	5.275779555053
3	62	11.481437250553	6.064222326386
3	67	11.688471833181	5.545082110021
3	72	12.189001975725	3.500215821198
3	78	13.317293734609	4.155668545567
3	84	14.03695402325	4.794887993939
3	89	14.817401601139	5.327383287851
3	94	16.319515186869	6.382632651985
3	99	16.714090679579	9.995068660644
3	111	17.235285745631	9.366074027934
3	116	17.377580357367	7.312938391859
3	123	17.675603547185	0.674809207411
3	131	20.773995803142	0.21744087112
3	144	23.787877792677	1.569253729667
3	150	24.15920009833	1.15901487678
3	157	27.56275666422	0.492126259994
3	164	29.934913964106	0.263884746633
3	171	32.814317348042	0.191873155286
3	179	35.14744057594	0.642092985668
3	186	37.181695987848	0.509706230127
3	197	38.186685284619	0.948979292115
3	208	42.462426004323	4.587946044972
3	213	42.72787525288	4.494274394701
3	223	43.08978349838	3.86355731827
3	228	43.858663873388	0.98354065749
3	233	44.794780618435	1.854765260844
3	241	46.309225227117	0.001646110975
3	259	49.962759149803	1.473953298955
3	265	50.686286502197	1.82642379785
3	269	51.680359043618	1.934564854689
3	276	53.183199156903	0.447633451784
3	283	55.588155580047	0.941486100573
3	291	57.634585590286	1.044201748353
3	303	59.259705509269	0.841536113535
3	308	59.573056948775	0.975556226789
3	312	60.00990548709	1.394233695159
3	325	60.722739023241	0.228722115713
3	331	62.39790738626	1.901704032001
3	335	63.289518829429	2.774386924497
3	349	66.317409428647	1.148920855533
3	359	67.122668401409	0.97013106581
3	364	67.492283116747	1.137426417635
3	370	69.103427676319	2.263399901514
3	376	70.236994753973	4.968856170807
3	387	71.276663470018	0.641516287859
3	392	71.41570415507	0.670504789496
3	403	72.977528966597	0.180079576104
3	407	73.032152996142	0.183091382016
3	414	75.191739059386	0.977055186177
3	425	77.43738514467	1.245551245856
3	429	77.541008979934	0.123323813187
3	440	79.340922454829	1.048336202576
3	447	82.435181728072	3.217412017965
3	454	86.054411575113	0.765788828162
3	465	87.815772266416	0.770761647467
3	469	87.90321800557	0.710653761014
3	479	94.046630261824	0.085750575261
3	487	95.301753149328	0.070066154087
3	498	96.450760802904	0.657513414807
3	503	97.625991291991	1.821698446271
4	24	6.942359780066	3.163822100587
4	30	7.500111611894	3.327363113684
4	39	8.8164932114	4.531951241359
4	51	9.795606840984	5.275779555053
4	62	11.481437250553	6.064222326386
4	67	11.688471833181	5.545082110021
4	72	12.189001975725	3.500215821198
4	78	13.317293734609	4.155668545567
4	84	14.03695402325	4.794887993939
4	89	14.817401601139	5.327383287851
4	94	16.319515186869	6.382632651985
4	150	24.15920009833	1.15901487678
4	157	27.56275666422	0.492126259994
4	164	29.934913964106	0.263884746633
4	179	35.14744057594	0.642092985668
4	186	37.181695987848	0.509706230127
4	208	42.462426004323	4.587946044972
4	228	43.858663873388	0.98354065749
4	259	49.962759149803	1.473953298955
4	276	53.183199156903	0.447633451784
4	283	55.588155580047	0.941486100573
4	291	57.634585590286	1.044201748353
4	303	59.259705509269	0.841536113535
4	308	59.573056948775	0.975556226789
4	312	60.00990548709	1.394233695159
4	325	60.722739023241	0.228722115713
4	331	62.39790738626	1.901704032001
4	359	67.122668401409	0.97013106581
4	364	67.492283116747	1.137426417635
4	370	69.103427676319	2.263399901514
4	387	71.276663470018	0.641516287859
4	392	71.41570415507	0.670504789496
4	403	72.977528966597	0.180079576104
4	407	73.032152996142	0.183091382016
4	425	77.43738514467	1.245551245856
4	429	77.541008979934	0.123323813187
4	440	79.340922454829	1.048336202576
4	454	86.054411575113	0.765788828162
4	465	87.815772266416	0.770761647467
4	479	94.046630261824	0.085750575261
4	487	95.301753149328	0.070066154087
4	503	97.625991291991	1.821698446271
5	99	16.714090679579	9.995068660644
5	111	17.235285745631	9.366074027934
5	116	17.377580357367	7.312938391859
5	123	17.675603547185	0.674809207411
5	131	20.773995803142	0.21744087112
5	144	23.787877792677	1.569253729667
5	171	32.814317348042	0.191873155286
5	197	38.186685284619	0.948979292115
5	213	42.72787525288	4.494274394701
5	223	43.08978349838	3.86355731827
5	233	44.794780618435	1.854765260844
5	241	46.309225227117	0.001646110975
5	265	50.686286502197	1.82642379785
5	269	51.680359043618	1.934564854689
5	335	63.289518829429	2.774386924497
5	349	66.317409428647	1.148920855533
5	376	70.236994753973	4.968856170807
5	414	75.191739059386	0.977055186177
5	447	82.435181728072	3.217412017965
5	469	87.90321800557	0.710653761014
5	498	96.450760802904	0.657513414807

