version 2
run First-n5-2-20191125-12:36:51-11216
attr configname First-n5
attr datetime 20191125-12:36:51
attr experiment First-n5
attr inifile omnetpp.ini
attr iterationvars ""
attr iterationvarsf ""
attr measurement ""
attr network org.omnetpp.queueing.Pizza
attr processid 11216
attr repetition 2
attr replication ""
attr resultdir results_no_transient
attr runnumber 2
attr seedset 2
param **.PS.maxInventoriedPS 5
param **.U1.interArrivalTime exponential(2s)
param **.U2.interArrivalTime exponential(4s)
param **.PS.serviceTimeForInventoryU1 exponential(0.8s)
param **.PS.serviceTimeForInventoryU2 exponential(1.0s)
param **.PS.serviceTimeDirectU1 exponential(1.2s)
param **.PS.serviceTimeDirectU2 exponential(1.4s)
param **.PS.probabilityProducing 0.5
param **.CS.serviceTimeU1 exponential(0.8s)
param **.CS.serviceTimeU2 exponential(1.0s)

vector 0 Pizza.EntryQueueU1 queueLength:vector ETV
attr interpolationmode sample-hold
attr title "queue length, vector"
vector 1 Pizza.CS queueLength:vector ETV
attr interpolationmode sample-hold
attr title "queue length, vector"
vector 2 Pizza.EntryQueueU2 queueLength:vector ETV
attr interpolationmode sample-hold
attr title "queue length, vector"
vector 3 Pizza.sink lifeTime:vector ETV
attr interpolationmode none
attr title "lifetime of arrived jobs, vector"
attr unit s
vector 4 Pizza.sink lifeTimeU2:vector ETV
attr interpolationmode none
attr title "lifetime of arrived jobs, vector"
attr unit s
vector 5 Pizza.sink lifeTimeU1:vector ETV
attr interpolationmode none
attr title "lifetime of arrived jobs, vector"
attr unit s
0	0	0	0
0	7	1.145383979254	1
0	12	4.959248770767	0
0	28	7.048072724609	1
0	29	7.153771736524	0
0	35	7.337153272846	1
0	38	7.744913506768	2
0	39	7.860824720863	1
0	45	8.343068566861	2
0	46	8.406174147506	1
0	51	8.472571207911	0
0	55	9.389228817316	1
0	57	10.796618395726	2
0	63	11.501467403698	3
0	65	12.619127755961	4
0	72	12.866161618152	5
0	75	13.211259494398	4
0	81	13.378559445049	5
0	82	13.410342701202	4
0	89	14.293385373831	3
0	97	15.100782772038	4
0	100	16.312615939561	3
0	104	16.508134465713	4
0	106	18.243155519684	5
0	108	18.497651694454	6
0	110	18.851838835295	7
0	114	19.173502554717	8
0	117	22.500210667442	7
0	123	22.998389919513	8
0	124	23.128542205836	7
0	128	23.755931547674	8
0	134	24.354720798551	9
0	135	24.482525469964	8
0	145	27.351938245359	9
0	146	27.698324919738	8
0	150	28.264431299076	9
0	153	29.975263186306	8
0	159	30.460214551157	7
0	163	32.070043566998	8
0	169	37.737042634264	9
0	170	37.858755137447	8
0	175	40.122166977605	7
0	179	40.158648366116	8
0	181	40.52944199695	9
0	185	41.503221302662	8
0	190	41.540625422277	7
0	195	45.771330802125	6
0	203	46.98294198389	7
0	204	47.03096409982	6
0	208	47.764709799372	7
0	212	48.366230243079	8
0	213	48.390271508003	7
0	217	49.367760680342	8
0	220	50.535389666197	7
0	225	51.117987908559	6
0	230	51.837150540552	5
0	237	53.898758065269	4
0	242	54.290953734122	3
0	248	54.589972898463	4
0	249	54.840803197919	3
0	256	55.829682332767	2
0	266	59.507879366971	3
0	267	59.677395051291	2
0	275	60.469419530295	3
0	277	61.201102066254	2
0	282	61.394388189032	1
0	287	62.532973851551	0
0	299	66.802255358657	1
0	301	66.978415714979	0
0	313	68.513368944451	1
0	315	69.018160236113	0
0	321	69.433024238642	1
0	322	70.335087982566	0
0	326	71.226415063729	1
0	328	72.076438612436	2
0	334	73.693731894282	3
0	336	74.217724733406	2
0	342	74.7822742465	3
0	343	76.215814076922	2
0	349	76.657518340633	3
0	350	77.320688115059	2
0	354	78.611528458358	3
0	356	79.000427248717	4
0	359	80.656126304018	3
0	364	81.867421852869	2
0	368	82.638654228853	3
0	370	83.288561691556	4
0	373	83.475525764575	3
0	379	83.852786677332	4
0	384	84.223393867027	3
0	392	85.580323174666	2
0	399	85.847310468388	1
0	404	86.406734730386	0
0	416	87.67778137293	1
0	419	87.991581116526	2
0	422	88.519820174883	3
0	424	88.872567773369	4
0	427	89.224769425246	5
0	432	91.894877824667	4
0	439	92.675864001812	3
0	446	92.846869932633	4
0	448	94.016249047665	3
0	454	94.041102728742	2
0	460	94.753955954665	1
0	465	94.808291002198	0
0	478	95.285905948295	1
0	480	95.347583789818	2
0	481	95.383804567285	1
0	486	95.38587329936	0
0	503	99.526833495161	1
1	0	0	0
2	0	0	0
2	5	0.923744484492	1
2	9	4.114776180093	2
2	20	6.400572828014	1
2	26	6.400777452587	2
2	59	10.996519499536	3
2	61	11.266580370153	4
2	67	12.62455294145	5
2	74	13.030606516214	6
2	88	14.033874155512	7
2	93	14.935174005783	8
2	112	19.026300732865	9
2	130	23.852235796368	10
2	142	26.083527131089	11
2	165	32.814539367826	12
2	201	46.918904417541	13
2	255	55.551859958615	14
2	262	57.674248761471	15
2	264	59.34791283455	16
2	271	59.82654497447	17
2	292	64.844287937813	16
2	306	67.415769160461	15
2	332	72.955892746808	16
2	377	83.544083860687	17
2	381	84.012840865027	18
2	388	85.293988419854	19
2	398	85.683982279272	20
2	410	87.428625205407	19
2	431	91.828581952809	20
2	438	92.040026107397	21
2	472	95.163124087429	20
2	491	95.660346531393	19
2	500	98.455549916527	20
3	14	4.959248770767	4.140577233661
3	22	6.400572828014	5.25518884876
3	31	7.153771736524	6.230027252032
3	41	7.860824720863	0.812751996254
3	48	8.406174147506	1.06902087466
3	53	8.472571207911	0.727657701143
3	77	13.211259494398	4.868190927537
3	84	13.410342701202	4.021113883886
3	91	14.293385373831	3.496766978105
3	102	16.312615939561	4.811148535863
3	119	22.500210667442	9.881082911481
3	126	23.128542205836	10.262380587684
3	137	24.482525469964	11.103966024915
3	148	27.698324919738	12.5975421477
3	155	29.975263186306	13.467128720593
3	161	30.460214551157	12.217059031473
3	172	37.858755137447	19.361103442993
3	177	40.122166977605	21.27032814231
3	187	41.503221302662	22.329718747945
3	192	41.540625422277	18.542235502764
3	197	45.771330802125	22.015399254451
3	206	47.03096409982	22.676243301269
3	215	48.390271508003	21.038333262644
3	222	50.535389666197	22.270958367121
3	227	51.117987908559	19.047944341561
3	232	51.837150540552	14.100107906288
3	239	53.898758065269	13.740109699153
3	244	54.290953734122	13.761511737172
3	251	54.840803197919	7.857861214029
3	258	55.829682332767	8.064972533395
3	269	59.677395051291	11.311164808212
3	279	61.201102066254	11.833341385912
3	284	61.394388189032	6.804415290569
3	289	62.532973851551	3.02509448458
3	294	64.844287937813	4.374868407518
3	303	66.978415714979	62.863639534886
3	308	67.415769160461	0.613513801804
3	317	69.018160236113	62.617382783526
3	324	70.335087982566	1.821719038115
3	338	74.217724733406	4.784700494764
3	345	76.215814076922	4.989399013193
3	352	77.320688115059	5.244249502623
3	361	80.656126304018	6.962394409736
3	366	81.867421852869	7.085147606369
3	375	83.475525764575	6.818007423942
3	386	84.223393867027	5.611865408669
3	394	85.580323174666	6.579895925949
3	401	85.847310468388	3.208656239535
3	406	86.406734730386	3.11817303883
3	412	87.428625205407	3.575838528075
3	434	91.894877824667	80.898358325131
3	441	92.675864001812	4.998082628882
3	450	94.016249047665	6.024667931139
3	456	94.041102728742	5.521282553859
3	462	94.753955954665	5.881388181296
3	467	94.808291002198	5.583521576952
3	474	95.163124087429	2.316254154796
3	483	95.383804567285	84.117224197132
3	488	95.38587329936	0.099967351065
3	493	95.660346531393	0.312762741575
4	14	4.959248770767	4.140577233661
4	31	7.153771736524	6.230027252032
4	303	66.978415714979	62.863639534886
4	317	69.018160236113	62.617382783526
4	434	91.894877824667	80.898358325131
4	483	95.383804567285	84.117224197132
5	22	6.400572828014	5.25518884876
5	41	7.860824720863	0.812751996254
5	48	8.406174147506	1.06902087466
5	53	8.472571207911	0.727657701143
5	77	13.211259494398	4.868190927537
5	84	13.410342701202	4.021113883886
5	91	14.293385373831	3.496766978105
5	102	16.312615939561	4.811148535863
5	119	22.500210667442	9.881082911481
5	126	23.128542205836	10.262380587684
5	137	24.482525469964	11.103966024915
5	148	27.698324919738	12.5975421477
5	155	29.975263186306	13.467128720593
5	161	30.460214551157	12.217059031473
5	172	37.858755137447	19.361103442993
5	177	40.122166977605	21.27032814231
5	187	41.503221302662	22.329718747945
5	192	41.540625422277	18.542235502764
5	197	45.771330802125	22.015399254451
5	206	47.03096409982	22.676243301269
5	215	48.390271508003	21.038333262644
5	222	50.535389666197	22.270958367121
5	227	51.117987908559	19.047944341561
5	232	51.837150540552	14.100107906288
5	239	53.898758065269	13.740109699153
5	244	54.290953734122	13.761511737172
5	251	54.840803197919	7.857861214029
5	258	55.829682332767	8.064972533395
5	269	59.677395051291	11.311164808212
5	279	61.201102066254	11.833341385912
5	284	61.394388189032	6.804415290569
5	289	62.532973851551	3.02509448458
5	294	64.844287937813	4.374868407518
5	308	67.415769160461	0.613513801804
5	324	70.335087982566	1.821719038115
5	338	74.217724733406	4.784700494764
5	345	76.215814076922	4.989399013193
5	352	77.320688115059	5.244249502623
5	361	80.656126304018	6.962394409736
5	366	81.867421852869	7.085147606369
5	375	83.475525764575	6.818007423942
5	386	84.223393867027	5.611865408669
5	394	85.580323174666	6.579895925949
5	401	85.847310468388	3.208656239535
5	406	86.406734730386	3.11817303883
5	412	87.428625205407	3.575838528075
5	441	92.675864001812	4.998082628882
5	450	94.016249047665	6.024667931139
5	456	94.041102728742	5.521282553859
5	462	94.753955954665	5.881388181296
5	467	94.808291002198	5.583521576952
5	474	95.163124087429	2.316254154796
5	488	95.38587329936	0.099967351065
5	493	95.660346531393	0.312762741575

