version 2
run First-n5-8-20191125-12:37:00-7852
attr configname First-n5
attr datetime 20191125-12:37:00
attr experiment First-n5
attr inifile omnetpp.ini
attr iterationvars ""
attr iterationvarsf ""
attr measurement ""
attr network org.omnetpp.queueing.Pizza
attr processid 7852
attr repetition 8
attr replication ""
attr resultdir results_no_transient
attr runnumber 8
attr seedset 8
param **.PS.maxInventoriedPS 5
param **.U1.interArrivalTime exponential(2s)
param **.U2.interArrivalTime exponential(4s)
param **.PS.serviceTimeForInventoryU1 exponential(0.8s)
param **.PS.serviceTimeForInventoryU2 exponential(1.0s)
param **.PS.serviceTimeDirectU1 exponential(1.2s)
param **.PS.serviceTimeDirectU2 exponential(1.4s)
param **.PS.probabilityProducing 0.5
param **.CS.serviceTimeU1 exponential(0.8s)
param **.CS.serviceTimeU2 exponential(1.0s)

vector 0 Pizza.EntryQueueU1 queueLength:vector ETV
attr interpolationmode sample-hold
attr title "queue length, vector"
vector 1 Pizza.CS queueLength:vector ETV
attr interpolationmode sample-hold
attr title "queue length, vector"
vector 2 Pizza.EntryQueueU2 queueLength:vector ETV
attr interpolationmode sample-hold
attr title "queue length, vector"
vector 3 Pizza.sink lifeTime:vector ETV
attr interpolationmode none
attr title "lifetime of arrived jobs, vector"
attr unit s
vector 4 Pizza.sink lifeTimeU2:vector ETV
attr interpolationmode none
attr title "lifetime of arrived jobs, vector"
attr unit s
vector 5 Pizza.sink lifeTimeU1:vector ETV
attr interpolationmode none
attr title "lifetime of arrived jobs, vector"
attr unit s
0	0	0	0
0	29	6.785470659767	1
0	30	7.119043732792	0
0	62	13.295676625039	1
0	64	13.754211075869	0
0	72	14.296222657709	1
0	73	14.330835918042	0
0	121	20.575128599344	1
0	122	22.253187143672	0
0	128	22.262769215755	1
0	129	22.284938834001	0
0	140	22.661653073425	1
0	141	22.740037443131	0
0	148	23.146606033432	1
0	150	23.358186797844	2
0	152	24.235146413359	1
0	158	24.525060239238	2
0	161	26.481235623355	1
0	165	26.495446421476	2
0	169	27.434617070578	3
0	170	28.036956374821	2
0	174	28.65463175214	3
0	177	30.214161873243	2
0	181	30.572802622878	3
0	185	31.034287501025	2
0	192	31.733482721135	3
0	193	32.257432042956	2
0	200	33.242274326254	3
0	201	33.352695056912	2
0	206	33.767237747566	1
0	211	34.688450534907	0
0	282	48.304930451036	1
0	283	50.112390425274	0
0	323	62.380735874606	1
0	324	62.788310176009	0
0	341	64.92185265473	1
0	342	65.083555441014	0
0	355	66.428889259238	1
0	356	66.461894520013	0
0	392	70.4751682038	1
0	393	70.484525695098	0
0	431	74.274160863747	1
0	433	74.288625863066	2
0	439	76.516318511533	1
0	444	77.698172786883	0
0	465	79.143948621044	1
0	467	79.70630069506	2
0	469	80.37567391034	1
0	475	80.43632337701	2
0	478	80.795810124672	1
0	484	81.15374486957	2
0	486	81.430569383975	3
0	489	82.435084902869	2
0	496	83.369593920342	3
0	498	85.44359857242	4
0	500	85.580371933272	5
0	502	85.635176527836	6
0	503	86.52665590021	5
0	508	88.282565190206	4
0	514	88.61951954352	5
0	515	88.673568606446	4
0	521	90.329236986091	3
0	526	90.676176093054	2
0	530	91.049941099651	3
0	532	91.171994333393	4
0	535	93.417037983394	3
0	539	93.822676088241	4
0	543	94.759641634564	5
0	548	95.251473242083	4
0	552	96.161883510154	5
0	554	97.959588219143	6
0	556	98.644064196777	7
1	0	0	0
2	0	0	0
2	70	13.880944737243	1
2	78	14.434656491718	0
2	118	20.023030369978	1
2	134	22.451712766813	0
2	160	26.268909223384	1
2	216	36.730743047967	0
2	312	60.777798219459	1
2	314	61.179857831916	2
2	315	62.167743942279	1
2	330	63.131994553427	2
2	331	63.4307064423	1
2	337	64.111563706708	2
2	348	65.896143517709	1
2	363	66.66584452976	2
2	364	66.80949976343	1
2	369	67.028330883852	0
2	424	73.871524535156	1
2	425	73.929635974881	0
2	436	74.953990932136	1
2	449	78.013789419768	0
2	455	78.03470961552	1
2	457	78.494081374343	0
2	477	80.621473633395	1
2	541	94.692775569303	2
2	545	94.862622378849	3
3	10	1.184731110871	1.140024451117
3	22	5.101173196317	0.967263095015
3	32	7.119043732792	1.364168861757
3	36	7.467138489557	0.68166782979
3	47	8.91650659057	0.197540350679
3	55	13.036307770854	0.161401982963
3	66	13.754211075869	0.60570448658
3	75	14.330835918042	1.035159293003
3	80	14.434656491718	0.138433834009
3	85	14.868034682537	0.987089945294
3	94	15.961451310756	0.385206403955
3	104	17.348726713263	0.813416782219
3	111	19.653330853251	0.929089618169
3	124	22.253187143672	2.36028326505
3	131	22.284938834001	1.709810234657
3	136	22.451712766813	0.188943551058
3	143	22.740037443131	2.717007073153
3	154	24.235146413359	1.573493339934
3	163	26.481235623355	3.334629589923
3	172	28.036956374821	4.678769576977
3	179	30.214161873243	5.689101634005
3	187	31.034287501025	4.538841079549
3	195	32.257432042956	4.822814972378
3	203	33.352695056912	4.698063304772
3	208	33.767237747566	3.194435124688
3	213	34.688450534907	2.954967813772
3	218	36.730743047967	3.488468721713
3	222	36.843708044005	10.574798820621
3	231	37.977531560081	0.227414871813
3	239	39.940889927693	0.645889654639
3	247	41.51432554124	0.600153093495
3	255	42.410333566156	0.566467028987
3	263	43.145777994152	0.271160186934
3	271	44.997097930011	0.188756739848
3	285	50.112390425274	2.017580602378
3	289	52.510862243468	4.205931792432
3	296	53.533051648614	0.488250736452
3	304	55.208216258836	1.133103549198
3	317	62.167743942279	2.163809647682
3	326	62.788310176009	2.01051195655
3	333	63.4307064423	1.049970567694
3	344	65.083555441014	3.903697609098
3	350	65.896143517709	0.974290862979
3	358	66.461894520013	3.329899966586
3	366	66.80949976343	0.380610504192
3	371	67.028330883852	2.916767177144
3	376	67.586985470106	0.921140940346
3	383	68.196236335355	0.366549271269
3	395	70.484525695098	0.108224961108
3	399	70.633980175835	0.158811972035
3	408	71.366225853065	0.637695125819
3	415	72.175137221091	0.072611609995
3	427	73.929635974881	0.573513383887
3	441	76.516318511533	2.644793976377
3	446	77.698172786883	3.424011923136
3	451	78.013789419768	3.725163556702
3	459	78.494081374343	3.540090442207
3	471	80.37567391034	2.34096429482
3	480	80.795810124672	1.651861503628
3	491	82.435084902869	2.728784207809
3	505	86.52665590021	6.0903325232
3	510	88.282565190206	7.128820320636
3	517	88.673568606446	7.242999222471
3	523	90.329236986091	6.959643065749
3	528	90.676176093054	5.232577520634
3	537	93.417037983394	7.836666050122
3	550	95.251473242083	9.616296714247
4	10	1.184731110871	1.140024451117
4	85	14.868034682537	0.987089945294
4	94	15.961451310756	0.385206403955
4	124	22.253187143672	2.36028326505
4	143	22.740037443131	2.717007073153
4	222	36.843708044005	10.574798820621
4	231	37.977531560081	0.227414871813
4	239	39.940889927693	0.645889654639
4	255	42.410333566156	0.566467028987
4	296	53.533051648614	0.488250736452
4	304	55.208216258836	1.133103549198
4	326	62.788310176009	2.01051195655
4	344	65.083555441014	3.903697609098
4	358	66.461894520013	3.329899966586
4	371	67.028330883852	2.916767177144
4	376	67.586985470106	0.921140940346
4	408	71.366225853065	0.637695125819
4	441	76.516318511533	2.644793976377
4	459	78.494081374343	3.540090442207
4	471	80.37567391034	2.34096429482
5	22	5.101173196317	0.967263095015
5	32	7.119043732792	1.364168861757
5	36	7.467138489557	0.68166782979
5	47	8.91650659057	0.197540350679
5	55	13.036307770854	0.161401982963
5	66	13.754211075869	0.60570448658
5	75	14.330835918042	1.035159293003
5	80	14.434656491718	0.138433834009
5	104	17.348726713263	0.813416782219
5	111	19.653330853251	0.929089618169
5	131	22.284938834001	1.709810234657
5	136	22.451712766813	0.188943551058
5	154	24.235146413359	1.573493339934
5	163	26.481235623355	3.334629589923
5	172	28.036956374821	4.678769576977
5	179	30.214161873243	5.689101634005
5	187	31.034287501025	4.538841079549
5	195	32.257432042956	4.822814972378
5	203	33.352695056912	4.698063304772
5	208	33.767237747566	3.194435124688
5	213	34.688450534907	2.954967813772
5	218	36.730743047967	3.488468721713
5	247	41.51432554124	0.600153093495
5	263	43.145777994152	0.271160186934
5	271	44.997097930011	0.188756739848
5	285	50.112390425274	2.017580602378
5	289	52.510862243468	4.205931792432
5	317	62.167743942279	2.163809647682
5	333	63.4307064423	1.049970567694
5	350	65.896143517709	0.974290862979
5	366	66.80949976343	0.380610504192
5	383	68.196236335355	0.366549271269
5	395	70.484525695098	0.108224961108
5	399	70.633980175835	0.158811972035
5	415	72.175137221091	0.072611609995
5	427	73.929635974881	0.573513383887
5	446	77.698172786883	3.424011923136
5	451	78.013789419768	3.725163556702
5	480	80.795810124672	1.651861503628
5	491	82.435084902869	2.728784207809
5	505	86.52665590021	6.0903325232
5	510	88.282565190206	7.128820320636
5	517	88.673568606446	7.242999222471
5	523	90.329236986091	6.959643065749
5	528	90.676176093054	5.232577520634
5	537	93.417037983394	7.836666050122
5	550	95.251473242083	9.616296714247

