version 2
run First-n2-19-20191125-12:37:13-596
attr configname First-n2
attr datetime 20191125-12:37:13
attr experiment First-n2
attr inifile omnetpp.ini
attr iterationvars ""
attr iterationvarsf ""
attr measurement ""
attr network org.omnetpp.queueing.Pizza
attr processid 596
attr repetition 19
attr replication ""
attr resultdir results_no_transient
attr runnumber 19
attr seedset 19
param **.PS.maxInventoriedPS 2
param **.U1.interArrivalTime exponential(2s)
param **.U2.interArrivalTime exponential(4s)
param **.PS.serviceTimeForInventoryU1 exponential(0.8s)
param **.PS.serviceTimeForInventoryU2 exponential(1.0s)
param **.PS.serviceTimeDirectU1 exponential(1.2s)
param **.PS.serviceTimeDirectU2 exponential(1.4s)
param **.PS.probabilityProducing 0.5
param **.CS.serviceTimeU1 exponential(0.8s)
param **.CS.serviceTimeU2 exponential(1.0s)

vector 0 Pizza.EntryQueueU1 queueLength:vector ETV
attr interpolationmode sample-hold
attr title "queue length, vector"
vector 1 Pizza.CS queueLength:vector ETV
attr interpolationmode sample-hold
attr title "queue length, vector"
vector 2 Pizza.EntryQueueU2 queueLength:vector ETV
attr interpolationmode sample-hold
attr title "queue length, vector"
vector 3 Pizza.sink lifeTime:vector ETV
attr interpolationmode none
attr title "lifetime of arrived jobs, vector"
attr unit s
vector 4 Pizza.sink lifeTimeU1:vector ETV
attr interpolationmode none
attr title "lifetime of arrived jobs, vector"
attr unit s
vector 5 Pizza.sink lifeTimeU2:vector ETV
attr interpolationmode none
attr title "lifetime of arrived jobs, vector"
attr unit s
0	0	0	0
0	18	3.069921891541	1
0	20	3.086285159072	2
0	23	4.736737406642	1
0	28	5.37381641914	0
0	54	11.205233952584	1
0	55	11.553586747173	0
0	70	17.048712698567	1
0	71	17.821733937525	0
0	77	17.857160436948	1
0	80	18.092162852118	0
0	93	19.746031762408	1
0	95	20.220529347486	0
0	99	20.693882087365	1
0	104	21.533349393329	2
0	106	21.980395264857	3
0	108	22.070739866065	4
0	110	22.554344804261	3
0	116	22.638959942489	2
0	122	22.721905742737	3
0	126	23.118170646856	4
0	129	24.024474381559	5
0	130	24.787388693349	4
0	135	25.266030014515	3
0	140	25.640675849305	2
0	145	25.861677001347	1
0	149	28.012275464384	2
0	154	31.109753170822	1
0	158	31.225131704076	2
0	162	33.459340375759	3
0	163	33.539426095046	2
0	167	33.756004939745	3
0	170	34.456226982203	2
0	175	36.918618282765	1
0	180	37.30680290204	0
0	184	38.445059901657	1
0	188	39.836871762688	2
0	190	40.988465331525	3
0	195	42.798861938358	2
0	200	43.263019306219	1
0	205	44.343450007353	0
0	209	44.584481299176	1
0	211	44.588528243525	2
0	213	44.868255946149	3
0	217	45.10609490039	4
0	219	46.859136033036	5
0	221	47.485414512293	6
0	225	48.42548375685	7
0	228	49.078421169622	8
0	229	49.817479381035	7
0	234	50.226362578038	6
0	239	52.074754099902	5
0	244	53.973163506292	4
0	248	55.047377645515	5
0	254	58.319677519828	4
0	260	58.662424044432	3
0	265	59.020901301796	2
0	271	59.904271603682	3
0	272	60.233226944602	2
0	277	60.756017448645	1
0	282	61.204875139169	0
0	307	67.221426343531	1
0	309	69.473178083806	2
0	311	69.830720205718	3
0	320	75.216315337107	2
0	325	76.015326471564	1
0	331	76.426158589887	0
0	345	78.031741520613	1
0	346	78.379773896219	0
0	362	81.925405233842	1
0	364	82.08714800653	2
0	367	82.661341255514	1
0	375	83.383893810885	2
0	376	83.481383534544	1
0	382	83.794981283297	0
0	388	84.005292996033	1
0	390	84.174844717279	0
0	403	84.810519245808	1
0	409	86.731903959213	2
0	411	87.480972039299	3
0	412	89.565253834829	2
0	417	91.358401025114	1
0	422	91.702308152839	0
0	426	91.962243996318	1
0	433	93.728757822119	0
0	439	93.864554767824	1
0	443	94.445669717677	2
0	444	94.773677916086	1
0	448	95.39008459277	2
0	451	95.850009472001	1
0	457	97.42922912227	0
0	488	99.325533609386	1
0	490	99.571862110755	2
1	0	0	0
2	0	0	0
2	14	2.415940366881	1
2	16	2.916087520572	2
2	33	5.416346117344	1
2	39	6.095255105513	0
2	79	17.971605188675	1
2	86	19.413482015294	0
2	124	22.914505694728	1
2	151	28.310786568269	2
2	186	39.266747728173	3
2	223	48.410278904048	4
2	250	56.801197005938	5
2	286	61.647223676337	6
2	288	63.003245478132	7
2	292	64.477809885691	6
2	298	66.197257289527	5
2	303	66.602366002442	4
2	313	72.242649630031	5
2	315	72.96811147724	6
2	336	76.589652829275	5
2	351	79.375458193877	4
2	356	81.072665713084	3
2	395	84.198688125767	2
2	405	85.764335415918	3
2	407	86.41856100061	4
2	428	93.25781809642	5
2	430	93.499505424255	6
2	437	93.790776025488	7
2	462	97.507076116637	6
2	469	97.984936445711	5
2	475	98.010382791848	6
2	478	98.18376319574	7
2	479	98.443016042816	6
2	484	98.643017455247	5
2	492	99.618946739513	6
3	7	0.962921035824	0.757673385321
3	25	4.736737406642	2.48497457847
3	30	5.37381641914	2.303894527599
3	35	5.416346117344	2.330060958272
3	41	6.095255105513	3.679314738632
3	45	6.856009149263	3.939921628691
3	57	11.553586747173	2.065648706799
3	61	12.309117298604	1.10388334602
3	73	17.821733937525	3.670588080788
3	82	18.092162852118	1.043450153551
3	88	19.413482015294	1.556321578346
3	97	20.220529347486	2.248924158811
3	112	22.554344804261	2.808313041853
3	118	22.638959942489	1.945077855124
3	132	24.787388693349	3.25403930002
3	137	25.266030014515	3.285634749658
3	142	25.640675849305	3.56993598324
3	147	25.861677001347	3.13977125861
3	156	31.109753170822	7.991582523966
3	165	33.539426095046	9.514951713487
3	172	34.456226982203	6.443951517819
3	177	36.918618282765	5.693486578689
3	182	37.30680290204	3.847462526281
3	197	42.798861938358	9.042856998613
3	202	43.263019306219	4.817959404562
3	207	44.343450007353	4.506578244665
3	231	49.817479381035	8.82901404951
3	236	50.226362578038	5.641881278862
3	241	52.074754099902	7.486225856377
3	246	53.973163506292	9.104907560143
3	256	58.319677519828	13.213582619438
3	262	58.662424044432	11.803288011396
3	267	59.020901301796	11.535486789503
3	274	60.233226944602	11.807743187752
3	279	60.756017448645	11.677596279023
3	284	61.204875139169	6.157497493654
3	294	64.477809885691	4.573538282009
3	300	66.197257289527	43.282751594799
3	305	66.602366002442	38.291579434173
3	322	75.216315337107	35.949567608934
3	327	76.015326471564	8.793900128033
3	333	76.426158589887	6.952980506081
3	338	76.589652829275	6.758932623557
3	348	78.379773896219	29.969494992171
3	353	79.375458193877	1.343716673264
3	358	81.072665713084	24.271468707146
3	369	82.661341255514	21.014117579177
3	378	83.481383534544	1.555978300702
3	384	83.794981283297	1.707833276767
3	392	84.174844717279	0.790950906394
3	397	84.198688125767	0.193395129734
3	414	89.565253834829	26.562008356697
3	419	91.358401025114	6.547881779306
3	424	91.702308152839	4.970404193626
3	435	93.728757822119	6.24778578282
3	446	94.773677916086	2.811433919768
3	453	95.850009472001	1.985454704177
3	459	97.42922912227	2.983559404593
3	464	97.507076116637	2.116991523867
3	471	97.984936445711	25.74228681568
3	481	98.443016042816	25.474904565576
3	486	98.643017455247	12.878682039329
4	7	0.962921035824	0.757673385321
4	30	5.37381641914	2.303894527599
4	35	5.416346117344	2.330060958272
4	61	12.309117298604	1.10388334602
4	82	18.092162852118	1.043450153551
4	88	19.413482015294	1.556321578346
4	112	22.554344804261	2.808313041853
4	118	22.638959942489	1.945077855124
4	132	24.787388693349	3.25403930002
4	137	25.266030014515	3.285634749658
4	142	25.640675849305	3.56993598324
4	147	25.861677001347	3.13977125861
4	156	31.109753170822	7.991582523966
4	165	33.539426095046	9.514951713487
4	172	34.456226982203	6.443951517819
4	177	36.918618282765	5.693486578689
4	182	37.30680290204	3.847462526281
4	197	42.798861938358	9.042856998613
4	202	43.263019306219	4.817959404562
4	207	44.343450007353	4.506578244665
4	231	49.817479381035	8.82901404951
4	236	50.226362578038	5.641881278862
4	241	52.074754099902	7.486225856377
4	246	53.973163506292	9.104907560143
4	256	58.319677519828	13.213582619438
4	262	58.662424044432	11.803288011396
4	267	59.020901301796	11.535486789503
4	274	60.233226944602	11.807743187752
4	279	60.756017448645	11.677596279023
4	284	61.204875139169	6.157497493654
4	294	64.477809885691	4.573538282009
4	327	76.015326471564	8.793900128033
4	333	76.426158589887	6.952980506081
4	338	76.589652829275	6.758932623557
4	353	79.375458193877	1.343716673264
4	378	83.481383534544	1.555978300702
4	384	83.794981283297	1.707833276767
4	392	84.174844717279	0.790950906394
4	397	84.198688125767	0.193395129734
4	419	91.358401025114	6.547881779306
4	424	91.702308152839	4.970404193626
4	435	93.728757822119	6.24778578282
4	446	94.773677916086	2.811433919768
4	453	95.850009472001	1.985454704177
4	459	97.42922912227	2.983559404593
4	464	97.507076116637	2.116991523867
5	25	4.736737406642	2.48497457847
5	41	6.095255105513	3.679314738632
5	45	6.856009149263	3.939921628691
5	57	11.553586747173	2.065648706799
5	73	17.821733937525	3.670588080788
5	97	20.220529347486	2.248924158811
5	300	66.197257289527	43.282751594799
5	305	66.602366002442	38.291579434173
5	322	75.216315337107	35.949567608934
5	348	78.379773896219	29.969494992171
5	358	81.072665713084	24.271468707146
5	369	82.661341255514	21.014117579177
5	414	89.565253834829	26.562008356697
5	471	97.984936445711	25.74228681568
5	481	98.443016042816	25.474904565576
5	486	98.643017455247	12.878682039329

