version 2
run First-n3-2-20191125-12:36:49-7568
attr configname First-n3
attr datetime 20191125-12:36:49
attr experiment First-n3
attr inifile omnetpp.ini
attr iterationvars ""
attr iterationvarsf ""
attr measurement ""
attr network org.omnetpp.queueing.Pizza
attr processid 7568
attr repetition 2
attr replication ""
attr resultdir results_no_transient
attr runnumber 2
attr seedset 2
param **.PS.maxInventoriedPS 3
param **.U1.interArrivalTime exponential(2s)
param **.U2.interArrivalTime exponential(4s)
param **.PS.serviceTimeForInventoryU1 exponential(0.8s)
param **.PS.serviceTimeForInventoryU2 exponential(1.0s)
param **.PS.serviceTimeDirectU1 exponential(1.2s)
param **.PS.serviceTimeDirectU2 exponential(1.4s)
param **.PS.probabilityProducing 0.5
param **.CS.serviceTimeU1 exponential(0.8s)
param **.CS.serviceTimeU2 exponential(1.0s)

vector 0 Pizza.EntryQueueU1 queueLength:vector ETV
attr interpolationmode sample-hold
attr title "queue length, vector"
vector 1 Pizza.CS queueLength:vector ETV
attr interpolationmode sample-hold
attr title "queue length, vector"
vector 2 Pizza.EntryQueueU2 queueLength:vector ETV
attr interpolationmode sample-hold
attr title "queue length, vector"
vector 3 Pizza.sink lifeTime:vector ETV
attr interpolationmode none
attr title "lifetime of arrived jobs, vector"
attr unit s
vector 4 Pizza.sink lifeTimeU2:vector ETV
attr interpolationmode none
attr title "lifetime of arrived jobs, vector"
attr unit s
vector 5 Pizza.sink lifeTimeU1:vector ETV
attr interpolationmode none
attr title "lifetime of arrived jobs, vector"
attr unit s
0	0	0	0
0	7	1.145383979254	1
0	12	4.959248770767	0
0	28	7.048072724609	1
0	29	7.153771736524	0
0	35	7.337153272846	1
0	38	7.744913506768	2
0	39	7.860824720863	1
0	45	8.343068566861	2
0	46	8.406174147506	1
0	51	8.472571207911	0
0	55	9.389228817316	1
0	57	10.796618395726	2
0	63	11.501467403698	3
0	65	12.619127755961	4
0	72	12.866161618152	5
0	75	13.211259494398	4
0	81	13.378559445049	5
0	82	13.410342701202	4
0	89	14.293385373831	3
0	97	15.100782772038	4
0	100	16.312615939561	3
0	104	16.508134465713	4
0	106	18.243155519684	5
0	108	18.497651694454	6
0	110	18.851838835295	7
0	114	19.173502554717	8
0	117	22.500210667442	7
0	123	22.998389919513	8
0	124	23.128542205836	7
0	128	23.755931547674	8
0	134	24.354720798551	9
0	135	24.482525469964	8
0	144	27.351938245359	9
0	145	27.698324919738	8
0	150	28.16611569315	7
0	157	30.6603317572	6
0	161	30.717444363728	7
0	163	30.772602763898	8
0	166	31.015625854604	7
0	170	33.518422733578	8
0	173	36.466865401262	7
0	180	38.042568384743	6
0	185	40.038507944925	5
0	190	40.538390102723	4
0	195	41.51650684069	3
0	200	42.083142643224	2
0	206	43.701683043717	3
0	209	45.881127755354	2
0	213	46.185844187995	3
0	215	46.967612003477	4
0	219	48.580843384289	5
0	220	48.862382997372	4
0	224	49.582373821552	5
0	227	51.007501155566	4
0	232	51.590099397928	3
0	237	52.309262029921	2
0	244	54.370869554638	1
0	249	54.763065223491	0
0	255	54.804586039673	1
0	256	55.312914687288	0
0	291	59.722492508181	1
0	292	60.354233997383	0
0	307	61.888844542288	1
0	310	62.926496160391	0
0	323	65.95268803498	1
0	330	69.245007401113	2
0	331	69.361794447488	1
0	342	74.149858675186	2
0	343	74.536341125168	1
0	352	76.789542677241	2
0	353	77.164037987857	1
0	358	78.034169644265	0
0	362	78.133356078171	1
0	364	78.783263540874	2
0	366	79.34748852665	3
0	378	81.007018908535	2
0	384	81.585671751101	1
0	389	81.852659044823	0
0	419	84.852999331415	1
0	422	85.072604884741	0
0	428	85.205200983292	1
0	429	85.26871421654	0
0	455	87.753619767123	1
0	457	88.036438733523	0
0	479	89.53575283193	1
0	483	90.673177609166	2
0	485	91.527177010329	1
0	490	91.71277293223	0
1	0	0	0
2	0	0	0
2	5	0.923744484492	1
2	9	4.114776180093	2
2	20	6.400572828014	1
2	26	6.400777452587	2
2	59	10.996519499536	3
2	61	11.266580370153	4
2	67	12.62455294145	5
2	74	13.030606516214	6
2	88	14.033874155512	7
2	93	14.935174005783	8
2	112	19.026300732865	9
2	130	23.852235796368	10
2	142	26.083527131089	11
2	154	29.226403351094	12
2	177	36.837627886938	13
2	204	43.280549887973	14
2	261	56.301793822136	13
2	267	57.298326141811	12
2	272	57.674123506362	11
2	278	58.715451029033	10
2	283	58.957058682505	9
2	289	59.614985533376	10
2	298	60.961910529301	9
2	303	61.105728027951	8
2	314	63.20580722022	9
2	316	63.656567728222	10
2	319	65.043844928769	9
2	325	66.791878155197	10
2	335	70.378659805371	11
2	339	72.555744509806	12
2	350	76.306232698072	13
2	368	79.38162870872	14
2	375	80.207891337094	15
2	377	80.597885196512	16
2	395	81.997092842112	17
2	396	82.046239233425	16
2	402	82.6837811605	15
2	407	83.005968918079	14
2	412	83.056071433748	13
2	421	85.015661561009	14
2	436	86.005867489907	15
2	437	86.115505901359	14
2	442	86.376317607986	13
2	446	87.354865453976	14
2	449	87.497687877411	13
2	463	88.112212950406	12
2	470	89.216120381876	11
2	475	89.21870629697	10
2	496	92.232937485299	11
2	497	92.243727159689	10
2	503	94.585018945671	11
2	504	94.896567165024	10
2	510	95.162556047195	9
2	517	96.149393655106	10
2	519	96.192832359766	11
2	521	96.665779412964	10
2	527	97.805298869025	9
2	531	98.98771306401	10
2	534	99.554771499695	9
3	14	4.959248770767	4.140577233661
3	22	6.400572828014	5.25518884876
3	31	7.153771736524	6.230027252032
3	41	7.860824720863	0.812751996254
3	48	8.406174147506	1.06902087466
3	53	8.472571207911	0.727657701143
3	77	13.211259494398	4.868190927537
3	84	13.410342701202	4.021113883886
3	91	14.293385373831	3.496766978105
3	102	16.312615939561	4.811148535863
3	119	22.500210667442	9.881082911481
3	126	23.128542205836	10.262380587684
3	137	24.482525469964	11.103966024915
3	147	27.698324919738	12.5975421477
3	152	28.16611569315	11.657981227437
3	159	30.6603317572	12.417176237516
3	168	31.015625854604	12.51797416015
3	175	36.466865401262	17.615026565967
3	182	38.042568384743	18.869065830026
3	187	40.038507944925	17.040118025412
3	192	40.538390102723	16.782458555049
3	197	41.51650684069	17.161786042139
3	202	42.083142643224	14.731204397865
3	211	45.881127755354	15.163683391626
3	222	48.862382997372	18.089780233474
3	229	51.007501155566	17.489078421988
3	234	51.590099397928	7.888416354211
3	239	52.309262029921	6.123417841926
3	246	54.370869554638	7.403257551161
3	251	54.763065223491	6.182221839202
3	258	55.312914687288	5.730540865736
3	263	56.301793822136	1.497207782463
3	269	57.298326141811	53.183549961718
3	274	57.674123506362	51.273346053775
3	280	58.715451029033	47.718931529497
3	285	58.957058682505	47.690478312352
3	294	60.354233997383	47.729681055933
3	300	60.961910529301	1.23941802112
3	305	61.105728027951	48.075121511737
3	312	62.926496160391	48.892622004879
3	321	65.043844928769	3.155000386481
3	333	69.361794447488	54.426620441705
3	345	74.536341125168	8.583653090188
3	355	77.164037987857	7.919030586744
3	360	78.034169644265	3.884310969079
3	380	81.007018908535	4.217476231294
3	386	81.585671751101	3.45231567293
3	391	81.852659044823	3.069395503949
3	398	82.046239233425	2.698750706775
3	404	82.6837811605	63.657480427635
3	409	83.005968918079	59.153733121711
3	414	83.056071433748	56.972544302659
3	424	85.072604884741	55.846201533647
3	431	85.26871421654	0.415714885125
3	439	86.115505901359	0.910304918067
3	444	86.376317607986	49.538689721048
3	451	87.497687877411	44.217137989438
3	459	88.036438733523	28.421453200147
3	465	88.112212950406	0.358593183283
3	472	89.216120381876	26.010313161656
3	477	89.21870629697	25.562138568748
3	487	91.527177010329	24.735298855132
3	492	91.71277293223	2.1770201003
3	499	92.243727159689	1.570549550523
3	506	94.896567165024	24.517907359653
3	512	95.162556047195	22.606811537389
3	523	96.665779412964	20.359546714892
3	529	97.805298869025	18.423670160305
3	536	99.554771499695	19.346880162601
4	14	4.959248770767	4.140577233661
4	31	7.153771736524	6.230027252032
4	269	57.298326141811	53.183549961718
4	274	57.674123506362	51.273346053775
4	280	58.715451029033	47.718931529497
4	285	58.957058682505	47.690478312352
4	294	60.354233997383	47.729681055933
4	305	61.105728027951	48.075121511737
4	312	62.926496160391	48.892622004879
4	333	69.361794447488	54.426620441705
4	404	82.6837811605	63.657480427635
4	409	83.005968918079	59.153733121711
4	414	83.056071433748	56.972544302659
4	424	85.072604884741	55.846201533647
4	444	86.376317607986	49.538689721048
4	451	87.497687877411	44.217137989438
4	459	88.036438733523	28.421453200147
4	472	89.216120381876	26.010313161656
4	477	89.21870629697	25.562138568748
4	487	91.527177010329	24.735298855132
4	506	94.896567165024	24.517907359653
4	512	95.162556047195	22.606811537389
4	523	96.665779412964	20.359546714892
4	529	97.805298869025	18.423670160305
4	536	99.554771499695	19.346880162601
5	22	6.400572828014	5.25518884876
5	41	7.860824720863	0.812751996254
5	48	8.406174147506	1.06902087466
5	53	8.472571207911	0.727657701143
5	77	13.211259494398	4.868190927537
5	84	13.410342701202	4.021113883886
5	91	14.293385373831	3.496766978105
5	102	16.312615939561	4.811148535863
5	119	22.500210667442	9.881082911481
5	126	23.128542205836	10.262380587684
5	137	24.482525469964	11.103966024915
5	147	27.698324919738	12.5975421477
5	152	28.16611569315	11.657981227437
5	159	30.6603317572	12.417176237516
5	168	31.015625854604	12.51797416015
5	175	36.466865401262	17.615026565967
5	182	38.042568384743	18.869065830026
5	187	40.038507944925	17.040118025412
5	192	40.538390102723	16.782458555049
5	197	41.51650684069	17.161786042139
5	202	42.083142643224	14.731204397865
5	211	45.881127755354	15.163683391626
5	222	48.862382997372	18.089780233474
5	229	51.007501155566	17.489078421988
5	234	51.590099397928	7.888416354211
5	239	52.309262029921	6.123417841926
5	246	54.370869554638	7.403257551161
5	251	54.763065223491	6.182221839202
5	258	55.312914687288	5.730540865736
5	263	56.301793822136	1.497207782463
5	300	60.961910529301	1.23941802112
5	321	65.043844928769	3.155000386481
5	345	74.536341125168	8.583653090188
5	355	77.164037987857	7.919030586744
5	360	78.034169644265	3.884310969079
5	380	81.007018908535	4.217476231294
5	386	81.585671751101	3.45231567293
5	391	81.852659044823	3.069395503949
5	398	82.046239233425	2.698750706775
5	431	85.26871421654	0.415714885125
5	439	86.115505901359	0.910304918067
5	465	88.112212950406	0.358593183283
5	492	91.71277293223	2.1770201003
5	499	92.243727159689	1.570549550523

