version 2
run First-n2-6-20191125-12:36:55-9120
attr configname First-n2
attr datetime 20191125-12:36:55
attr experiment First-n2
attr inifile omnetpp.ini
attr iterationvars ""
attr iterationvarsf ""
attr measurement ""
attr network org.omnetpp.queueing.Pizza
attr processid 9120
attr repetition 6
attr replication ""
attr resultdir results_no_transient
attr runnumber 6
attr seedset 6
param **.PS.maxInventoriedPS 2
param **.U1.interArrivalTime exponential(2s)
param **.U2.interArrivalTime exponential(4s)
param **.PS.serviceTimeForInventoryU1 exponential(0.8s)
param **.PS.serviceTimeForInventoryU2 exponential(1.0s)
param **.PS.serviceTimeDirectU1 exponential(1.2s)
param **.PS.serviceTimeDirectU2 exponential(1.4s)
param **.PS.probabilityProducing 0.5
param **.CS.serviceTimeU1 exponential(0.8s)
param **.CS.serviceTimeU2 exponential(1.0s)

vector 0 Pizza.EntryQueueU1 queueLength:vector ETV
attr interpolationmode sample-hold
attr title "queue length, vector"
vector 1 Pizza.CS queueLength:vector ETV
attr interpolationmode sample-hold
attr title "queue length, vector"
vector 2 Pizza.EntryQueueU2 queueLength:vector ETV
attr interpolationmode sample-hold
attr title "queue length, vector"
vector 3 Pizza.sink lifeTime:vector ETV
attr interpolationmode none
attr title "lifetime of arrived jobs, vector"
attr unit s
vector 4 Pizza.sink lifeTimeU1:vector ETV
attr interpolationmode none
attr title "lifetime of arrived jobs, vector"
attr unit s
vector 5 Pizza.sink lifeTimeU2:vector ETV
attr interpolationmode none
attr title "lifetime of arrived jobs, vector"
attr unit s
0	0	0	0
0	16	5.4836616119	1
0	17	5.708252767279	0
0	24	6.995394588346	1
0	25	7.593883598229	0
0	48	12.235206328741	1
0	49	12.920715944889	0
0	92	20.092839374219	1
0	93	20.143718670683	0
0	104	23.191499241822	1
0	111	26.451503444196	0
0	124	28.731867535212	1
0	130	31.36680091268	2
0	131	31.503906684052	1
0	137	32.38303589615	2
0	139	33.055862849618	1
0	144	33.223987645696	0
0	167	36.284702394757	1
0	169	36.764748897431	0
0	240	50.864163482058	1
0	242	51.302123185932	2
0	244	51.439153045118	3
0	246	52.754120106227	4
0	250	54.192856790711	5
0	252	54.290570481997	6
0	253	54.447793655191	5
0	260	55.285765520509	4
0	265	55.76878710213	3
0	271	56.448247568995	4
0	273	56.905874903024	5
0	276	57.614141627335	4
0	281	57.921027550928	3
0	287	58.575028872782	2
0	294	60.011015311881	1
0	299	60.503916316291	0
0	320	66.356466660118	1
0	321	66.607920054215	0
0	353	70.986184918591	1
0	361	71.672000326168	0
0	394	76.097974784372	1
0	398	77.122122502874	2
0	400	77.343345994621	1
0	407	77.686357258938	2
0	409	77.908900818528	1
0	414	78.736949020602	0
0	418	79.007731081993	1
0	422	82.074204030551	2
0	428	83.193959803317	3
0	433	84.962935590485	4
0	434	86.154234910467	3
0	439	86.693859249216	2
0	443	86.87837042279	3
0	445	87.470828108435	4
0	447	87.509980462932	5
0	449	88.050638224979	6
0	452	88.388893617005	5
0	458	89.948423065818	6
0	459	90.084521575447	5
0	465	90.908970078629	6
0	466	91.516028985528	5
0	471	94.802453891639	4
0	475	95.470159644192	5
0	477	96.061759134646	6
0	479	96.492279687052	7
0	481	97.111311893049	8
0	485	99.779998641376	7
1	0	0	0
2	0	0	0
2	83	19.175311745164	1
2	86	19.848523032693	0
2	97	20.153552580581	1
2	100	22.489671024081	0
2	110	25.539707014035	1
2	116	26.958904568566	0
2	128	31.029441928945	1
2	151	34.530079628871	0
2	164	35.582986131249	1
2	174	37.653271320097	0
2	197	41.442637724416	1
2	198	41.534609639147	0
2	213	42.285099820818	1
2	214	42.378224785661	0
2	235	49.15249982549	1
2	236	49.567895524849	0
2	259	55.19935111023	1
2	291	58.903367676858	2
2	303	60.73772162569	3
2	306	62.690149916986	2
2	311	62.781278717906	1
2	326	67.422549179964	0
2	333	68.350123426804	1
2	334	68.81056691122	0
2	355	71.099189217208	1
2	360	71.578462140576	2
2	366	71.958967191136	1
2	372	72.445930794747	0
2	396	76.416210739271	1
2	420	81.373107062292	2
2	426	83.125561526846	3
2	431	84.869785823492	4
3	7	4.78327863324	0.316038117612
3	19	5.708252767279	0.434138505596
3	27	7.593883598229	2.110221986329
3	31	7.813237092884	0.817842504538
3	40	11.622660076197	1.964546078436
3	51	12.920715944889	1.134769858261
3	57	13.816996660849	1.581790332108
3	64	16.473700752392	0.766683735475
3	71	17.978035997887	1.387501516349
3	78	18.894669848849	0.252679989485
3	88	19.848523032693	0.788218811089
3	95	20.143718670683	0.968406925519
3	102	22.489671024081	2.396831649862
3	113	26.451503444196	6.297950863615
3	118	26.958904568566	3.767405326744
3	133	31.503906684052	5.964199670017
3	141	33.055862849618	4.323995314406
3	146	33.223987645696	1.857186733016
3	153	34.530079628871	2.147043732721
3	157	34.739698940038	3.710257011093
3	171	36.764748897431	1.487491660125
3	176	37.653271320097	1.36856892534
3	180	37.852728404865	2.269742273616
3	188	39.475677066117	0.646471388763
3	200	41.534609639147	0.919663026768
3	204	42.021530522584	0.578892798168
3	216	42.378224785661	0.335681936684
3	220	43.263347659949	0.978247839131
3	227	46.74491018247	2.178839280716
3	238	49.567895524849	0.793260439538
3	255	54.447793655191	5.295293829701
3	262	55.285765520509	4.421602038451
3	267	55.76878710213	4.466663916198
3	278	57.614141627335	6.174988582217
3	283	57.921027550928	5.166907444701
3	289	58.575028872782	4.382172082071
3	296	60.011015311881	5.720444829884
3	301	60.503916316291	4.055668747296
3	308	62.690149916986	5.784275013962
3	313	62.781278717906	7.581927607676
3	323	66.607920054215	7.704552377357
3	328	67.422549179964	1.066082519846
3	336	68.81056691122	8.07284528553
3	341	69.144091198144	0.79396777134
3	348	69.862198693481	0.655340249406
3	363	71.672000326168	1.269483297467
3	368	71.958967191136	0.972782272545
3	374	72.445930794747	1.346741577539
3	378	72.457604512354	0.879142371778
3	386	75.574323129939	0.262771291256
3	402	77.343345994621	1.384024132735
3	411	77.908900818528	1.810926034156
3	416	78.736949020602	1.614826517728
3	436	86.154234910467	8.467877651529
3	441	86.693859249216	7.686128167223
3	454	88.388893617005	6.314689586454
3	461	90.084521575447	6.89056177213
3	468	91.516028985528	6.553093395043
3	473	94.802453891639	7.924083468849
3	487	99.779998641376	12.309170532941
4	7	4.78327863324	0.316038117612
4	19	5.708252767279	0.434138505596
4	27	7.593883598229	2.110221986329
4	31	7.813237092884	0.817842504538
4	40	11.622660076197	1.964546078436
4	57	13.816996660849	1.581790332108
4	64	16.473700752392	0.766683735475
4	71	17.978035997887	1.387501516349
4	88	19.848523032693	0.788218811089
4	102	22.489671024081	2.396831649862
4	118	26.958904568566	3.767405326744
4	141	33.055862849618	4.323995314406
4	146	33.223987645696	1.857186733016
4	153	34.530079628871	2.147043732721
4	171	36.764748897431	1.487491660125
4	176	37.653271320097	1.36856892534
4	200	41.534609639147	0.919663026768
4	238	49.567895524849	0.793260439538
4	262	55.285765520509	4.421602038451
4	267	55.76878710213	4.466663916198
4	278	57.614141627335	6.174988582217
4	283	57.921027550928	5.166907444701
4	289	58.575028872782	4.382172082071
4	296	60.011015311881	5.720444829884
4	301	60.503916316291	4.055668747296
4	308	62.690149916986	5.784275013962
4	328	67.422549179964	1.066082519846
4	348	69.862198693481	0.655340249406
4	363	71.672000326168	1.269483297467
4	368	71.958967191136	0.972782272545
4	386	75.574323129939	0.262771291256
4	402	77.343345994621	1.384024132735
4	411	77.908900818528	1.810926034156
4	416	78.736949020602	1.614826517728
4	436	86.154234910467	8.467877651529
4	441	86.693859249216	7.686128167223
4	454	88.388893617005	6.314689586454
4	461	90.084521575447	6.89056177213
4	468	91.516028985528	6.553093395043
4	473	94.802453891639	7.924083468849
4	487	99.779998641376	12.309170532941
5	51	12.920715944889	1.134769858261
5	78	18.894669848849	0.252679989485
5	95	20.143718670683	0.968406925519
5	113	26.451503444196	6.297950863615
5	133	31.503906684052	5.964199670017
5	157	34.739698940038	3.710257011093
5	180	37.852728404865	2.269742273616
5	188	39.475677066117	0.646471388763
5	204	42.021530522584	0.578892798168
5	216	42.378224785661	0.335681936684
5	220	43.263347659949	0.978247839131
5	227	46.74491018247	2.178839280716
5	255	54.447793655191	5.295293829701
5	313	62.781278717906	7.581927607676
5	323	66.607920054215	7.704552377357
5	336	68.81056691122	8.07284528553
5	341	69.144091198144	0.79396777134
5	374	72.445930794747	1.346741577539
5	378	72.457604512354	0.879142371778

