version 2
run First-n2-15-20191125-12:37:06-9820
attr configname First-n2
attr datetime 20191125-12:37:06
attr experiment First-n2
attr inifile omnetpp.ini
attr iterationvars ""
attr iterationvarsf ""
attr measurement ""
attr network org.omnetpp.queueing.Pizza
attr processid 9820
attr repetition 15
attr replication ""
attr resultdir results_no_transient
attr runnumber 15
attr seedset 15
param **.PS.maxInventoriedPS 2
param **.U1.interArrivalTime exponential(2s)
param **.U2.interArrivalTime exponential(4s)
param **.PS.serviceTimeForInventoryU1 exponential(0.8s)
param **.PS.serviceTimeForInventoryU2 exponential(1.0s)
param **.PS.serviceTimeDirectU1 exponential(1.2s)
param **.PS.serviceTimeDirectU2 exponential(1.4s)
param **.PS.probabilityProducing 0.5
param **.CS.serviceTimeU1 exponential(0.8s)
param **.CS.serviceTimeU2 exponential(1.0s)

vector 0 Pizza.EntryQueueU1 queueLength:vector ETV
attr interpolationmode sample-hold
attr title "queue length, vector"
vector 1 Pizza.CS queueLength:vector ETV
attr interpolationmode sample-hold
attr title "queue length, vector"
vector 2 Pizza.EntryQueueU2 queueLength:vector ETV
attr interpolationmode sample-hold
attr title "queue length, vector"
vector 3 Pizza.sink lifeTime:vector ETV
attr interpolationmode none
attr title "lifetime of arrived jobs, vector"
attr unit s
vector 4 Pizza.sink lifeTimeU1:vector ETV
attr interpolationmode none
attr title "lifetime of arrived jobs, vector"
attr unit s
vector 5 Pizza.sink lifeTimeU2:vector ETV
attr interpolationmode none
attr title "lifetime of arrived jobs, vector"
attr unit s
0	0	0	0
0	5	4.17274849821	1
0	7	4.284541970041	2
0	9	4.519827285931	3
0	15	5.417214924167	4
0	17	6.14338972316	5
0	22	6.942359780066	4
0	27	6.968787968827	3
0	35	7.980824764378	2
0	41	8.688786154527	3
0	42	9.297206363884	2
0	47	9.727320527949	1
0	51	9.786501278433	2
0	53	9.88216594665	3
0	57	11.374736660964	2
0	62	11.747911897949	1
0	67	12.181034733372	0
0	71	12.862329485476	1
0	74	13.20658275034	0
0	99	19.456011303163	1
0	100	19.682253576137	0
0	121	21.407130247884	1
0	124	21.9536006529	0
0	135	25.118609859144	1
0	138	26.984628000474	0
0	147	27.731802824702	1
0	148	27.800815208003	0
0	154	27.839218893273	1
0	155	28.12091783167	0
0	161	28.322640236491	1
0	162	29.04264527935	0
0	168	29.568806072034	1
0	171	29.89202647595	0
0	189	32.707313531367	1
0	190	33.041685238741	0
0	212	38.039579337003	1
0	213	38.300815337858	0
0	277	51.972310306761	1
0	280	52.866442682712	0
0	291	55.70164676591	1
0	294	58.501576621776	0
0	302	60.65400922012	1
0	303	61.060494462507	0
0	307	61.136830388271	1
0	309	62.255914017731	2
0	311	64.19962838019	3
0	314	66.248137285984	2
0	319	67.464796247402	1
0	327	69.216434449054	2
0	329	69.234605518999	3
0	331	69.872634983467	2
0	337	70.019857471542	1
0	342	70.020732050235	0
0	346	71.112950634596	1
0	348	71.684755923879	2
0	351	71.853824985169	1
0	356	72.480255932648	0
0	385	77.341089905219	1
0	387	77.826260980912	2
0	390	78.707736278209	1
0	397	80.318880837781	0
0	459	97.693458123731	1
0	464	99.301255051437	2
0	466	99.510400166321	3
0	468	99.561172026336	4
1	0	0	0
2	0	0	0
2	20	6.719022018935	1
2	34	7.869211717697	2
2	78	15.90037613717	3
2	82	16.935549050308	4
2	83	17.188457864578	3
2	90	17.961403423759	2
2	96	18.63533342211	3
2	106	20.447628735152	4
2	107	20.505652900659	3
2	112	21.021897234894	2
2	117	21.165417552573	1
2	131	24.490124297323	0
2	145	27.457929698426	1
2	170	29.820278732973	2
2	175	30.265541813725	3
2	178	30.615496021787	2
2	183	31.06136504105	1
2	195	34.652024895378	0
2	219	38.406432179077	1
2	220	39.110541858153	0
2	298	59.785135777597	1
2	323	68.9845873998	2
2	360	73.522060000716	3
2	363	75.524385804706	2
2	368	75.549298307219	1
2	374	75.57396171578	2
2	376	76.698219162752	1
2	381	76.836514681703	0
2	420	84.520507005823	1
2	421	85.566225557762	0
2	428	85.811481833231	1
2	429	86.561026433347	0
2	462	98.724782631888	1
3	24	6.942359780066	3.163822100587
3	29	6.968787968827	2.796039470617
3	37	7.980824764378	3.696282794337
3	44	9.297206363884	4.777379077953
3	49	9.727320527949	4.310105603782
3	59	11.374736660964	5.231346937804
3	64	11.747911897949	3.059125743422
3	69	12.181034733372	2.394533454939
3	76	13.20658275034	3.32441680369
3	85	17.188457864578	4.326128379102
3	92	17.961403423759	11.242381404824
3	102	19.682253576137	11.81304185844
3	109	20.505652900659	1.049641597496
3	114	21.021897234894	5.121521097724
3	119	21.165417552573	4.229868502265
3	126	21.9536006529	3.31826723079
3	133	24.490124297323	3.082994049439
3	140	26.984628000474	6.536999265322
3	150	27.800815208003	2.682205348859
3	157	28.12091783167	0.389115006968
3	164	29.04264527935	1.203426386077
3	173	29.89202647595	1.569386239459
3	180	30.615496021787	1.046689949753
3	185	31.06136504105	3.603435342624
3	192	33.041685238741	3.221406505768
3	197	34.652024895378	1.944711364011
3	202	36.510792295503	6.245250481778
3	215	38.300815337858	0.759183433692
3	222	39.110541858153	1.07096252115
3	227	39.903625249812	1.497193070735
3	234	41.131854976842	0.109198606943
3	243	43.537709362943	0.126016655455
3	250	44.484437218612	0.372788049611
3	258	48.212732341899	1.380456530912
3	265	49.080289009476	0.119020854024
3	272	50.618458268458	1.207483544331
3	282	52.866442682712	1.126492910363
3	286	53.572703676583	1.600393369822
3	296	58.501576621776	3.242895598157
3	305	61.060494462507	5.358847696597
3	316	66.248137285984	5.594128065864
3	321	67.464796247402	6.327965859131
3	333	69.872634983467	7.616720965736
3	339	70.019857471542	5.820229091352
3	344	70.020732050235	0.804297601181
3	353	71.853824985169	2.61921946617
3	358	72.480255932648	1.367305298052
3	365	75.524385804706	3.839629880827
3	370	75.549298307219	15.764162529622
3	378	76.698219162752	7.713631762952
3	383	76.836514681703	3.314454680987
3	392	78.707736278209	3.133774562429
3	399	80.318880837781	2.977790932562
3	403	80.411422377977	2.585161397065
3	412	81.788038038014	0.706030828869
3	423	85.566225557762	2.88042762897
3	431	86.561026433347	2.040519427524
3	436	87.811797892571	2.00031605934
3	443	89.26237874266	0.543691388041
3	451	92.93447694536	0.437450542753
4	24	6.942359780066	3.163822100587
4	29	6.968787968827	2.796039470617
4	37	7.980824764378	3.696282794337
4	44	9.297206363884	4.777379077953
4	49	9.727320527949	4.310105603782
4	59	11.374736660964	5.231346937804
4	64	11.747911897949	3.059125743422
4	69	12.181034733372	2.394533454939
4	76	13.20658275034	3.32441680369
4	85	17.188457864578	4.326128379102
4	109	20.505652900659	1.049641597496
4	133	24.490124297323	3.082994049439
4	150	27.800815208003	2.682205348859
4	157	28.12091783167	0.389115006968
4	164	29.04264527935	1.203426386077
4	173	29.89202647595	1.569386239459
4	180	30.615496021787	1.046689949753
4	197	34.652024895378	1.944711364011
4	215	38.300815337858	0.759183433692
4	222	39.110541858153	1.07096252115
4	234	41.131854976842	0.109198606943
4	243	43.537709362943	0.126016655455
4	250	44.484437218612	0.372788049611
4	258	48.212732341899	1.380456530912
4	265	49.080289009476	0.119020854024
4	272	50.618458268458	1.207483544331
4	282	52.866442682712	1.126492910363
4	286	53.572703676583	1.600393369822
4	296	58.501576621776	3.242895598157
4	305	61.060494462507	5.358847696597
4	316	66.248137285984	5.594128065864
4	321	67.464796247402	6.327965859131
4	333	69.872634983467	7.616720965736
4	339	70.019857471542	5.820229091352
4	344	70.020732050235	0.804297601181
4	353	71.853824985169	2.61921946617
4	358	72.480255932648	1.367305298052
4	365	75.524385804706	3.839629880827
4	399	80.318880837781	2.977790932562
4	403	80.411422377977	2.585161397065
4	412	81.788038038014	0.706030828869
4	423	85.566225557762	2.88042762897
4	443	89.26237874266	0.543691388041
5	92	17.961403423759	11.242381404824
5	102	19.682253576137	11.81304185844
5	114	21.021897234894	5.121521097724
5	119	21.165417552573	4.229868502265
5	126	21.9536006529	3.31826723079
5	140	26.984628000474	6.536999265322
5	185	31.06136504105	3.603435342624
5	192	33.041685238741	3.221406505768
5	202	36.510792295503	6.245250481778
5	227	39.903625249812	1.497193070735
5	370	75.549298307219	15.764162529622
5	378	76.698219162752	7.713631762952
5	383	76.836514681703	3.314454680987
5	392	78.707736278209	3.133774562429
5	431	86.561026433347	2.040519427524
5	436	87.811797892571	2.00031605934
5	451	92.93447694536	0.437450542753

