version 2
run First-n5-0-20191125-12:36:49-11136
attr configname First-n5
attr datetime 20191125-12:36:49
attr experiment First-n5
attr inifile omnetpp.ini
attr iterationvars ""
attr iterationvarsf ""
attr measurement ""
attr network org.omnetpp.queueing.Pizza
attr processid 11136
attr repetition 0
attr replication ""
attr resultdir results_no_transient
attr runnumber 0
attr seedset 0
param **.PS.maxInventoriedPS 5
param **.U1.interArrivalTime exponential(2s)
param **.U2.interArrivalTime exponential(4s)
param **.PS.serviceTimeForInventoryU1 exponential(0.8s)
param **.PS.serviceTimeForInventoryU2 exponential(1.0s)
param **.PS.serviceTimeDirectU1 exponential(1.2s)
param **.PS.serviceTimeDirectU2 exponential(1.4s)
param **.PS.probabilityProducing 0.5
param **.CS.serviceTimeU1 exponential(0.8s)
param **.CS.serviceTimeU2 exponential(1.0s)

vector 0 Pizza.EntryQueueU1 queueLength:vector ETV
attr interpolationmode sample-hold
attr title "queue length, vector"
vector 1 Pizza.CS queueLength:vector ETV
attr interpolationmode sample-hold
attr title "queue length, vector"
vector 2 Pizza.EntryQueueU2 queueLength:vector ETV
attr interpolationmode sample-hold
attr title "queue length, vector"
vector 3 Pizza.sink lifeTime:vector ETV
attr interpolationmode none
attr title "lifetime of arrived jobs, vector"
attr unit s
vector 4 Pizza.sink lifeTimeU1:vector ETV
attr interpolationmode none
attr title "lifetime of arrived jobs, vector"
attr unit s
0	0	0	0
0	9	4.103610525227	1
0	12	5.205707498568	2
0	13	5.326445306984	1
0	18	6.063776078518	0
0	22	6.175963826011	1
0	24	6.812676107695	2
0	28	7.779880317592	3
0	34	10.713217096752	2
0	38	10.917672552838	3
0	40	11.065043263768	4
0	42	11.888199256253	5
0	44	12.070521308502	6
0	49	14.159746325118	7
0	50	14.313250344633	6
0	56	14.462208032448	7
0	58	15.745626377804	8
0	63	17.389427839946	7
0	68	18.238334087306	6
0	74	18.956105491927	7
0	77	19.561101447981	6
0	86	20.431760075439	7
0	88	20.919857056912	8
0	91	21.394384172855	7
0	96	21.595537718515	6
0	101	21.986383357961	5
0	107	22.600526468136	6
0	109	24.890804377536	7
0	112	25.899507308887	6
0	116	26.086296531173	7
0	118	28.478512130087	8
0	120	28.687634581637	9
0	124	28.81186516257	10
0	125	29.570258556961	9
0	131	30.929533425545	10
0	134	31.205590802402	11
0	135	31.257698714682	10
0	140	31.619380362862	9
0	146	31.963514730967	10
0	148	32.041881043793	11
0	152	33.196529665406	12
0	157	35.654712908568	11
0	162	36.076605567439	10
0	166	39.582422949513	11
0	170	41.699908379701	12
0	172	42.284069446235	13
0	175	42.732947594514	12
0	179	43.354198800402	13
0	183	43.700453712694	14
0	187	43.934364532279	15
0	189	44.697476219027	16
0	190	44.759642241119	15
0	194	44.994900757531	16
0	198	45.432661950546	17
0	200	46.352689866027	18
0	203	46.578536303791	17
0	208	48.156965297049	16
0	212	48.525228627784	17
0	214	48.727298178402	18
0	217	51.184999576588	17
0	222	54.953345319866	16
0	227	55.502095140888	15
0	231	55.874474923091	16
0	233	55.914855179383	17
0	235	55.9948077775	18
0	241	57.160564555234	19
0	242	57.21763487972	18
0	249	58.051403479074	19
0	252	58.572545008217	18
0	259	59.121172230588	19
0	260	59.515896629869	18
0	265	59.762628501947	17
0	271	60.793367294529	18
0	273	60.990667911366	19
0	274	62.604591912189	18
0	279	63.894339013901	17
0	285	65.83247339162	16
0	291	66.071276927283	17
0	293	66.754585261335	18
0	294	67.30549936881	17
0	298	67.36962070886	18
0	301	68.192157814932	17
0	311	68.384020955373	18
0	312	68.585917482323	17
0	322	70.649289239318	18
0	323	70.660623419901	17
0	330	72.02882277834	16
0	337	73.784108472535	15
0	342	76.528837789511	14
0	346	77.199575594748	15
0	352	78.384823649652	16
0	358	80.789300784145	17
0	359	80.970772612345	16
0	367	83.702937901273	17
0	372	84.277758853413	18
0	373	84.691478774654	17
0	380	85.63498512157	16
0	385	87.741915812851	15
0	389	88.547419753379	16
0	392	89.058005777015	15
0	399	90.234964731834	14
0	405	91.265455283263	13
0	411	91.652363832535	12
0	416	92.100332688594	11
0	428	94.798356468695	12
0	429	94.978892225553	11
0	437	96.585814625306	12
0	441	98.697513842625	13
0	442	98.719982991889	12
0	451	99.002101093134	13
0	452	99.177952233032	12
0	458	99.605232919581	13
0	459	99.794013720669	12
0	464	99.877919189149	11
1	0	0	0
2	0	0	0
2	5	3.594241553936	1
2	26	7.287134079819	2
2	30	9.884919472822	3
2	61	16.573764274122	4
2	76	19.513621958881	5
2	81	19.961406601412	6
2	105	22.528185409537	7
2	144	31.843838906394	8
2	154	35.221550080505	9
2	156	35.652090513129	10
2	168	39.883396166538	11
2	181	43.371059581041	12
2	196	45.021064500731	13
2	237	56.969824068139	14
2	251	58.299465031994	15
2	307	68.315112164335	16
2	309	68.333938326304	17
2	316	68.967304351226	18
2	320	70.226190994645	19
2	329	71.587577947586	20
2	336	73.604953173937	21
2	348	77.679588094012	22
2	354	80.06510567133	23
2	356	80.559212260778	24
2	363	81.971292793875	25
2	370	84.094182780341	26
2	379	85.597138149968	27
2	396	89.148583791715	28
2	420	93.006398053691	29
2	422	93.588693967482	30
2	424	94.022882361461	31
2	433	95.439778890443	32
2	449	98.856097833015	33
3	15	5.326445306984	3.734696297852
3	20	6.063776078518	1.960165553291
3	36	10.713217096752	5.507509598184
3	52	14.313250344633	8.137286518622
3	65	17.389427839946	10.576751732251
3	70	18.238334087306	10.458453769714
3	79	19.561101447981	8.643428895143
3	93	21.394384172855	10.329340909087
3	98	21.595537718515	9.707338462262
3	103	21.986383357961	9.915862049459
3	114	25.899507308887	11.739760983769
3	127	29.570258556961	15.108050524513
3	137	31.257698714682	15.512072336878
3	142	31.619380362862	12.663274870935
3	159	35.654712908568	15.222952833129
3	164	36.076605567439	15.156748510527
3	177	42.732947594514	20.132421126378
3	192	44.759642241119	19.868837863583
3	205	46.578536303791	20.492239772618
3	210	48.156965297049	19.678453166962
3	219	51.184999576588	22.497364994951
3	224	54.953345319866	26.141480157296
3	229	55.502095140888	24.572561715343
3	244	57.21763487972	26.012044077318
3	254	58.572545008217	26.60903027725
3	262	59.515896629869	27.474015586076
3	267	59.762628501947	26.566098836541
3	276	62.604591912189	23.022168962676
3	281	63.894339013901	22.1944306342
3	287	65.83247339162	23.548403945385
3	296	67.30549936881	23.951300568408
3	303	68.192157814932	24.491704102238
3	314	68.585917482323	24.651552950044
3	325	70.660623419901	25.963147200874
3	332	72.02882277834	27.033922020809
3	339	73.784108472535	28.351446521989
3	344	76.528837789511	30.176147923484
3	361	80.970772612345	32.445543984561
3	375	84.691478774654	35.964180596252
3	382	85.63498512157	29.760510198479
3	387	87.741915812851	31.827060633468
3	394	89.058005777015	33.063197999515
3	401	90.234964731834	33.0744001766
3	407	91.265455283263	33.214051804189
3	413	91.652363832535	32.531191601947
3	418	92.100332688594	31.306965394065
3	431	94.978892225553	33.988224314187
3	444	98.719982991889	32.648706064606
3	454	99.177952233032	32.423366971697
3	461	99.794013720669	32.424393011809
3	466	99.877919189149	31.493898233776
4	15	5.326445306984	3.734696297852
4	20	6.063776078518	1.960165553291
4	36	10.713217096752	5.507509598184
4	52	14.313250344633	8.137286518622
4	65	17.389427839946	10.576751732251
4	70	18.238334087306	10.458453769714
4	79	19.561101447981	8.643428895143
4	93	21.394384172855	10.329340909087
4	98	21.595537718515	9.707338462262
4	103	21.986383357961	9.915862049459
4	114	25.899507308887	11.739760983769
4	127	29.570258556961	15.108050524513
4	137	31.257698714682	15.512072336878
4	142	31.619380362862	12.663274870935
4	159	35.654712908568	15.222952833129
4	164	36.076605567439	15.156748510527
4	177	42.732947594514	20.132421126378
4	192	44.759642241119	19.868837863583
4	205	46.578536303791	20.492239772618
4	210	48.156965297049	19.678453166962
4	219	51.184999576588	22.497364994951
4	224	54.953345319866	26.141480157296
4	229	55.502095140888	24.572561715343
4	244	57.21763487972	26.012044077318
4	254	58.572545008217	26.60903027725
4	262	59.515896629869	27.474015586076
4	267	59.762628501947	26.566098836541
4	276	62.604591912189	23.022168962676
4	281	63.894339013901	22.1944306342
4	287	65.83247339162	23.548403945385
4	296	67.30549936881	23.951300568408
4	303	68.192157814932	24.491704102238
4	314	68.585917482323	24.651552950044
4	325	70.660623419901	25.963147200874
4	332	72.02882277834	27.033922020809
4	339	73.784108472535	28.351446521989
4	344	76.528837789511	30.176147923484
4	361	80.970772612345	32.445543984561
4	375	84.691478774654	35.964180596252
4	382	85.63498512157	29.760510198479
4	387	87.741915812851	31.827060633468
4	394	89.058005777015	33.063197999515
4	401	90.234964731834	33.0744001766
4	407	91.265455283263	33.214051804189
4	413	91.652363832535	32.531191601947
4	418	92.100332688594	31.306965394065
4	431	94.978892225553	33.988224314187
4	444	98.719982991889	32.648706064606
4	454	99.177952233032	32.423366971697
4	461	99.794013720669	32.424393011809
4	466	99.877919189149	31.493898233776

