version 2
run First-n4-12-20191125-12:37:03-10404
attr configname First-n4
attr datetime 20191125-12:37:03
attr experiment First-n4
attr inifile omnetpp.ini
attr iterationvars ""
attr iterationvarsf ""
attr measurement ""
attr network org.omnetpp.queueing.Pizza
attr processid 10404
attr repetition 12
attr replication ""
attr resultdir results_no_transient
attr runnumber 12
attr seedset 12
param **.PS.maxInventoriedPS 4
param **.U1.interArrivalTime exponential(2s)
param **.U2.interArrivalTime exponential(4s)
param **.PS.serviceTimeForInventoryU1 exponential(0.8s)
param **.PS.serviceTimeForInventoryU2 exponential(1.0s)
param **.PS.serviceTimeDirectU1 exponential(1.2s)
param **.PS.serviceTimeDirectU2 exponential(1.4s)
param **.PS.probabilityProducing 0.5
param **.CS.serviceTimeU1 exponential(0.8s)
param **.CS.serviceTimeU2 exponential(1.0s)

vector 0 Pizza.EntryQueueU1 queueLength:vector ETV
attr interpolationmode sample-hold
attr title "queue length, vector"
vector 1 Pizza.CS queueLength:vector ETV
attr interpolationmode sample-hold
attr title "queue length, vector"
vector 2 Pizza.EntryQueueU2 queueLength:vector ETV
attr interpolationmode sample-hold
attr title "queue length, vector"
vector 3 Pizza.sink lifeTime:vector ETV
attr interpolationmode none
attr title "lifetime of arrived jobs, vector"
attr unit s
vector 4 Pizza.sink lifeTimeU1:vector ETV
attr interpolationmode none
attr title "lifetime of arrived jobs, vector"
attr unit s
vector 5 Pizza.sink lifeTimeU2:vector ETV
attr interpolationmode none
attr title "lifetime of arrived jobs, vector"
attr unit s
0	0	0	0
0	9	3.02938641821	1
0	11	3.058750860014	2
0	19	3.843532611707	1
0	25	3.92178884275	2
0	28	4.110600934278	1
0	32	6.175797446328	2
0	37	9.048434481314	1
0	43	9.94355337748	0
0	58	11.948661382188	1
0	60	12.195875608752	2
0	62	12.701430475379	3
0	63	13.430108750074	2
0	67	13.44326098846	3
0	70	15.067873206	2
0	74	15.669409597735	3
0	79	17.143878737385	2
0	85	17.654482325627	3
0	89	18.448195275745	4
0	92	18.795535541621	3
0	96	19.263071977253	4
0	99	20.123001960593	3
0	104	22.504296195547	2
0	110	23.880363158359	1
0	115	25.971366869854	0
0	130	27.882282457414	1
0	134	29.135159848982	2
0	135	29.140042621009	1
0	141	29.206762974756	2
0	143	29.385157001702	1
0	148	30.420454461754	0
0	177	31.844189149511	1
0	184	33.8968361653	2
0	185	34.240165563254	1
0	191	34.649954955864	2
0	192	34.984837797706	1
0	200	35.454243029514	0
0	211	36.725399977592	1
0	213	36.878017776154	2
0	214	37.074857195613	1
0	219	37.100174460464	0
0	223	37.814798999549	1
0	229	40.00358601321	2
0	231	40.039864990767	3
0	234	41.151813917138	2
0	239	42.124505404742	1
0	245	44.007621028144	2
0	248	45.333015733271	1
0	257	45.939757010515	2
0	260	47.15255152437	3
0	261	48.319935003647	2
0	266	48.396456117764	1
0	278	50.239352584558	0
0	289	51.0450397654	1
0	292	51.3742557561	0
0	307	52.932399895599	1
0	308	53.575382590111	0
0	315	54.059208487138	1
0	317	55.069658881034	0
0	323	55.090373027445	1
0	325	55.962582305895	0
0	331	56.176433116349	1
0	333	56.852261758985	0
0	342	56.988861343952	1
0	346	57.660551387058	2
0	350	58.732580376926	3
0	351	58.739562284867	2
0	356	58.803071992898	1
0	361	59.077201644276	0
0	388	64.070509097631	1
0	392	64.247381548962	2
0	396	64.976875733835	1
0	401	65.125841341913	0
0	452	71.17044418303	1
0	454	71.197330941179	2
0	459	73.530022324434	1
0	467	74.50119283189	0
0	490	79.966804365418	1
0	492	79.985049690253	2
0	501	82.705663359555	3
0	504	84.827956432778	2
0	509	84.967080290081	1
0	514	85.252303741057	0
0	525	85.688441780554	1
0	528	86.026865261272	2
0	529	86.576000480349	1
0	535	86.628582218214	2
0	536	87.2075039209	1
0	541	87.882558702968	0
0	545	90.135198562564	1
0	550	91.131025653736	0
0	554	91.649516533653	1
0	557	92.356671971323	0
0	561	93.872447122663	1
0	563	94.97593568794	2
0	565	95.281208975569	3
0	567	96.507707803748	4
0	569	96.560985206544	5
0	571	96.738855828896	6
0	574	97.571920776907	5
0	579	98.010021600934	4
0	586	99.483187187648	5
0	588	99.880940915831	6
1	0	0	0
2	0	0	0
2	5	2.363963738832	1
2	15	3.586343385559	2
2	17	3.722314146963	3
2	27	4.066831363123	4
2	34	7.793293386774	5
2	47	10.420787444956	6
2	51	11.81432381633	5
2	76	16.267172693535	6
2	83	17.634806653107	7
2	87	18.353074594156	8
2	121	26.399505489688	9
2	122	26.496142630954	8
2	132	28.573246974687	9
2	154	30.922858722625	8
2	160	31.663613516088	7
2	166	31.713422089076	6
2	171	31.834010991405	5
2	179	31.95611789316	6
2	199	35.363687617795	7
2	205	35.641303840328	6
2	225	38.948105941614	7
2	227	39.50237734117	8
2	243	43.560037292019	9
2	252	45.77536199914	10
2	273	49.47393236563	11
2	275	49.668913181675	12
2	277	49.692620731677	13
2	283	50.628541285538	12
2	291	51.227110916238	13
2	296	52.304759980936	14
2	299	52.530610643808	13
2	305	52.870528723447	14
2	338	56.895859649841	13
2	366	59.646362915024	12
2	372	61.930116354777	11
2	378	62.566560074417	12
2	380	62.598702240651	13
2	382	62.876641967732	12
2	386	62.940889374648	13
2	395	64.556308925912	14
2	408	65.693595650333	15
2	409	65.949707423768	14
2	415	66.848304031419	13
2	421	67.880378889181	12
2	426	67.880801211597	11
2	434	68.39447085643	12
2	436	68.906481660348	11
2	441	69.327230470078	10
2	447	69.433699701789	11
2	448	69.881621474231	10
2	456	73.287152643751	11
2	472	74.704340461329	10
2	477	75.199143816632	9
2	482	75.291275852369	8
2	486	76.704482251282	9
2	488	77.125443156833	10
2	519	85.582153575159	9
2	549	91.044118249543	10
3	21	3.843532611707	3.50867576754
3	30	4.110600934278	1.081214516068
3	39	9.048434481314	5.9896836213
3	45	9.94355337748	6.02176453473
3	53	11.81432381633	5.638526370002
3	65	13.430108750074	11.066145011242
3	72	15.067873206	3.119211823812
3	81	17.143878737385	4.948003128633
3	94	18.795535541621	6.094105066242
3	101	20.123001960593	6.679740972133
3	106	22.504296195547	6.834886597812
3	112	23.880363158359	6.225880832732
3	117	25.971366869854	7.523171594109
3	124	26.496142630954	7.233070653701
3	137	29.140042621009	25.55369923545
3	145	29.385157001702	1.502874544288
3	150	30.420454461754	1.285294612772
3	156	30.922858722625	1.716095747869
3	162	31.663613516088	27.941299369125
3	168	31.713422089076	27.646590725953
3	173	31.834010991405	24.040717604631
3	187	34.240165563254	23.819378118298
3	194	34.984837797706	3.140648648195
3	202	35.454243029514	1.557406864214
3	207	35.641303840328	0.991348884464
3	216	37.074857195613	20.807684502078
3	221	37.100174460464	0.374774482872
3	236	41.151813917138	4.273796140984
3	241	42.124505404742	4.309706405193
3	250	45.333015733271	5.329429720061
3	263	48.319935003647	8.28007001288
3	268	48.396456117764	4.38883508962
3	280	50.239352584558	4.299595574043
3	285	50.628541285538	3.475989761168
3	294	51.3742557561	33.739449102993
3	301	52.530610643808	1.485570878408
3	310	53.575382590111	35.222307995955
3	319	55.069658881034	2.137258985435
3	327	55.962582305895	1.903373818757
3	335	56.852261758985	1.76188873154
3	340	56.895859649841	0.719426533492
3	353	58.739562284867	32.340056795179
3	358	58.803071992898	1.814210648946
3	363	59.077201644276	1.416650257218
3	368	59.646362915024	0.913782538098
3	374	61.930116354777	33.35686938009
3	384	62.876641967732	30.920524074572
3	398	64.976875733835	29.61318811604
3	403	65.125841341913	1.055332244282
3	411	65.949707423768	1.702325874806
3	417	66.848304031419	27.900198089805
3	423	67.880378889181	28.378001548011
3	428	67.880801211597	24.320763919578
3	438	68.906481660348	23.131119661208
3	443	69.327230470078	19.853298104448
3	450	69.881621474231	20.212708292556
3	461	73.530022324434	23.837401592757
3	469	74.50119283189	3.33074864886
3	474	74.704340461329	3.50700952015
3	479	75.199143816632	23.972032900394
3	484	75.291275852369	22.986515871433
3	506	84.827956432778	31.957427709331
3	511	84.967080290081	5.000275924663
3	516	85.252303741057	5.267254050804
3	521	85.582153575159	2.876490215604
3	531	86.576000480349	24.009440405932
3	538	87.2075039209	1.519062140346
3	543	87.882558702968	1.855693441696
3	552	91.131025653736	4.502443435522
3	559	92.356671971323	2.221473408759
3	576	97.571920776907	5.922404243254
3	581	98.010021600934	4.137574478271
4	21	3.843532611707	3.50867576754
4	30	4.110600934278	1.081214516068
4	39	9.048434481314	5.9896836213
4	45	9.94355337748	6.02176453473
4	53	11.81432381633	5.638526370002
4	72	15.067873206	3.119211823812
4	81	17.143878737385	4.948003128633
4	94	18.795535541621	6.094105066242
4	101	20.123001960593	6.679740972133
4	106	22.504296195547	6.834886597812
4	112	23.880363158359	6.225880832732
4	117	25.971366869854	7.523171594109
4	124	26.496142630954	7.233070653701
4	145	29.385157001702	1.502874544288
4	150	30.420454461754	1.285294612772
4	156	30.922858722625	1.716095747869
4	194	34.984837797706	3.140648648195
4	202	35.454243029514	1.557406864214
4	207	35.641303840328	0.991348884464
4	221	37.100174460464	0.374774482872
4	236	41.151813917138	4.273796140984
4	241	42.124505404742	4.309706405193
4	250	45.333015733271	5.329429720061
4	263	48.319935003647	8.28007001288
4	268	48.396456117764	4.38883508962
4	280	50.239352584558	4.299595574043
4	285	50.628541285538	3.475989761168
4	301	52.530610643808	1.485570878408
4	319	55.069658881034	2.137258985435
4	327	55.962582305895	1.903373818757
4	335	56.852261758985	1.76188873154
4	340	56.895859649841	0.719426533492
4	358	58.803071992898	1.814210648946
4	363	59.077201644276	1.416650257218
4	368	59.646362915024	0.913782538098
4	403	65.125841341913	1.055332244282
4	411	65.949707423768	1.702325874806
4	469	74.50119283189	3.33074864886
4	474	74.704340461329	3.50700952015
4	511	84.967080290081	5.000275924663
4	516	85.252303741057	5.267254050804
4	521	85.582153575159	2.876490215604
4	538	87.2075039209	1.519062140346
4	543	87.882558702968	1.855693441696
4	552	91.131025653736	4.502443435522
4	559	92.356671971323	2.221473408759
4	576	97.571920776907	5.922404243254
4	581	98.010021600934	4.137574478271
5	65	13.430108750074	11.066145011242
5	137	29.140042621009	25.55369923545
5	162	31.663613516088	27.941299369125
5	168	31.713422089076	27.646590725953
5	173	31.834010991405	24.040717604631
5	187	34.240165563254	23.819378118298
5	216	37.074857195613	20.807684502078
5	294	51.3742557561	33.739449102993
5	310	53.575382590111	35.222307995955
5	353	58.739562284867	32.340056795179
5	374	61.930116354777	33.35686938009
5	384	62.876641967732	30.920524074572
5	398	64.976875733835	29.61318811604
5	417	66.848304031419	27.900198089805
5	423	67.880378889181	28.378001548011
5	428	67.880801211597	24.320763919578
5	438	68.906481660348	23.131119661208
5	443	69.327230470078	19.853298104448
5	450	69.881621474231	20.212708292556
5	461	73.530022324434	23.837401592757
5	479	75.199143816632	23.972032900394
5	484	75.291275852369	22.986515871433
5	506	84.827956432778	31.957427709331
5	531	86.576000480349	24.009440405932

