version 2
run First-n4-10-20191125-12:37:00-10820
attr configname First-n4
attr datetime 20191125-12:37:00
attr experiment First-n4
attr inifile omnetpp.ini
attr iterationvars ""
attr iterationvarsf ""
attr measurement ""
attr network org.omnetpp.queueing.Pizza
attr processid 10820
attr repetition 10
attr replication ""
attr resultdir results_no_transient
attr runnumber 10
attr seedset 10
param **.PS.maxInventoriedPS 4
param **.U1.interArrivalTime exponential(2s)
param **.U2.interArrivalTime exponential(4s)
param **.PS.serviceTimeForInventoryU1 exponential(0.8s)
param **.PS.serviceTimeForInventoryU2 exponential(1.0s)
param **.PS.serviceTimeDirectU1 exponential(1.2s)
param **.PS.serviceTimeDirectU2 exponential(1.4s)
param **.PS.probabilityProducing 0.5
param **.CS.serviceTimeU1 exponential(0.8s)
param **.CS.serviceTimeU2 exponential(1.0s)

vector 0 Pizza.EntryQueueU1 queueLength:vector ETV
attr interpolationmode sample-hold
attr title "queue length, vector"
vector 1 Pizza.CS queueLength:vector ETV
attr interpolationmode sample-hold
attr title "queue length, vector"
vector 2 Pizza.EntryQueueU2 queueLength:vector ETV
attr interpolationmode sample-hold
attr title "queue length, vector"
vector 3 Pizza.sink lifeTime:vector ETV
attr interpolationmode none
attr title "lifetime of arrived jobs, vector"
attr unit s
vector 4 Pizza.sink lifeTimeU2:vector ETV
attr interpolationmode none
attr title "lifetime of arrived jobs, vector"
attr unit s
vector 5 Pizza.sink lifeTimeU1:vector ETV
attr interpolationmode none
attr title "lifetime of arrived jobs, vector"
attr unit s
0	0	0	0
0	9	2.950868889951	1
0	13	4.158229986914	0
0	20	4.331200204502	1
0	21	4.403018544262	0
0	36	6.643851325214	1
0	38	7.085448467383	2
0	43	7.434516905248	1
0	49	8.474420933571	0
0	53	8.981661905636	1
0	55	9.263540920408	2
0	61	10.827691676624	3
0	63	11.185648402948	2
0	68	11.452435649738	1
0	75	11.99388646103	2
0	78	12.293201717883	1
0	87	14.20763754896	0
0	91	14.894109054308	1
0	93	15.083740229159	2
0	96	15.288672138583	1
0	106	15.90117997279	2
0	107	16.918727711058	1
0	113	17.869715087019	2
0	116	18.127418330547	1
0	123	19.948704399101	0
0	134	21.291405377703	1
0	137	23.350528122418	0
0	171	29.442945612986	1
0	173	29.447764941097	2
0	175	29.527913165231	3
0	176	30.497756370815	2
0	181	30.56412528544	1
0	188	30.778469206576	0
0	194	31.11967481121	1
0	196	31.60369869131	2
0	198	31.685257704384	3
0	199	31.967644940259	2
0	205	32.139175889031	3
0	206	32.270228695999	2
0	212	32.648632166315	3
0	218	33.498989918097	4
0	221	35.125186884993	5
0	222	35.180216155725	4
0	227	35.526022712415	3
0	235	36.609067289148	4
0	236	36.918819079065	3
0	241	37.834785103704	2
0	245	38.049966865136	3
0	248	38.220291909559	2
0	253	38.489092984501	1
0	259	38.715739379723	2
0	260	39.363497522937	1
0	265	40.209348262689	0
0	269	40.382890351297	1
0	273	40.5157064895	2
0	275	41.345852249863	3
0	276	42.002012382824	2
0	281	42.911543868126	1
0	288	44.195822463406	0
0	303	47.632152125247	1
0	304	48.013558067691	0
0	336	49.202328179489	1
0	338	50.469235263234	0
0	356	53.542410795454	1
0	358	54.086901702611	2
0	360	55.355848186289	3
0	367	57.99983350382	4
0	369	58.774832180588	3
0	374	59.003499211595	2
0	380	59.956012511296	1
0	386	60.0715148865	2
0	391	60.918677763346	3
0	393	61.41721104363	4
0	396	61.999240779315	3
0	402	62.688804515939	2
0	409	62.942080759288	3
0	411	64.367444644642	2
0	417	64.740971251646	1
0	422	64.905850733854	0
0	435	66.2896587558	1
0	436	66.814654483356	0
0	462	69.89181382985	1
0	463	70.383881615456	0
0	483	71.09881074088	1
0	484	71.848271129875	0
0	505	74.151899940987	1
0	511	76.714735645294	0
0	518	76.928208958847	1
0	519	77.244086849354	0
0	540	81.504509479569	1
0	542	82.331541742201	2
0	545	82.827909115449	1
0	550	82.892083973959	0
0	564	85.110854007431	1
0	567	85.658876127551	0
0	578	86.183480002319	1
0	579	86.408892115059	0
0	587	87.152596548282	1
0	589	88.519292370295	0
0	595	88.56952801488	1
0	596	88.877309684852	0
0	609	89.04905625289	1
0	611	89.539263054948	0
1	0	0	0
2	0	0	0
2	5	1.503508115357	1
2	27	5.520153280876	2
2	29	5.53597761008	3
2	30	5.759895128889	2
2	40	7.174301375503	3
2	42	7.298681895418	4
2	84	12.4156994253	5
2	86	14.02886285303	6
2	102	15.567021712586	7
2	104	15.75914806179	8
2	115	18.078332418577	9
2	122	18.675965024084	10
2	128	21.196910533751	9
2	142	23.429024555816	8
2	148	25.279375067482	7
2	154	25.810886565501	8
2	160	28.104199958131	9
2	161	28.166445044041	8
2	168	28.855491870291	9
2	187	30.719665472033	10
2	210	32.32587244086	11
2	214	32.81295594855	12
2	233	36.311795779459	13
2	285	43.186658897674	14
2	292	44.848946672891	15
2	296	46.490531201181	14
2	309	48.043797998514	13
2	314	48.202443411686	12
2	320	48.301239962423	13
2	323	48.558732532963	12
2	328	48.610528768539	11
2	343	50.666743144131	10
2	349	50.998970969779	11
2	350	51.016927967577	10
2	354	51.451106396273	11
2	362	56.910854553914	12
2	388	60.55861206701	13
2	428	65.369141780242	12
2	442	68.102479845858	11
2	448	68.992488281307	10
2	456	69.565399001765	9
2	468	70.448030351757	8
2	475	70.934348098378	7
2	481	70.938759524028	8
2	490	71.879612452484	9
2	491	72.544268990312	8
2	496	73.203941144731	7
2	501	73.225333528854	6
2	507	75.576530907475	7
2	524	77.255881265287	6
2	529	77.651196710037	5
2	536	80.404594468686	4
2	557	84.031435421749	3
2	572	86.058809876757	2
2	602	88.877481814347	3
2	603	88.913525277559	2
2	618	89.891525075063	1
2	624	90.189224389127	0
3	15	4.158229986914	2.738603048725
3	23	4.403018544262	1.452149654311
3	32	5.759895128889	1.428694924387
3	45	7.434516905248	5.931008789891
3	51	8.474420933571	1.830569608357
3	65	11.185648402948	4.100199935565
3	70	11.452435649738	2.470773744102
3	80	12.293201717883	3.029660797475
3	89	14.20763754896	3.379945872336
3	98	15.288672138583	3.294785677553
3	109	16.918727711058	2.02461865675
3	118	18.127418330547	3.043678101388
3	125	19.948704399101	4.047524426311
3	130	21.196910533751	3.327195446732
3	139	23.350528122418	17.830374841542
3	144	23.429024555816	2.137619178113
3	150	25.279375067482	19.743397457402
3	163	28.166445044041	20.992143668538
3	178	30.497756370815	23.199074475397
3	183	30.56412528544	1.121179672454
3	190	30.778469206576	1.330704265479
3	201	31.967644940259	2.439731775028
3	208	32.270228695999	1.150553884789
3	224	35.180216155725	3.576517464415
3	229	35.526022712415	3.840765008031
3	238	36.918819079065	4.779643190034
3	243	37.834785103704	5.186152937389
3	250	38.220291909559	4.721301991462
3	255	38.489092984501	3.363906099508
3	262	39.363497522937	2.754430233789
3	267	40.209348262689	2.159381397553
3	278	42.002012382824	3.286273003101
3	283	42.911543868126	2.528653516829
3	290	44.195822463406	3.680115973906
3	298	46.490531201181	5.144678951318
3	306	48.013558067691	35.597858642391
3	311	48.043797998514	0.411645873267
3	316	48.202443411686	34.173580558656
3	325	48.558732532963	32.991710820377
3	330	48.610528768539	32.851380706749
3	340	50.469235263234	32.390902844657
3	345	50.666743144131	1.464414964642
3	352	51.016927967577	32.340962943493
3	371	58.774832180588	32.963945615087
3	376	59.003499211595	5.461088416141
3	382	59.956012511296	5.869110808685
3	398	61.999240779315	6.643392593026
3	404	62.688804515939	4.688971012119
3	413	64.367444644642	4.295929758142
3	419	64.740971251646	3.8222934883
3	424	64.905850733854	3.488639690224
3	430	65.369141780242	2.427061020954
3	438	66.814654483356	38.710454525225
3	444	68.102479845858	1.812821090058
3	450	68.992488281307	40.136996411016
3	458	69.565399001765	38.845733529732
3	465	70.383881615456	38.058009174596
3	470	70.448030351757	0.556216521907
3	477	70.934348098378	38.121392149828
3	486	71.848271129875	35.536475350416
3	493	72.544268990312	1.445458249432
3	498	73.203941144731	30.017282247057
3	503	73.225333528854	28.376386855963
3	513	76.714735645294	28.413495682871
3	521	77.244086849354	3.092186908367
3	526	77.255881265287	0.32767230644
3	531	77.651196710037	26.652225740258
3	538	80.404594468686	28.953488072413
3	547	82.827909115449	25.917054561535
3	552	82.892083973959	1.38757449439
3	559	84.031435421749	1.699893679548
3	569	85.658876127551	25.100264060541
3	574	86.058809876757	0.947955869326
3	581	86.408892115059	15.470132591031
3	591	88.519292370295	2.335812367976
3	598	88.877309684852	1.72471313657
3	605	88.913525277559	0.343997262679
3	613	89.539263054948	17.659650602464
3	620	89.891525075063	0.842468822173
3	626	90.189224389127	14.612693481652
3	630	90.494546704696	1.617064890349
3	640	93.475521368847	0.413300387085
3	648	95.050011677723	0.422672749689
3	657	99.187513452778	0.672714928796
4	15	4.158229986914	2.738603048725
4	45	7.434516905248	5.931008789891
4	139	23.350528122418	17.830374841542
4	150	25.279375067482	19.743397457402
4	163	28.166445044041	20.992143668538
4	178	30.497756370815	23.199074475397
4	306	48.013558067691	35.597858642391
4	316	48.202443411686	34.173580558656
4	325	48.558732532963	32.991710820377
4	330	48.610528768539	32.851380706749
4	340	50.469235263234	32.390902844657
4	352	51.016927967577	32.340962943493
4	371	58.774832180588	32.963945615087
4	438	66.814654483356	38.710454525225
4	450	68.992488281307	40.136996411016
4	458	69.565399001765	38.845733529732
4	465	70.383881615456	38.058009174596
4	477	70.934348098378	38.121392149828
4	486	71.848271129875	35.536475350416
4	498	73.203941144731	30.017282247057
4	503	73.225333528854	28.376386855963
4	513	76.714735645294	28.413495682871
4	531	77.651196710037	26.652225740258
4	538	80.404594468686	28.953488072413
4	547	82.827909115449	25.917054561535
4	569	85.658876127551	25.100264060541
4	581	86.408892115059	15.470132591031
4	613	89.539263054948	17.659650602464
4	626	90.189224389127	14.612693481652
4	630	90.494546704696	1.617064890349
5	23	4.403018544262	1.452149654311
5	32	5.759895128889	1.428694924387
5	51	8.474420933571	1.830569608357
5	65	11.185648402948	4.100199935565
5	70	11.452435649738	2.470773744102
5	80	12.293201717883	3.029660797475
5	89	14.20763754896	3.379945872336
5	98	15.288672138583	3.294785677553
5	109	16.918727711058	2.02461865675
5	118	18.127418330547	3.043678101388
5	125	19.948704399101	4.047524426311
5	130	21.196910533751	3.327195446732
5	144	23.429024555816	2.137619178113
5	183	30.56412528544	1.121179672454
5	190	30.778469206576	1.330704265479
5	201	31.967644940259	2.439731775028
5	208	32.270228695999	1.150553884789
5	224	35.180216155725	3.576517464415
5	229	35.526022712415	3.840765008031
5	238	36.918819079065	4.779643190034
5	243	37.834785103704	5.186152937389
5	250	38.220291909559	4.721301991462
5	255	38.489092984501	3.363906099508
5	262	39.363497522937	2.754430233789
5	267	40.209348262689	2.159381397553
5	278	42.002012382824	3.286273003101
5	283	42.911543868126	2.528653516829
5	290	44.195822463406	3.680115973906
5	298	46.490531201181	5.144678951318
5	311	48.043797998514	0.411645873267
5	345	50.666743144131	1.464414964642
5	376	59.003499211595	5.461088416141
5	382	59.956012511296	5.869110808685
5	398	61.999240779315	6.643392593026
5	404	62.688804515939	4.688971012119
5	413	64.367444644642	4.295929758142
5	419	64.740971251646	3.8222934883
5	424	64.905850733854	3.488639690224
5	430	65.369141780242	2.427061020954
5	444	68.102479845858	1.812821090058
5	470	70.448030351757	0.556216521907
5	493	72.544268990312	1.445458249432
5	521	77.244086849354	3.092186908367
5	526	77.255881265287	0.32767230644
5	552	82.892083973959	1.38757449439
5	559	84.031435421749	1.699893679548
5	574	86.058809876757	0.947955869326
5	591	88.519292370295	2.335812367976
5	598	88.877309684852	1.72471313657
5	605	88.913525277559	0.343997262679
5	620	89.891525075063	0.842468822173
5	640	93.475521368847	0.413300387085
5	648	95.050011677723	0.422672749689
5	657	99.187513452778	0.672714928796

