version 2
run First-n3-9-20191125-12:36:58-6312
attr configname First-n3
attr datetime 20191125-12:36:58
attr experiment First-n3
attr inifile omnetpp.ini
attr iterationvars ""
attr iterationvarsf ""
attr measurement ""
attr network org.omnetpp.queueing.Pizza
attr processid 6312
attr repetition 9
attr replication ""
attr resultdir results_no_transient
attr runnumber 9
attr seedset 9
param **.PS.maxInventoriedPS 3
param **.U1.interArrivalTime exponential(2s)
param **.U2.interArrivalTime exponential(4s)
param **.PS.serviceTimeForInventoryU1 exponential(0.8s)
param **.PS.serviceTimeForInventoryU2 exponential(1.0s)
param **.PS.serviceTimeDirectU1 exponential(1.2s)
param **.PS.serviceTimeDirectU2 exponential(1.4s)
param **.PS.probabilityProducing 0.5
param **.CS.serviceTimeU1 exponential(0.8s)
param **.CS.serviceTimeU2 exponential(1.0s)

vector 0 Pizza.EntryQueueU1 queueLength:vector ETV
attr interpolationmode sample-hold
attr title "queue length, vector"
vector 1 Pizza.CS queueLength:vector ETV
attr interpolationmode sample-hold
attr title "queue length, vector"
vector 2 Pizza.EntryQueueU2 queueLength:vector ETV
attr interpolationmode sample-hold
attr title "queue length, vector"
vector 3 Pizza.sink lifeTime:vector ETV
attr interpolationmode none
attr title "lifetime of arrived jobs, vector"
attr unit s
vector 4 Pizza.sink lifeTimeU1:vector ETV
attr interpolationmode none
attr title "lifetime of arrived jobs, vector"
attr unit s
vector 5 Pizza.sink lifeTimeU2:vector ETV
attr interpolationmode none
attr title "lifetime of arrived jobs, vector"
attr unit s
0	0	0	0
0	31	2.558329214835	1
0	33	5.211801002563	2
0	35	5.29083913623	3
0	38	7.085753994994	2
0	43	7.202706465451	1
0	48	7.837677888399	0
0	90	20.360693352093	1
0	92	21.023967702264	0
0	110	27.488952610785	1
0	112	27.837826145134	2
0	117	28.802047213855	1
0	123	29.723802792358	2
0	125	30.138733596311	3
0	126	31.882019406228	2
0	131	32.281112180883	1
0	136	34.044798423435	0
0	179	38.376135109719	1
0	181	38.446938029902	2
0	183	39.067541665047	3
0	186	39.957817275954	2
0	194	41.854211754951	1
0	200	42.088639592987	2
0	202	42.900390775955	1
0	207	43.095720822124	0
0	213	43.158692925678	1
0	215	44.455350765964	0
0	249	50.074349771414	1
0	251	50.373135166849	2
0	256	51.549912710877	1
0	261	52.650406585588	0
0	267	56.963114944156	1
0	269	57.04398685147	2
0	273	57.726994586641	3
0	275	57.944513929427	4
0	282	59.231718842992	3
0	287	59.301511326217	2
0	292	60.019409581419	1
0	296	60.352332177253	2
0	298	60.366957032735	3
0	300	60.975320508715	4
0	303	63.715160625113	3
0	309	64.311728563457	4
0	311	64.598406469308	5
0	318	67.074636535084	4
0	323	69.1383238548	3
0	327	69.209577193421	4
0	330	70.537602030297	3
0	336	72.067014994974	4
0	337	72.244323189884	3
0	341	72.972109056933	4
0	346	73.688920059047	3
0	351	75.453584310282	2
0	360	76.388148166612	1
0	366	78.072482739432	2
0	368	78.224505248259	3
0	370	78.383309072506	4
0	371	78.893239332846	3
0	378	81.114597801427	2
0	382	82.001612700733	3
0	384	82.075877091187	4
0	387	83.147533304647	3
0	393	84.7136352408	4
0	397	86.427210970791	5
0	398	86.520782415063	4
0	402	87.749145033804	5
0	404	87.997806367487	6
0	406	88.735256157707	7
0	413	90.788751924767	6
0	420	92.524508994844	5
0	428	94.813895690858	6
0	432	95.479883569195	7
0	433	97.818818034334	6
0	439	99.184391494525	7
0	441	99.807405493659	8
1	0	0	0
2	0	0	0
2	25	1.813127449552	1
2	27	2.014063430729	0
2	140	34.057077344173	1
2	143	34.128141054533	0
2	255	51.395933826544	1
2	265	54.1044696266	2
2	271	57.206895412559	3
2	279	58.528906416816	4
2	313	65.224437230623	5
2	315	65.702018591917	6
2	317	65.987762950485	7
2	345	73.359329371096	8
2	357	76.297806457194	9
2	359	76.354995958195	10
2	375	79.173816283431	11
2	395	85.697190434955	12
2	408	88.982800490685	13
2	410	90.638140430451	14
2	417	92.030698175728	15
2	424	93.246361687301	16
2	426	93.539840924254	17
2	437	98.584117679023	18
3	8	0.965486833298	0.944630143657
3	17	1.48490675662	0.070243232535
3	29	2.014063430729	0.30349745542
3	40	7.085753994994	5.272626545442
3	45	7.202706465451	4.644377250616
3	50	7.837677888399	2.625876885836
3	56	10.133760190185	4.842921053955
3	65	11.694685131678	1.448248033238
3	72	12.235002473989	0.066110723706
3	82	19.187427403763	1.972072878174
3	94	21.023967702264	1.107543887363
3	98	21.062228234626	0.701534882533
3	105	24.834974527962	0.340822411641
3	119	28.802047213855	1.467961287869
3	128	31.882019406228	4.393066795443
3	133	32.281112180883	4.443286035749
3	138	34.044798423435	4.320995631077
3	145	34.128141054533	3.989407458222
3	152	34.747475962522	0.690398618349
3	159	35.606065752114	0.156286876371
3	166	35.879439390966	0.058130156828
3	174	37.133395131401	0.957164597977
3	188	39.957817275954	2.456356788531
3	196	41.854211754951	3.478076645232
3	204	42.900390775955	4.453452746053
3	209	43.095720822124	4.028179157077
3	217	44.455350765964	2.366711172977
3	222	45.156810988123	1.998118062445
3	229	46.099458773545	0.328860946266
3	237	47.250319758812	0.11595379433
3	244	48.888808814968	0.044717590038
3	258	51.549912710877	1.984941312999
3	263	52.650406585588	2.576056814174
3	284	59.231718842992	8.858583676143
3	289	59.301511326217	2.338396382061
3	294	60.019409581419	2.975422729949
3	305	63.715160625113	5.988166038472
3	320	67.074636535084	9.130122605657
3	325	69.1383238548	8.785991677547
3	332	70.537602030297	10.170644997562
3	339	72.244323189884	11.269002681169
3	348	73.688920059047	9.37719149559
3	353	75.453584310282	10.855177840974
3	362	76.388148166612	7.178570973191
3	373	78.893239332846	6.826224337872
3	380	81.114597801427	8.142488744494
3	389	83.147533304647	5.075050565215
3	400	86.520782415063	8.296277166804
3	415	90.788751924767	12.405442852261
3	422	92.524508994844	10.522896294111
3	435	97.818818034334	15.742940943147
4	8	0.965486833298	0.944630143657
4	17	1.48490675662	0.070243232535
4	29	2.014063430729	0.30349745542
4	45	7.202706465451	4.644377250616
4	50	7.837677888399	2.625876885836
4	56	10.133760190185	4.842921053955
4	72	12.235002473989	0.066110723706
4	98	21.062228234626	0.701534882533
4	105	24.834974527962	0.340822411641
4	119	28.802047213855	1.467961287869
4	128	31.882019406228	4.393066795443
4	133	32.281112180883	4.443286035749
4	138	34.044798423435	4.320995631077
4	145	34.128141054533	3.989407458222
4	159	35.606065752114	0.156286876371
4	166	35.879439390966	0.058130156828
4	174	37.133395131401	0.957164597977
4	188	39.957817275954	2.456356788531
4	196	41.854211754951	3.478076645232
4	204	42.900390775955	4.453452746053
4	209	43.095720822124	4.028179157077
4	217	44.455350765964	2.366711172977
4	222	45.156810988123	1.998118062445
4	229	46.099458773545	0.328860946266
4	237	47.250319758812	0.11595379433
4	244	48.888808814968	0.044717590038
4	258	51.549912710877	1.984941312999
4	263	52.650406585588	2.576056814174
4	284	59.231718842992	8.858583676143
4	289	59.301511326217	2.338396382061
4	294	60.019409581419	2.975422729949
4	305	63.715160625113	5.988166038472
4	320	67.074636535084	9.130122605657
4	325	69.1383238548	8.785991677547
4	332	70.537602030297	10.170644997562
4	339	72.244323189884	11.269002681169
4	348	73.688920059047	9.37719149559
4	353	75.453584310282	10.855177840974
4	362	76.388148166612	7.178570973191
4	373	78.893239332846	6.826224337872
4	380	81.114597801427	8.142488744494
4	389	83.147533304647	5.075050565215
4	400	86.520782415063	8.296277166804
4	415	90.788751924767	12.405442852261
4	422	92.524508994844	10.522896294111
4	435	97.818818034334	15.742940943147
5	40	7.085753994994	5.272626545442
5	65	11.694685131678	1.448248033238
5	82	19.187427403763	1.972072878174
5	94	21.023967702264	1.107543887363
5	152	34.747475962522	0.690398618349

