version 2
run First-n3-19-20191125-12:37:15-9900
attr configname First-n3
attr datetime 20191125-12:37:15
attr experiment First-n3
attr inifile omnetpp.ini
attr iterationvars ""
attr iterationvarsf ""
attr measurement ""
attr network org.omnetpp.queueing.Pizza
attr processid 9900
attr repetition 19
attr replication ""
attr resultdir results_no_transient
attr runnumber 19
attr seedset 19
param **.PS.maxInventoriedPS 3
param **.U1.interArrivalTime exponential(2s)
param **.U2.interArrivalTime exponential(4s)
param **.PS.serviceTimeForInventoryU1 exponential(0.8s)
param **.PS.serviceTimeForInventoryU2 exponential(1.0s)
param **.PS.serviceTimeDirectU1 exponential(1.2s)
param **.PS.serviceTimeDirectU2 exponential(1.4s)
param **.PS.probabilityProducing 0.5
param **.CS.serviceTimeU1 exponential(0.8s)
param **.CS.serviceTimeU2 exponential(1.0s)

vector 0 Pizza.EntryQueueU1 queueLength:vector ETV
attr interpolationmode sample-hold
attr title "queue length, vector"
vector 1 Pizza.CS queueLength:vector ETV
attr interpolationmode sample-hold
attr title "queue length, vector"
vector 2 Pizza.EntryQueueU2 queueLength:vector ETV
attr interpolationmode sample-hold
attr title "queue length, vector"
vector 3 Pizza.sink lifeTime:vector ETV
attr interpolationmode none
attr title "lifetime of arrived jobs, vector"
attr unit s
vector 4 Pizza.sink lifeTimeU1:vector ETV
attr interpolationmode none
attr title "lifetime of arrived jobs, vector"
attr unit s
vector 5 Pizza.sink lifeTimeU2:vector ETV
attr interpolationmode none
attr title "lifetime of arrived jobs, vector"
attr unit s
0	0	0	0
0	18	3.069921891541	1
0	20	3.086285159072	2
0	23	4.736737406642	1
0	28	5.37381641914	0
0	53	11.205233952584	1
0	55	12.844308025635	2
0	61	14.795016489315	1
0	66	15.04512490115	0
0	72	15.848687606472	1
0	75	16.524759892954	2
0	76	16.978224798255	1
0	83	17.914806051809	0
0	102	19.544250556432	1
0	104	19.99129642796	2
0	106	20.081641029168	3
0	109	20.726338353825	2
0	115	20.73280690584	3
0	116	20.887938145525	2
0	123	21.967194320233	1
0	131	22.56260978166	2
0	136	24.809828096324	1
0	142	25.077880846914	2
0	143	25.641512509955	1
0	150	26.789170014107	0
0	199	37.434101628883	1
0	201	37.590810448781	0
0	232	46.490919115529	1
0	235	47.065319880967	2
0	238	47.326096169655	1
0	244	47.922186192478	2
0	245	48.240626942867	1
0	253	48.818379335887	2
0	255	49.340735946676	1
0	260	49.406213490696	0
0	271	49.60255026695	1
0	274	50.563368178648	2
0	277	51.900467206037	1
0	282	53.257585659687	0
0	289	55.735245272362	1
0	291	56.092787394274	2
0	292	57.049896974654	1
0	297	57.971219428133	0
0	327	64.293808709169	1
0	330	65.6823108928	0
0	342	68.606522645416	1
0	343	68.628752450595	0
0	366	70.719730354362	1
0	367	71.039975213012	0
0	374	71.524956604137	1
0	376	71.794605907076	2
0	378	72.705078944481	1
0	384	73.473632829843	0
0	421	83.421010351639	1
0	423	83.940150328075	0
0	449	88.312180026403	1
0	451	88.437051507137	2
0	453	89.353210701347	3
0	455	89.439900903293	4
0	456	90.276496112216	3
0	461	90.334620847465	2
0	466	90.433152248013	1
0	474	91.934986518466	0
0	480	92.130237058382	1
0	481	92.189769785495	0
0	487	92.279205043045	1
0	488	93.020379525615	0
0	492	95.119389173676	1
0	494	95.720612505309	2
0	499	97.780851151804	1
0	504	98.471487632061	0
1	0	0	0
2	0	0	0
2	14	2.415940366881	1
2	16	2.916087520572	2
2	33	5.416346117344	1
2	39	6.095255105513	0
2	59	13.603930170597	1
2	82	17.424389502535	2
2	90	18.560443917563	1
2	95	18.980177570545	0
2	133	22.588695520679	1
2	135	22.818968384746	2
2	155	27.265872797673	1
2	161	28.232324170118	0
2	208	38.114998227834	1
2	210	38.831316168766	2
2	211	39.268994069159	1
2	216	39.780098065412	0
2	237	47.136633931819	1
2	251	48.652778235616	2
2	265	49.590616168062	1
2	302	61.08906504041	0
2	329	64.709661022794	1
2	335	67.040076908165	0
2	356	69.771636266339	1
2	360	70.565145920534	0
2	391	74.159230228406	1
2	392	75.26614161265	0
2	447	87.876179710436	1
2	498	97.738485989846	2
2	508	98.858338267195	3
3	7	0.962921035824	0.757673385321
3	25	4.736737406642	2.48497457847
3	30	5.37381641914	2.303894527599
3	35	5.416346117344	2.330060958272
3	41	6.095255105513	3.679314738632
3	45	6.856009149263	3.939921628691
3	63	14.795016489315	5.307078448941
3	68	15.04512490115	3.839890948566
3	78	16.978224798255	4.13391677262
3	85	17.914806051809	2.066118445337
3	92	18.560443917563	2.035684024609
3	97	18.980177570545	5.376247399948
3	111	20.726338353825	3.30194885129
3	118	20.887938145525	1.343687589093
3	125	21.967194320233	1.975897892273
3	138	24.809828096324	4.728187067156
3	145	25.641512509955	4.908705604115
3	152	26.789170014107	4.226560232447
3	157	27.265872797673	2.187991950759
3	163	28.232324170118	5.643628649439
3	168	29.535415713323	6.716447328577
3	175	31.045751151154	0.460637427535
3	183	33.087025846136	0.117447398746
3	192	37.124815345967	0.583887181951
3	203	37.590810448781	0.160755764247
3	213	39.268994069159	1.834892440276
3	218	39.780098065412	1.665099837578
3	224	42.795839999579	3.964523830813
3	240	47.326096169655	0.946028907512
3	247	48.240626942867	1.749707827338
3	257	49.340735946676	2.275416065709
3	262	49.406213490696	1.484027298218
3	267	49.590616168062	0.772236832175
3	279	51.900467206037	4.763833274218
3	284	53.257585659687	3.655035392737
3	294	57.049896974654	6.486528796006
3	299	57.971219428133	2.235974155771
3	304	61.08906504041	4.996277646136
3	309	62.123201099878	13.470422864262
3	317	63.715234972248	0.428147256935
3	332	65.6823108928	1.790121066944
3	337	67.040076908165	2.746268198996
3	345	68.628752450595	3.919091427801
3	349	68.929893975557	0.323371330141
3	362	70.565145920534	0.877063409451
3	369	71.039975213012	1.268338946673
3	380	72.705078944481	1.985348590119
3	386	73.473632829843	1.948676225706
3	394	75.26614161265	3.471535705574
3	398	75.696025522307	1.536795293901
3	407	82.618800086792	0.091062761592
3	414	82.905818605757	0.232445979941
3	425	83.940150328075	0.815184148243
3	429	84.116752850075	0.695742498436
3	439	86.724077060502	0.23240937827
3	458	90.276496112216	2.920036743961
3	463	90.334620847465	2.022440821062
3	468	90.433152248013	1.996100740876
3	476	91.934986518466	2.581775817119
3	483	92.189769785495	2.749868882202
3	490	93.020379525615	0.890142467233
3	501	97.780851151804	5.501646108759
3	506	98.471487632061	3.352098458385
4	7	0.962921035824	0.757673385321
4	30	5.37381641914	2.303894527599
4	35	5.416346117344	2.330060958272
4	68	15.04512490115	3.839890948566
4	78	16.978224798255	4.13391677262
4	85	17.914806051809	2.066118445337
4	92	18.560443917563	2.035684024609
4	118	20.887938145525	1.343687589093
4	125	21.967194320233	1.975897892273
4	138	24.809828096324	4.728187067156
4	145	25.641512509955	4.908705604115
4	152	26.789170014107	4.226560232447
4	157	27.265872797673	2.187991950759
4	175	31.045751151154	0.460637427535
4	203	37.590810448781	0.160755764247
4	213	39.268994069159	1.834892440276
4	240	47.326096169655	0.946028907512
4	247	48.240626942867	1.749707827338
4	257	49.340735946676	2.275416065709
4	262	49.406213490696	1.484027298218
4	267	49.590616168062	0.772236832175
4	284	53.257585659687	3.655035392737
4	294	57.049896974654	6.486528796006
4	299	57.971219428133	2.235974155771
4	304	61.08906504041	4.996277646136
4	337	67.040076908165	2.746268198996
4	349	68.929893975557	0.323371330141
4	380	72.705078944481	1.985348590119
4	386	73.473632829843	1.948676225706
4	394	75.26614161265	3.471535705574
4	407	82.618800086792	0.091062761592
4	414	82.905818605757	0.232445979941
4	429	84.116752850075	0.695742498436
4	458	90.276496112216	2.920036743961
4	463	90.334620847465	2.022440821062
4	468	90.433152248013	1.996100740876
4	476	91.934986518466	2.581775817119
4	483	92.189769785495	2.749868882202
4	490	93.020379525615	0.890142467233
4	501	97.780851151804	5.501646108759
4	506	98.471487632061	3.352098458385
5	25	4.736737406642	2.48497457847
5	41	6.095255105513	3.679314738632
5	45	6.856009149263	3.939921628691
5	63	14.795016489315	5.307078448941
5	97	18.980177570545	5.376247399948
5	111	20.726338353825	3.30194885129
5	163	28.232324170118	5.643628649439
5	168	29.535415713323	6.716447328577
5	183	33.087025846136	0.117447398746
5	192	37.124815345967	0.583887181951
5	218	39.780098065412	1.665099837578
5	224	42.795839999579	3.964523830813
5	279	51.900467206037	4.763833274218
5	309	62.123201099878	13.470422864262
5	317	63.715234972248	0.428147256935
5	332	65.6823108928	1.790121066944
5	345	68.628752450595	3.919091427801
5	362	70.565145920534	0.877063409451
5	369	71.039975213012	1.268338946673
5	398	75.696025522307	1.536795293901
5	425	83.940150328075	0.815184148243
5	439	86.724077060502	0.23240937827

