version 2
run First-n5-18-20191125-12:37:13-8052
attr configname First-n5
attr datetime 20191125-12:37:13
attr experiment First-n5
attr inifile omnetpp.ini
attr iterationvars ""
attr iterationvarsf ""
attr measurement ""
attr network org.omnetpp.queueing.Pizza
attr processid 8052
attr repetition 18
attr replication ""
attr resultdir results_no_transient
attr runnumber 18
attr seedset 18
param **.PS.maxInventoriedPS 5
param **.U1.interArrivalTime exponential(2s)
param **.U2.interArrivalTime exponential(4s)
param **.PS.serviceTimeForInventoryU1 exponential(0.8s)
param **.PS.serviceTimeForInventoryU2 exponential(1.0s)
param **.PS.serviceTimeDirectU1 exponential(1.2s)
param **.PS.serviceTimeDirectU2 exponential(1.4s)
param **.PS.probabilityProducing 0.5
param **.CS.serviceTimeU1 exponential(0.8s)
param **.CS.serviceTimeU2 exponential(1.0s)

vector 0 Pizza.EntryQueueU1 queueLength:vector ETV
attr interpolationmode sample-hold
attr title "queue length, vector"
vector 1 Pizza.CS queueLength:vector ETV
attr interpolationmode sample-hold
attr title "queue length, vector"
vector 2 Pizza.EntryQueueU2 queueLength:vector ETV
attr interpolationmode sample-hold
attr title "queue length, vector"
vector 3 Pizza.sink lifeTime:vector ETV
attr interpolationmode none
attr title "lifetime of arrived jobs, vector"
attr unit s
vector 4 Pizza.sink lifeTimeU2:vector ETV
attr interpolationmode none
attr title "lifetime of arrived jobs, vector"
attr unit s
vector 5 Pizza.sink lifeTimeU1:vector ETV
attr interpolationmode none
attr title "lifetime of arrived jobs, vector"
attr unit s
0	0	0	0
0	13	2.558026770941	1
0	15	2.581173658892	2
0	20	4.003604927843	1
0	24	4.775011115572	2
0	26	4.832439629344	3
0	31	6.92441673768	2
0	37	8.795808639043	1
0	44	9.488702830233	0
0	67	12.560094858392	1
0	68	13.021618257303	0
0	79	14.329683956091	1
0	83	15.974998281959	0
0	94	17.625275742601	1
0	98	18.521612559296	2
0	99	19.761169880585	1
0	106	21.666612326032	0
0	121	24.322028539024	1
0	122	24.597479063056	0
0	210	40.701563294487	1
0	215	42.183056287765	2
0	216	43.189821009699	1
0	222	44.281075081547	0
0	253	46.545373731646	1
0	254	47.781962650376	0
0	287	53.307634754506	1
0	288	53.386135485105	0
0	294	53.644658258813	1
0	295	54.196250076922	0
0	387	70.782315637785	1
0	389	73.234618697767	0
0	410	76.975019821744	1
0	412	77.582675782919	2
0	413	78.232682645827	1
0	419	78.412531738696	2
0	420	78.834319861387	1
0	427	79.368544205868	2
0	431	80.691575202037	1
0	436	80.97065235579	0
0	447	81.722684624876	1
0	451	81.892102885269	2
0	453	82.74904555354	1
0	461	84.522335531655	2
0	462	85.077221605354	1
0	467	85.402978691589	0
0	503	96.188076928739	1
0	504	96.220253338848	0
0	508	96.27170124413	1
0	511	97.720516286433	0
1	0	0	0
2	0	0	0
2	17	3.132674834365	1
2	28	5.359395578063	2
2	43	9.398715797703	3
2	50	11.513046990454	2
2	56	12.249078955393	1
2	61	12.469004294746	0
2	89	17.309897929885	1
2	90	17.382692682634	0
2	103	20.472516809627	1
2	113	23.763242299824	2
2	115	24.271952453085	1
2	127	24.802013122536	0
2	150	27.288456088737	1
2	152	28.238375542252	0
2	213	41.665875055183	1
2	227	44.662119146362	0
2	250	46.367635018537	1
2	259	47.790234302836	0
2	306	56.162042617341	1
2	309	56.775445494673	0
2	429	79.564162824537	1
2	441	81.296104271368	0
2	449	81.826734972858	1
2	472	85.983790203019	0
3	7	1.310347029447	0.994127584796
3	22	4.003604927843	1.901821000403
3	33	6.92441673768	4.366389966739
3	39	8.795808639043	6.214634980151
3	46	9.488702830233	4.713691714661
3	52	11.513046990454	6.68060736111
3	58	12.249078955393	9.116404121028
3	63	12.469004294746	7.109608716683
3	70	13.021618257303	3.6229024596
3	74	13.190288828974	0.630193970582
3	85	15.974998281959	2.120083370939
3	92	17.382692682634	3.053008726543
3	101	19.761169880585	2.4512719507
3	108	21.666612326032	4.041336583431
3	117	24.271952453085	5.750339893789
3	124	24.597479063056	4.124962253429
3	129	24.802013122536	0.479984583512
3	133	24.907210016726	1.143967716902
3	142	27.100227578661	0.79594613179
3	154	28.238375542252	1.119898740579
3	159	28.638890188797	1.35043410006
3	171	32.216233884204	0.302427235352
3	179	35.326073930995	1.161971676017
3	188	36.624184870277	0.575260800337
3	195	38.321124272634	0.116606926769
3	202	39.271420898326	0.394768050808
3	218	43.189821009699	2.808637099517
3	224	44.281075081547	3.57951178706
3	229	44.662119146362	2.479062858597
3	234	45.338524314496	3.672649259313
3	241	45.496677284378	0.149822572227
3	256	47.781962650376	2.102015167259
3	261	47.790234302836	1.24486057119
3	265	48.00278761157	1.635152593033
3	272	49.09048684489	0.768873571049
3	279	50.968305017843	0.833915266415
3	290	53.386135485105	0.62008488517
3	297	54.196250076922	0.888615322416
3	301	54.433201408674	0.788543149861
3	311	56.775445494673	2.337704729678
3	315	57.244336849549	1.082294232208
3	326	59.215977549269	0.877118992788
3	333	60.243384480128	1.010979901678
3	340	60.519168299247	0.130698676469
3	347	61.616368065108	0.636892138938
3	356	63.169273302483	1.097458843302
3	367	65.248120601063	0.294125422473
3	379	68.468331750558	0.128831439146
3	391	73.234618697767	3.18756469193
3	395	73.687708488309	2.905392850524
3	403	74.810372615157	0.605219269246
3	415	78.232682645827	2.064520702604
3	422	78.834319861387	1.859300039643
3	433	80.691575202037	3.108899419118
3	438	80.97065235579	2.558120617094
3	443	81.296104271368	1.9275600655
3	455	82.74904555354	3.184882729003
3	464	85.077221605354	3.354536980478
3	469	85.402978691589	3.51087580632
3	474	85.983790203019	1.461454671364
3	481	88.238043855934	6.411308883076
3	488	89.469274735563	1.106372172216
3	495	89.934493159157	0.350094075808
3	506	96.220253338848	1.075614557325
3	513	97.720516286433	1.532439357694
3	518	99.186442574452	2.914741330322
3	525	99.93979741913	0.473017273151
4	7	1.310347029447	0.994127584796
4	58	12.249078955393	9.116404121028
4	63	12.469004294746	7.109608716683
4	70	13.021618257303	3.6229024596
4	101	19.761169880585	2.4512719507
4	124	24.597479063056	4.124962253429
4	133	24.907210016726	1.143967716902
4	142	27.100227578661	0.79594613179
4	159	28.638890188797	1.35043410006
4	171	32.216233884204	0.302427235352
4	179	35.326073930995	1.161971676017
4	202	39.271420898326	0.394768050808
4	234	45.338524314496	3.672649259313
4	265	48.00278761157	1.635152593033
4	272	49.09048684489	0.768873571049
4	311	56.775445494673	2.337704729678
4	315	57.244336849549	1.082294232208
4	326	59.215977549269	0.877118992788
4	333	60.243384480128	1.010979901678
4	391	73.234618697767	3.18756469193
4	415	78.232682645827	2.064520702604
4	455	82.74904555354	3.184882729003
4	481	88.238043855934	6.411308883076
5	22	4.003604927843	1.901821000403
5	33	6.92441673768	4.366389966739
5	39	8.795808639043	6.214634980151
5	46	9.488702830233	4.713691714661
5	52	11.513046990454	6.68060736111
5	74	13.190288828974	0.630193970582
5	85	15.974998281959	2.120083370939
5	92	17.382692682634	3.053008726543
5	108	21.666612326032	4.041336583431
5	117	24.271952453085	5.750339893789
5	129	24.802013122536	0.479984583512
5	154	28.238375542252	1.119898740579
5	188	36.624184870277	0.575260800337
5	195	38.321124272634	0.116606926769
5	218	43.189821009699	2.808637099517
5	224	44.281075081547	3.57951178706
5	229	44.662119146362	2.479062858597
5	241	45.496677284378	0.149822572227
5	256	47.781962650376	2.102015167259
5	261	47.790234302836	1.24486057119
5	279	50.968305017843	0.833915266415
5	290	53.386135485105	0.62008488517
5	297	54.196250076922	0.888615322416
5	301	54.433201408674	0.788543149861
5	340	60.519168299247	0.130698676469
5	347	61.616368065108	0.636892138938
5	356	63.169273302483	1.097458843302
5	367	65.248120601063	0.294125422473
5	379	68.468331750558	0.128831439146
5	395	73.687708488309	2.905392850524
5	403	74.810372615157	0.605219269246
5	422	78.834319861387	1.859300039643
5	433	80.691575202037	3.108899419118
5	438	80.97065235579	2.558120617094
5	443	81.296104271368	1.9275600655
5	464	85.077221605354	3.354536980478
5	469	85.402978691589	3.51087580632
5	474	85.983790203019	1.461454671364
5	488	89.469274735563	1.106372172216
5	495	89.934493159157	0.350094075808
5	506	96.220253338848	1.075614557325
5	513	97.720516286433	1.532439357694
5	518	99.186442574452	2.914741330322
5	525	99.93979741913	0.473017273151

