version 2
run First-n4-5-20191125-12:36:53-11252
attr configname First-n4
attr datetime 20191125-12:36:53
attr experiment First-n4
attr inifile omnetpp.ini
attr iterationvars ""
attr iterationvarsf ""
attr measurement ""
attr network org.omnetpp.queueing.Pizza
attr processid 11252
attr repetition 5
attr replication ""
attr resultdir results_no_transient
attr runnumber 5
attr seedset 5
param **.PS.maxInventoriedPS 4
param **.U1.interArrivalTime exponential(2s)
param **.U2.interArrivalTime exponential(4s)
param **.PS.serviceTimeForInventoryU1 exponential(0.8s)
param **.PS.serviceTimeForInventoryU2 exponential(1.0s)
param **.PS.serviceTimeDirectU1 exponential(1.2s)
param **.PS.serviceTimeDirectU2 exponential(1.4s)
param **.PS.probabilityProducing 0.5
param **.CS.serviceTimeU1 exponential(0.8s)
param **.CS.serviceTimeU2 exponential(1.0s)

vector 0 Pizza.EntryQueueU1 queueLength:vector ETV
attr interpolationmode sample-hold
attr title "queue length, vector"
vector 1 Pizza.CS queueLength:vector ETV
attr interpolationmode sample-hold
attr title "queue length, vector"
vector 2 Pizza.EntryQueueU2 queueLength:vector ETV
attr interpolationmode sample-hold
attr title "queue length, vector"
vector 3 Pizza.sink lifeTime:vector ETV
attr interpolationmode none
attr title "lifetime of arrived jobs, vector"
attr unit s
vector 4 Pizza.sink lifeTimeU2:vector ETV
attr interpolationmode none
attr title "lifetime of arrived jobs, vector"
attr unit s
vector 5 Pizza.sink lifeTimeU1:vector ETV
attr interpolationmode none
attr title "lifetime of arrived jobs, vector"
attr unit s
0	0	0	0
0	5	0.502039955384	1
0	7	0.965195882806	2
0	9	1.869482112156	3
0	12	2.812875588987	2
0	17	4.297919186127	1
0	25	6.886510062585	2
0	33	8.927397378856	1
0	38	9.028842098001	0
0	44	9.568695461828	1
0	45	9.82162745854	0
0	65	11.052006438691	1
0	68	11.414122002067	2
0	70	13.06217017659	3
0	71	13.18080375048	2
0	84	17.595758406917	1
0	89	18.175423454569	0
0	105	19.511290166425	1
0	108	20.620041905553	0
0	123	21.710870918303	1
0	126	23.155422482135	0
0	132	23.29219908953	1
0	135	23.551388180066	2
0	136	23.686186130524	1
0	142	23.732388223825	2
0	144	24.200631001233	1
0	150	24.311075433187	2
0	151	24.405565717617	1
0	156	24.784485466358	0
0	173	27.703903437486	1
0	174	27.863009145844	0
0	180	28.599756630676	1
0	182	29.083846816309	2
0	183	29.157773100584	1
0	188	29.530025458271	0
0	204	32.264517143692	1
0	207	33.204728733781	0
0	256	50.759631033956	1
0	257	50.867293869258	0
0	279	55.12076251143	1
0	280	55.178866060522	0
0	328	73.808442732074	1
0	329	75.620005400182	0
0	365	80.468930925789	1
0	367	80.938026060575	0
0	385	83.824048926391	1
0	386	84.882068217751	0
0	392	86.662942880903	1
0	393	86.85165496436	0
0	409	90.51322775187	1
0	411	90.893036605999	2
0	412	91.156151997684	1
0	419	94.295003572216	0
1	0	0	0
2	0	0	0
2	30	8.410523326293	1
2	32	8.880709030964	2
2	51	10.162006507853	3
2	54	10.554518452884	2
2	59	10.951366705176	1
2	80	15.427156261471	2
2	94	18.992289403076	1
2	99	18.998040972585	0
2	125	21.741577167775	1
2	163	25.494726580797	2
2	164	26.121120886566	1
2	170	26.363029485568	2
2	193	31.991728301478	1
2	198	32.186190188271	0
3	14	2.812875588987	2.585831694502
3	19	4.297919186127	3.795879230743
3	35	8.927397378856	7.96220149605
3	40	9.028842098001	7.159359985845
3	47	9.82162745854	2.935117395955
3	56	10.554518452884	0.985822991056
3	61	10.951366705176	2.540843378883
3	73	13.18080375048	4.300094719516
3	86	17.595758406917	6.543751968226
3	91	18.175423454569	6.761301452502
3	96	18.992289403076	5.930119226486
3	101	18.998040972585	8.836034464732
3	110	20.620041905553	5.192885644082
3	114	21.127172629582	1.615882463157
3	128	23.155422482135	1.680571338667
3	138	23.686186130524	1.975315212221
3	146	24.200631001233	0.908431911703
3	153	24.405565717617	0.854177537551
3	158	24.784485466358	1.052097242533
3	166	26.121120886566	1.810045453379
3	176	27.863009145844	6.121431978069
3	185	29.157773100584	1.453869663098
3	190	29.530025458271	0.930268827595
3	195	31.991728301478	2.907881485169
3	200	32.186190188271	6.691463607474
3	209	33.204728733781	6.841699248213
3	213	35.504108234514	3.239591090822
3	222	36.955078382335	0.106280131352
3	232	38.646384589975	0.13252554117
3	240	45.101766028875	0.094226103633
3	249	46.36231486409	0.578453005362
3	259	50.867293869258	1.289458277606
3	264	51.547356728158	0.787725694202
3	272	52.979252862889	0.790007602296
3	282	55.178866060522	0.169048838922
3	287	56.149928556486	1.029166045056
3	295	58.464617345149	0.853488433065
3	302	59.501132272686	0.275846614762
3	313	64.923434074596	1.006963483193
3	320	69.443260116307	0.104376748344
3	331	75.620005400182	4.110265705276
3	335	75.862010451697	2.053567719623
3	342	77.793761137033	0.406488289458
3	351	79.333564351008	0.828342116725
3	358	79.619819520434	0.178699356585
3	369	80.938026060575	0.593050571809
3	376	82.058128133459	1.58919720767
3	388	84.882068217751	1.66223512935
3	395	86.85165496436	3.027606037969
3	402	89.533504013613	2.87056113271
3	414	91.156151997684	1.077097245344
3	421	94.295003572216	3.781775820346
3	425	95.140068549909	4.24703194391
3	432	97.098722816214	0.0316248992
4	14	2.812875588987	2.585831694502
4	61	10.951366705176	2.540843378883
4	73	13.18080375048	4.300094719516
4	101	18.998040972585	8.836034464732
4	110	20.620041905553	5.192885644082
4	128	23.155422482135	1.680571338667
4	176	27.863009145844	6.121431978069
4	200	32.186190188271	6.691463607474
4	209	33.204728733781	6.841699248213
4	222	36.955078382335	0.106280131352
4	295	58.464617345149	0.853488433065
4	302	59.501132272686	0.275846614762
4	331	75.620005400182	4.110265705276
4	342	77.793761137033	0.406488289458
4	388	84.882068217751	1.66223512935
4	414	91.156151997684	1.077097245344
4	432	97.098722816214	0.0316248992
5	19	4.297919186127	3.795879230743
5	35	8.927397378856	7.96220149605
5	40	9.028842098001	7.159359985845
5	47	9.82162745854	2.935117395955
5	56	10.554518452884	0.985822991056
5	86	17.595758406917	6.543751968226
5	91	18.175423454569	6.761301452502
5	96	18.992289403076	5.930119226486
5	114	21.127172629582	1.615882463157
5	138	23.686186130524	1.975315212221
5	146	24.200631001233	0.908431911703
5	153	24.405565717617	0.854177537551
5	158	24.784485466358	1.052097242533
5	166	26.121120886566	1.810045453379
5	185	29.157773100584	1.453869663098
5	190	29.530025458271	0.930268827595
5	195	31.991728301478	2.907881485169
5	213	35.504108234514	3.239591090822
5	232	38.646384589975	0.13252554117
5	240	45.101766028875	0.094226103633
5	249	46.36231486409	0.578453005362
5	259	50.867293869258	1.289458277606
5	264	51.547356728158	0.787725694202
5	272	52.979252862889	0.790007602296
5	282	55.178866060522	0.169048838922
5	287	56.149928556486	1.029166045056
5	313	64.923434074596	1.006963483193
5	320	69.443260116307	0.104376748344
5	335	75.862010451697	2.053567719623
5	351	79.333564351008	0.828342116725
5	358	79.619819520434	0.178699356585
5	369	80.938026060575	0.593050571809
5	376	82.058128133459	1.58919720767
5	395	86.85165496436	3.027606037969
5	402	89.533504013613	2.87056113271
5	421	94.295003572216	3.781775820346
5	425	95.140068549909	4.24703194391

