version 2
run First-n4-6-20191125-12:36:55-11052
attr configname First-n4
attr datetime 20191125-12:36:55
attr experiment First-n4
attr inifile omnetpp.ini
attr iterationvars ""
attr iterationvarsf ""
attr measurement ""
attr network org.omnetpp.queueing.Pizza
attr processid 11052
attr repetition 6
attr replication ""
attr resultdir results_no_transient
attr runnumber 6
attr seedset 6
param **.PS.maxInventoriedPS 4
param **.U1.interArrivalTime exponential(2s)
param **.U2.interArrivalTime exponential(4s)
param **.PS.serviceTimeForInventoryU1 exponential(0.8s)
param **.PS.serviceTimeForInventoryU2 exponential(1.0s)
param **.PS.serviceTimeDirectU1 exponential(1.2s)
param **.PS.serviceTimeDirectU2 exponential(1.4s)
param **.PS.probabilityProducing 0.5
param **.CS.serviceTimeU1 exponential(0.8s)
param **.CS.serviceTimeU2 exponential(1.0s)

vector 0 Pizza.EntryQueueU1 queueLength:vector ETV
attr interpolationmode sample-hold
attr title "queue length, vector"
vector 1 Pizza.CS queueLength:vector ETV
attr interpolationmode sample-hold
attr title "queue length, vector"
vector 2 Pizza.EntryQueueU2 queueLength:vector ETV
attr interpolationmode sample-hold
attr title "queue length, vector"
vector 3 Pizza.sink lifeTime:vector ETV
attr interpolationmode none
attr title "lifetime of arrived jobs, vector"
attr unit s
vector 4 Pizza.sink lifeTimeU1:vector ETV
attr interpolationmode none
attr title "lifetime of arrived jobs, vector"
attr unit s
vector 5 Pizza.sink lifeTimeU2:vector ETV
attr interpolationmode none
attr title "lifetime of arrived jobs, vector"
attr unit s
0	0	0	0
0	16	5.4836616119	1
0	17	5.708252767279	0
0	24	6.995394588346	1
0	25	7.593883598229	0
0	58	13.96965334875	1
0	60	14.074043780155	0
0	82	15.138276588077	1
0	83	15.542513953246	0
0	89	15.728667864058	1
0	90	16.619744839937	0
0	94	17.556285045607	1
0	97	19.85667625394	0
0	101	20.083250492847	1
0	105	20.788925509304	0
0	125	24.728247597517	1
0	133	27.363180974985	2
0	134	27.586343147023	1
0	141	28.194789958916	0
0	159	30.257402316141	1
0	163	31.032138520573	0
0	169	31.863966404703	1
0	171	32.48289408477	0
0	209	39.98442434879	1
0	210	40.255227466213	0
0	226	40.921128129567	1
0	228	41.058157988753	2
0	231	41.550825218832	1
0	236	41.589910695346	0
0	240	42.373125049862	1
0	244	43.133530868094	2
0	245	43.722488812863	1
0	252	44.561030387739	0
0	260	44.985539151408	1
0	263	46.424694247517	0
0	336	59.280830365108	1
0	338	59.520466826792	2
0	339	59.763979418747	1
0	345	60.365712253044	2
0	347	60.809329005013	1
0	353	61.198899887902	0
0	377	66.477710861466	1
0	379	67.04194561753	2
0	380	67.107802884866	1
0	386	67.343284370678	0
0	415	74.241731842593	1
0	416	74.393053378122	0
0	442	81.345113079728	1
0	443	81.548160952908	0
0	475	91.047816678364	1
0	476	91.135877227949	0
0	519	96.265427642032	1
0	521	96.826419266417	2
0	525	97.379580975238	3
0	527	97.640682909144	4
0	528	97.924174393383	3
0	535	98.271648568871	4
0	536	98.362001901868	3
0	542	98.487066176473	2
0	548	99.357099018606	3
1	0	0	0
2	0	0	0
2	74	14.591896643733	1
2	76	14.753533230081	0
2	123	23.661557788666	1
2	127	25.53395351678	2
2	148	29.256410862026	1
2	153	30.077564144499	0
2	161	30.48033161267	1
2	176	33.00007119578	0
2	224	40.48354779465	1
2	230	41.359467202398	2
2	251	44.236940571366	3
2	258	44.734810558882	4
2	262	45.65006522694	5
2	268	46.848083047689	4
2	273	47.420409574032	3
2	278	48.211627970951	2
2	283	48.23644482915	1
2	289	48.346329148172	2
2	290	48.559892887301	1
2	296	50.650991031529	0
2	312	54.720685491777	1
2	313	54.725921277188	0
2	406	72.788699467785	1
2	407	73.398200516831	0
2	422	74.541153932339	1
2	423	75.159227311044	0
2	464	89.007502845945	1
2	465	89.5746805537	0
2	472	90.145515089898	1
2	482	91.233435965316	2
2	485	91.470029438694	3
2	488	91.714706396886	4
2	489	91.989632840057	3
2	494	92.158218242116	2
2	499	92.417959264077	1
2	504	92.708682536652	0
2	550	99.707966412424	1
3	7	4.78327863324	0.316038117612
3	19	5.708252767279	0.434138505596
3	27	7.593883598229	2.110221986329
3	31	7.813237092884	0.817842504538
3	42	10.565929884369	0.907815886608
3	51	13.054056576695	1.268110490067
3	62	14.074043780155	0.987907896026
3	66	14.180708157315	0.211054808565
3	78	14.753533230081	0.516267576308
3	85	15.542513953246	0.950617309513
3	92	16.619744839937	1.48146825186
3	99	19.85667625394	4.128008389882
3	107	20.788925509304	3.232640463697
3	111	21.296326633674	1.213076140827
3	118	22.031657729417	0.454329710423
3	136	27.586343147023	4.055585917635
3	143	28.194789958916	3.466542361399
3	150	29.256410862026	1.893229887041
3	155	30.077564144499	6.416006355833
3	165	31.032138520573	5.498185003793
3	173	32.48289408477	2.225491768629
3	178	33.00007119578	1.136104791077
3	183	35.923560249835	5.443228637165
3	190	36.805355525497	0.638586453464
3	202	39.660186132682	0.519366084768
3	212	40.255227466213	0.591825077938
3	216	40.329094592683	0.344670243893
3	233	41.550825218832	1.209370256948
3	238	41.589910695346	0.668782565779
3	247	43.722488812863	2.66433082411
3	254	44.561030387739	2.187905337877
3	265	46.424694247517	3.291163379423
3	270	46.848083047689	1.862543896281
3	275	47.420409574032	6.936861779382
3	280	48.211627970951	6.852160768553
3	285	48.23644482915	3.999504257784
3	292	48.559892887301	3.825082328419
3	298	50.650991031529	5.000925804589
3	302	52.83065403409	4.484324885918
3	315	54.725921277188	0.289790368686
3	319	55.557022195889	0.836336704112
3	328	56.575918451113	0.266819429539
3	341	59.763979418747	2.080347501971
3	349	60.809329005013	1.528498639905
3	355	61.198899887902	1.67843306111
3	359	61.30511785112	0.939405598076
3	370	64.04295593145	2.348181503529
3	382	67.107802884866	1.239224080755
3	388	67.343284370678	0.865573509212
3	392	67.529198335642	0.487252718112
3	399	71.630963839377	0.780726325024
3	409	73.398200516831	1.226589179423
3	418	74.393053378122	1.604353910337
3	425	75.159227311044	0.917495468451
3	429	75.455456153867	0.914302221528
3	445	81.548160952908	1.163594885991
3	449	81.569566713761	0.224453634033
3	457	87.034424537557	0.247612882399
3	467	89.5746805537	1.181310531608
3	478	91.135877227949	2.128374382004
3	491	91.989632840057	0.941816161693
3	496	92.158218242116	2.012703152218
3	501	92.417959264077	1.184523298761
3	506	92.708682536652	1.238653097958
3	510	93.496730878376	1.78202448149
3	530	97.924174393383	1.974613228894
3	538	98.362001901868	2.096574259836
3	544	98.487066176473	1.660646910056
4	7	4.78327863324	0.316038117612
4	19	5.708252767279	0.434138505596
4	27	7.593883598229	2.110221986329
4	31	7.813237092884	0.817842504538
4	42	10.565929884369	0.907815886608
4	62	14.074043780155	0.987907896026
4	66	14.180708157315	0.211054808565
4	92	16.619744839937	1.48146825186
4	99	19.85667625394	4.128008389882
4	107	20.788925509304	3.232640463697
4	111	21.296326633674	1.213076140827
4	136	27.586343147023	4.055585917635
4	143	28.194789958916	3.466542361399
4	150	29.256410862026	1.893229887041
4	173	32.48289408477	2.225491768629
4	178	33.00007119578	1.136104791077
4	190	36.805355525497	0.638586453464
4	212	40.255227466213	0.591825077938
4	216	40.329094592683	0.344670243893
4	233	41.550825218832	1.209370256948
4	238	41.589910695346	0.668782565779
4	247	43.722488812863	2.66433082411
4	254	44.561030387739	2.187905337877
4	265	46.424694247517	3.291163379423
4	270	46.848083047689	1.862543896281
4	315	54.725921277188	0.289790368686
4	328	56.575918451113	0.266819429539
4	341	59.763979418747	2.080347501971
4	349	60.809329005013	1.528498639905
4	355	61.198899887902	1.67843306111
4	359	61.30511785112	0.939405598076
4	370	64.04295593145	2.348181503529
4	388	67.343284370678	0.865573509212
4	392	67.529198335642	0.487252718112
4	399	71.630963839377	0.780726325024
4	409	73.398200516831	1.226589179423
4	425	75.159227311044	0.917495468451
4	445	81.548160952908	1.163594885991
4	449	81.569566713761	0.224453634033
4	457	87.034424537557	0.247612882399
4	491	91.989632840057	0.941816161693
4	530	97.924174393383	1.974613228894
4	538	98.362001901868	2.096574259836
4	544	98.487066176473	1.660646910056
5	51	13.054056576695	1.268110490067
5	78	14.753533230081	0.516267576308
5	85	15.542513953246	0.950617309513
5	118	22.031657729417	0.454329710423
5	155	30.077564144499	6.416006355833
5	165	31.032138520573	5.498185003793
5	183	35.923560249835	5.443228637165
5	202	39.660186132682	0.519366084768
5	275	47.420409574032	6.936861779382
5	280	48.211627970951	6.852160768553
5	285	48.23644482915	3.999504257784
5	292	48.559892887301	3.825082328419
5	298	50.650991031529	5.000925804589
5	302	52.83065403409	4.484324885918
5	319	55.557022195889	0.836336704112
5	382	67.107802884866	1.239224080755
5	418	74.393053378122	1.604353910337
5	429	75.455456153867	0.914302221528
5	467	89.5746805537	1.181310531608
5	478	91.135877227949	2.128374382004
5	496	92.158218242116	2.012703152218
5	501	92.417959264077	1.184523298761
5	506	92.708682536652	1.238653097958
5	510	93.496730878376	1.78202448149

