version 2
run First-n4-16-20191125-12:37:10-736
attr configname First-n4
attr datetime 20191125-12:37:10
attr experiment First-n4
attr inifile omnetpp.ini
attr iterationvars ""
attr iterationvarsf ""
attr measurement ""
attr network org.omnetpp.queueing.Pizza
attr processid 736
attr repetition 16
attr replication ""
attr resultdir results_no_transient
attr runnumber 16
attr seedset 16
param **.PS.maxInventoriedPS 4
param **.U1.interArrivalTime exponential(2s)
param **.U2.interArrivalTime exponential(4s)
param **.PS.serviceTimeForInventoryU1 exponential(0.8s)
param **.PS.serviceTimeForInventoryU2 exponential(1.0s)
param **.PS.serviceTimeDirectU1 exponential(1.2s)
param **.PS.serviceTimeDirectU2 exponential(1.4s)
param **.PS.probabilityProducing 0.5
param **.CS.serviceTimeU1 exponential(0.8s)
param **.CS.serviceTimeU2 exponential(1.0s)

vector 0 Pizza.EntryQueueU1 queueLength:vector ETV
attr interpolationmode sample-hold
attr title "queue length, vector"
vector 1 Pizza.CS queueLength:vector ETV
attr interpolationmode sample-hold
attr title "queue length, vector"
vector 2 Pizza.EntryQueueU2 queueLength:vector ETV
attr interpolationmode sample-hold
attr title "queue length, vector"
vector 3 Pizza.sink lifeTime:vector ETV
attr interpolationmode none
attr title "lifetime of arrived jobs, vector"
attr unit s
vector 4 Pizza.sink lifeTimeU1:vector ETV
attr interpolationmode none
attr title "lifetime of arrived jobs, vector"
attr unit s
vector 5 Pizza.sink lifeTimeU2:vector ETV
attr interpolationmode none
attr title "lifetime of arrived jobs, vector"
attr unit s
0	0	0	0
0	38	6.285349677243	1
0	40	6.471206245779	2
0	42	6.702273459049	1
0	47	6.805339418593	0
0	53	6.955507701276	1
0	54	6.978487705882	0
0	68	8.626987087617	1
0	69	9.06206353261	0
0	92	12.91439101237	1
0	95	15.256541694866	2
0	103	15.867770796274	3
0	104	16.99693679668	2
0	111	18.135715380057	1
0	119	18.818410574128	2
0	120	18.825928147832	1
0	125	19.037325085917	0
0	138	19.651485738134	1
0	140	19.672163671859	2
0	141	19.706699411295	1
0	145	20.553542437296	2
0	147	20.590685104933	3
0	149	20.655902113113	4
0	153	22.300892698015	3
0	157	22.574247792831	4
0	160	23.333152153879	3
0	164	24.329591132005	4
0	170	26.800193592668	5
0	171	27.36156969684	4
0	175	30.122067799254	5
0	177	31.248605817839	6
0	180	32.303445063512	5
0	185	33.417920249293	4
0	191	34.150257511734	5
0	192	35.089783070709	4
0	198	35.647599152341	5
0	199	36.18294863939	4
0	203	38.214679430892	5
0	206	39.525460072049	4
0	210	40.509885485623	5
0	212	40.749357799666	6
0	214	42.60658208126	7
0	216	43.050776843012	8
0	219	43.901250945777	7
0	224	44.658109129754	6
0	231	45.926355082675	5
0	236	46.343666476816	4
0	241	47.371524841175	3
0	250	52.847474844483	4
0	251	52.924159807215	3
0	257	53.112686385791	4
0	258	53.828294288145	3
0	263	53.884902509657	2
0	271	54.656657868893	1
0	277	56.018723213947	2
0	278	56.748185997884	1
0	282	56.900976372086	2
0	286	57.599506389612	1
0	292	58.488309549069	0
0	298	59.024691560509	1
0	300	59.144815040548	2
0	302	60.29379409654	3
0	303	60.404309451539	2
0	307	61.85599353198	3
0	311	63.688961262277	4
0	312	64.310079203978	3
0	316	64.310553252127	4
0	318	64.706885443308	5
0	323	66.92996876458	4
0	328	69.595160273317	3
0	336	71.040558040932	2
0	344	71.64068771725	3
0	345	72.463552395763	2
0	350	73.535507006481	1
0	356	73.974856764989	0
0	384	76.178280101215	1
0	385	76.211717091728	0
0	410	80.713035384465	1
0	411	81.372944261164	0
0	417	81.88201137721	1
0	426	84.226744853093	0
0	456	86.451416719182	1
0	461	87.911658411623	0
0	470	90.424829044137	1
0	478	93.920860911188	0
0	511	97.448015003712	1
0	513	99.683507353363	2
1	0	0	0
2	0	0	0
2	35	5.825214860208	1
2	60	7.665941368033	0
2	97	15.298430665594	1
2	99	15.799300194639	2
2	101	15.845481499434	3
2	110	17.950275338145	4
2	117	18.551900287987	5
2	131	19.248024657768	6
2	132	19.464081231083	5
2	168	25.01981899424	6
2	269	54.166580289469	7
2	320	65.368303831522	8
2	332	69.631568138772	9
2	361	74.129090477762	8
2	367	74.13494478368	9
2	369	75.210618552873	8
2	375	75.369069342724	9
2	377	75.827307900868	10
2	378	76.177713973815	9
2	391	78.926155450397	8
2	397	79.725241375952	7
2	402	79.888716562331	6
2	421	83.512304404574	7
2	424	84.103322455543	8
2	431	84.310578260675	7
2	437	85.00948865135	6
2	442	85.154729456611	5
2	447	85.482740205651	4
2	452	86.267154927821	3
2	460	86.634575502459	4
2	466	88.537569131745	3
2	477	93.783963841686	4
2	483	94.549954948963	3
2	488	94.566657010551	2
2	494	94.912868589812	3
2	497	95.551228256984	2
2	503	96.774101943984	1
3	7	0.611476025569	0.106096790346
3	17	1.654916754784	0.072920069745
3	24	2.650047837663	0.663506016686
3	44	6.702273459049	0.993038211747
3	49	6.805339418593	0.51998974135
3	56	6.978487705882	0.507281460103
3	62	7.665941368033	0.710433666757
3	71	9.06206353261	3.236848672402
3	75	9.122033238131	0.495046150514
3	85	11.751429249845	1.155260263909
3	106	16.99693679668	4.222924307541
3	113	18.135715380057	5.221324367687
3	122	18.825928147832	3.569386452966
3	127	19.037325085917	3.169554289643
3	134	19.464081231083	0.645670656955
3	143	19.706699411295	4.408268745701
3	155	22.300892698015	2.649406959881
3	162	23.333152153879	3.66098848202
3	173	27.36156969684	6.808027259544
3	182	32.303445063512	11.712759958579
3	187	33.417920249293	12.76201813618
3	194	35.089783070709	12.515535277878
3	201	36.18294863939	11.853357507385
3	208	39.525460072049	12.725266479381
3	221	43.901250945777	13.779183146523
3	226	44.658109129754	13.409503311915
3	233	45.926355082675	11.776097570941
3	238	46.343666476816	10.696067324475
3	243	47.371524841175	9.156845410283
3	253	52.924159807215	12.414274321592
3	260	53.828294288145	13.078936488479
3	265	53.884902509657	11.278320428397
3	273	54.656657868893	11.605881025881
3	280	56.748185997884	3.900711153401
3	288	57.599506389612	4.486820003821
3	294	58.488309549069	2.469586335122
3	305	60.404309451539	3.503333079453
3	314	64.310079203978	5.285387643469
3	325	66.92996876458	7.785153724032
3	330	69.595160273317	9.301366176777
3	338	71.040558040932	9.184564508952
3	347	72.463552395763	8.774591133486
3	352	73.535507006481	9.224953754354
3	358	73.974856764989	9.267971321681
3	363	74.129090477762	2.488402760512
3	371	75.210618552873	59.411318358234
3	380	76.177713973815	60.332232474381
3	387	76.211717091728	58.261441753583
3	393	78.926155450397	2.747875349182
3	399	79.725241375952	61.173341087965
3	404	79.888716562331	60.640691904563
3	413	81.372944261164	56.353125266924
3	428	84.226744853093	3.513709468628
3	433	84.310578260675	2.428566883465
3	439	85.00948865135	30.842908361881
3	444	85.154729456611	19.786425625089
3	449	85.482740205651	15.851172066879
3	454	86.267154927821	12.132210144141
3	463	87.911658411623	12.542589068899
3	468	88.537569131745	2.086152412563
3	480	93.920860911188	18.09355301032
3	485	94.549954948963	4.125125904826
3	490	94.566657010551	11.054352605977
3	499	95.551228256984	11.447905801441
3	505	96.774101943984	10.139526441525
4	7	0.611476025569	0.106096790346
4	24	2.650047837663	0.663506016686
4	44	6.702273459049	0.993038211747
4	49	6.805339418593	0.51998974135
4	56	6.978487705882	0.507281460103
4	62	7.665941368033	0.710433666757
4	75	9.122033238131	0.495046150514
4	113	18.135715380057	5.221324367687
4	122	18.825928147832	3.569386452966
4	127	19.037325085917	3.169554289643
4	134	19.464081231083	0.645670656955
4	155	22.300892698015	2.649406959881
4	162	23.333152153879	3.66098848202
4	173	27.36156969684	6.808027259544
4	182	32.303445063512	11.712759958579
4	187	33.417920249293	12.76201813618
4	194	35.089783070709	12.515535277878
4	201	36.18294863939	11.853357507385
4	208	39.525460072049	12.725266479381
4	221	43.901250945777	13.779183146523
4	226	44.658109129754	13.409503311915
4	233	45.926355082675	11.776097570941
4	238	46.343666476816	10.696067324475
4	243	47.371524841175	9.156845410283
4	253	52.924159807215	12.414274321592
4	260	53.828294288145	13.078936488479
4	265	53.884902509657	11.278320428397
4	273	54.656657868893	11.605881025881
4	280	56.748185997884	3.900711153401
4	288	57.599506389612	4.486820003821
4	294	58.488309549069	2.469586335122
4	305	60.404309451539	3.503333079453
4	314	64.310079203978	5.285387643469
4	325	66.92996876458	7.785153724032
4	330	69.595160273317	9.301366176777
4	338	71.040558040932	9.184564508952
4	347	72.463552395763	8.774591133486
4	352	73.535507006481	9.224953754354
4	358	73.974856764989	9.267971321681
4	363	74.129090477762	2.488402760512
4	393	78.926155450397	2.747875349182
4	428	84.226744853093	3.513709468628
4	433	84.310578260675	2.428566883465
4	468	88.537569131745	2.086152412563
4	485	94.549954948963	4.125125904826
5	17	1.654916754784	0.072920069745
5	71	9.06206353261	3.236848672402
5	85	11.751429249845	1.155260263909
5	106	16.99693679668	4.222924307541
5	143	19.706699411295	4.408268745701
5	371	75.210618552873	59.411318358234
5	380	76.177713973815	60.332232474381
5	387	76.211717091728	58.261441753583
5	399	79.725241375952	61.173341087965
5	404	79.888716562331	60.640691904563
5	413	81.372944261164	56.353125266924
5	439	85.00948865135	30.842908361881
5	444	85.154729456611	19.786425625089
5	449	85.482740205651	15.851172066879
5	454	86.267154927821	12.132210144141
5	463	87.911658411623	12.542589068899
5	480	93.920860911188	18.09355301032
5	490	94.566657010551	11.054352605977
5	499	95.551228256984	11.447905801441
5	505	96.774101943984	10.139526441525

