version 2
run First-n3-12-20191125-12:37:04-2172
attr configname First-n3
attr datetime 20191125-12:37:04
attr experiment First-n3
attr inifile omnetpp.ini
attr iterationvars ""
attr iterationvarsf ""
attr measurement ""
attr network org.omnetpp.queueing.Pizza
attr processid 2172
attr repetition 12
attr replication ""
attr resultdir results_no_transient
attr runnumber 12
attr seedset 12
param **.PS.maxInventoriedPS 3
param **.U1.interArrivalTime exponential(2s)
param **.U2.interArrivalTime exponential(4s)
param **.PS.serviceTimeForInventoryU1 exponential(0.8s)
param **.PS.serviceTimeForInventoryU2 exponential(1.0s)
param **.PS.serviceTimeDirectU1 exponential(1.2s)
param **.PS.serviceTimeDirectU2 exponential(1.4s)
param **.PS.probabilityProducing 0.5
param **.CS.serviceTimeU1 exponential(0.8s)
param **.CS.serviceTimeU2 exponential(1.0s)

vector 0 Pizza.EntryQueueU1 queueLength:vector ETV
attr interpolationmode sample-hold
attr title "queue length, vector"
vector 1 Pizza.CS queueLength:vector ETV
attr interpolationmode sample-hold
attr title "queue length, vector"
vector 2 Pizza.EntryQueueU2 queueLength:vector ETV
attr interpolationmode sample-hold
attr title "queue length, vector"
vector 3 Pizza.sink lifeTime:vector ETV
attr interpolationmode none
attr title "lifetime of arrived jobs, vector"
attr unit s
vector 4 Pizza.sink lifeTimeU1:vector ETV
attr interpolationmode none
attr title "lifetime of arrived jobs, vector"
attr unit s
vector 5 Pizza.sink lifeTimeU2:vector ETV
attr interpolationmode none
attr title "lifetime of arrived jobs, vector"
attr unit s
0	0	0	0
0	9	3.02938641821	1
0	11	3.058750860014	2
0	19	3.843532611707	1
0	25	3.92178884275	2
0	28	4.110600934278	1
0	32	6.175797446328	2
0	37	9.048434481314	1
0	43	9.94355337748	0
0	51	11.948661382188	1
0	53	12.299075441925	2
0	54	13.271657336626	1
0	58	13.51687472535	2
0	63	15.123433665667	1
0	67	15.173164941431	2
0	71	15.678719808058	3
0	72	16.162221645315	2
0	78	17.064794533466	3
0	79	17.720892312145	2
0	83	17.748611513252	3
0	86	18.051546637161	2
0	91	18.853725087835	1
0	96	19.09585554251	0
0	102	20.390568628423	1
0	104	20.770088181259	2
0	105	22.67313214234	1
0	110	23.459503011807	0
0	114	23.687608857344	1
0	117	24.495351513305	0
0	121	24.783018379992	1
0	126	26.521243836037	0
0	174	35.435692590008	1
0	178	36.512667523903	2
0	180	36.855431027593	1
0	185	37.11503757803	0
0	196	38.206779432694	1
0	199	38.502897580584	0
0	208	39.945439982886	1
0	215	41.794870231114	2
0	216	41.806269047583	1
0	225	43.400738587664	2
0	228	44.120541904477	1
0	233	44.1350534955	0
0	240	45.209228013486	1
0	243	46.407921770939	0
0	260	47.275488647078	1
0	263	47.623746784025	0
0	269	48.317100321599	1
0	271	48.945080731316	2
0	272	49.180742080437	1
0	282	51.138420218406	0
0	288	51.280540387842	1
0	289	51.862981602079	0
0	302	52.771969328966	1
0	303	54.208368755837	0
0	318	54.861513221572	1
0	320	54.908148713898	2
0	322	55.35982894248	3
0	323	55.924657893937	2
0	332	56.759864396998	1
0	337	56.876287558586	0
0	352	57.592137504632	1
0	355	57.81136707918	0
0	361	57.824049116312	1
0	364	58.554473602753	0
0	399	62.93515205042	1
0	400	64.818983987431	0
0	411	66.761288954078	1
0	412	67.240751788607	0
0	421	68.594959517009	1
0	428	70.780749248536	0
0	436	71.307734131692	1
0	439	71.662573835117	2
0	445	72.748990576137	1
0	451	74.727033509814	0
0	496	80.800015757671	1
0	502	82.89740225031	2
0	503	83.399486704739	1
0	508	83.628674999224	0
1	0	0	0
2	0	0	0
2	5	2.363963738832	1
2	15	3.586343385559	2
2	17	3.722314146963	3
2	27	4.066831363123	4
2	34	7.793293386774	5
2	47	10.420787444956	6
2	62	15.03295652989	7
2	125	26.504256675344	8
2	130	27.755303284805	9
2	132	29.206273108286	10
2	135	30.905837021877	9
2	140	30.926623934591	8
2	146	31.380014593285	9
2	147	31.553062630375	8
2	152	31.641099262501	7
2	157	33.081200409795	6
2	161	34.762885511758	7
2	163	34.876103974938	8
2	167	34.93452298164	9
2	168	35.142525897876	8
2	190	37.796551522957	7
2	198	38.298566867532	8
2	204	39.699441089374	7
2	210	40.773994279592	8
2	222	41.836208716491	9
2	248	46.78964164034	8
2	254	47.174534289545	7
2	262	47.570422137631	8
2	278	49.99601116534	9
2	296	52.595252933097	8
2	308	54.381575870756	7
2	315	54.665404408321	8
2	331	56.727733488936	9
2	343	57.144963575828	8
2	348	57.43773617952	7
2	369	58.610576554663	6
2	374	60.103936487175	5
2	379	60.399789796201	4
2	385	61.429513136578	3
2	392	62.090921539589	4
2	393	62.379616637744	3
2	405	65.123767343837	2
2	417	67.656718064021	1
2	426	70.363584753401	2
2	434	71.010008916922	3
2	443	72.426613060254	4
2	456	75.41049943132	3
2	461	75.597325147588	2
2	469	76.811288281908	1
2	475	76.989011399975	2
2	476	79.086550258254	1
2	481	79.186890345834	0
2	498	80.988043676544	1
2	513	83.80606685422	0
2	519	83.904710685802	1
2	521	84.11611977671	2
2	523	84.563848684587	3
2	524	85.29745606472	2
2	530	86.183912519025	1
2	535	86.619320576327	0
2	566	93.376499014674	1
2	568	93.502059595129	0
3	21	3.843532611707	3.50867576754
3	30	4.110600934278	1.081214516068
3	39	9.048434481314	5.9896836213
3	45	9.94355337748	6.02176453473
3	56	13.271657336626	7.095859890298
3	65	15.123433665667	3.174772283479
3	74	16.162221645315	3.86314620339
3	81	17.720892312145	4.204017586795
3	88	18.051546637161	2.87838169573
3	93	18.853725087835	3.175005279777
3	98	19.09585554251	2.031061009044
3	107	22.67313214234	4.924520629088
3	112	23.459503011807	3.068934383384
3	119	24.495351513305	3.725263332046
3	128	26.521243836037	2.833634978693
3	137	30.905837021877	6.122818641885
3	142	30.926623934591	28.562660195759
3	149	31.553062630375	27.966719244816
3	154	31.641099262501	27.918785115538
3	159	33.081200409795	29.014369046672
3	170	35.142525897876	27.349232511102
3	182	36.855431027593	26.434643582637
3	187	37.11503757803	1.679344988022
3	192	37.796551522957	1.283883999054
3	201	38.502897580584	23.469941050694
3	206	39.699441089374	1.49266165668
3	218	41.806269047583	15.302012372239
3	230	44.120541904477	4.175101921591
3	235	44.1350534955	2.340183264386
3	245	46.407921770939	3.007183183275
3	250	46.78964164034	1.580413626854
3	256	47.174534289545	19.41923100474
3	265	47.623746784025	18.417473675739
3	274	49.180742080437	1.905253433359
3	284	51.138420218406	2.821319896807
3	291	51.862981602079	2.917900870763
3	298	52.595252933097	1.314712545255
3	305	54.208368755837	22.828354162552
3	310	54.381575870756	1.60960654179
3	325	55.924657893937	21.161772382179
3	334	56.759864396998	1.898351175426
3	339	56.876287558586	1.968138844688
3	345	57.144963575828	1.785134633348
3	350	57.43773617952	22.561632204582
3	357	57.81136707918	22.87684409754
3	366	58.554473602753	0.962336098121
3	371	58.610576554663	0.786527438351
3	376	60.103936487175	21.805369619643
3	381	60.399789796201	19.625795516609
3	387	61.429513136578	19.593304420087
3	395	62.379616637744	14.809194500113
3	402	64.818983987431	14.822972822091
3	407	65.123767343837	2.188615293417
3	414	67.240751788607	12.575347380286
3	419	67.656718064021	0.895429109943
3	430	70.780749248536	14.0530157596
3	447	72.748990576137	4.154031059128
3	453	74.727033509814	3.419299378122
3	458	75.41049943132	3.747925596203
3	463	75.597325147588	13.506403607999
3	471	76.811288281908	6.447703528507
3	478	79.086550258254	8.076541341332
3	483	79.186890345834	6.76027728558
3	487	79.552532489307	2.563521089332
3	505	83.399486704739	2.783735018542
3	510	83.628674999224	2.828659241553
3	515	83.80606685422	0.90866460391
3	526	85.29745606472	4.309412388176
3	532	86.183912519025	2.279201833223
3	537	86.619320576327	2.503200799617
3	544	88.11668652318	3.552837838593
3	551	89.22912539758	0.364844137447
3	559	90.798033953445	0.450170880948
3	570	93.502059595129	1.131161990646
3	576	94.115309009219	0.738809994545
4	21	3.843532611707	3.50867576754
4	30	4.110600934278	1.081214516068
4	39	9.048434481314	5.9896836213
4	45	9.94355337748	6.02176453473
4	56	13.271657336626	7.095859890298
4	65	15.123433665667	3.174772283479
4	74	16.162221645315	3.86314620339
4	81	17.720892312145	4.204017586795
4	88	18.051546637161	2.87838169573
4	93	18.853725087835	3.175005279777
4	98	19.09585554251	2.031061009044
4	107	22.67313214234	4.924520629088
4	112	23.459503011807	3.068934383384
4	119	24.495351513305	3.725263332046
4	128	26.521243836037	2.833634978693
4	137	30.905837021877	6.122818641885
4	187	37.11503757803	1.679344988022
4	192	37.796551522957	1.283883999054
4	206	39.699441089374	1.49266165668
4	230	44.120541904477	4.175101921591
4	235	44.1350534955	2.340183264386
4	245	46.407921770939	3.007183183275
4	250	46.78964164034	1.580413626854
4	274	49.180742080437	1.905253433359
4	284	51.138420218406	2.821319896807
4	291	51.862981602079	2.917900870763
4	298	52.595252933097	1.314712545255
4	310	54.381575870756	1.60960654179
4	334	56.759864396998	1.898351175426
4	339	56.876287558586	1.968138844688
4	345	57.144963575828	1.785134633348
4	366	58.554473602753	0.962336098121
4	371	58.610576554663	0.786527438351
4	407	65.123767343837	2.188615293417
4	419	67.656718064021	0.895429109943
4	447	72.748990576137	4.154031059128
4	453	74.727033509814	3.419299378122
4	458	75.41049943132	3.747925596203
4	505	83.399486704739	2.783735018542
4	510	83.628674999224	2.828659241553
4	515	83.80606685422	0.90866460391
4	551	89.22912539758	0.364844137447
4	570	93.502059595129	1.131161990646
5	142	30.926623934591	28.562660195759
5	149	31.553062630375	27.966719244816
5	154	31.641099262501	27.918785115538
5	159	33.081200409795	29.014369046672
5	170	35.142525897876	27.349232511102
5	182	36.855431027593	26.434643582637
5	201	38.502897580584	23.469941050694
5	218	41.806269047583	15.302012372239
5	256	47.174534289545	19.41923100474
5	265	47.623746784025	18.417473675739
5	305	54.208368755837	22.828354162552
5	325	55.924657893937	21.161772382179
5	350	57.43773617952	22.561632204582
5	357	57.81136707918	22.87684409754
5	376	60.103936487175	21.805369619643
5	381	60.399789796201	19.625795516609
5	387	61.429513136578	19.593304420087
5	395	62.379616637744	14.809194500113
5	402	64.818983987431	14.822972822091
5	414	67.240751788607	12.575347380286
5	430	70.780749248536	14.0530157596
5	463	75.597325147588	13.506403607999
5	471	76.811288281908	6.447703528507
5	478	79.086550258254	8.076541341332
5	483	79.186890345834	6.76027728558
5	487	79.552532489307	2.563521089332
5	526	85.29745606472	4.309412388176
5	532	86.183912519025	2.279201833223
5	537	86.619320576327	2.503200799617
5	544	88.11668652318	3.552837838593
5	559	90.798033953445	0.450170880948
5	576	94.115309009219	0.738809994545

