version 2
run First-n5-16-20191125-12:37:10-11216
attr configname First-n5
attr datetime 20191125-12:37:10
attr experiment First-n5
attr inifile omnetpp.ini
attr iterationvars ""
attr iterationvarsf ""
attr measurement ""
attr network org.omnetpp.queueing.Pizza
attr processid 11216
attr repetition 16
attr replication ""
attr resultdir results_no_transient
attr runnumber 16
attr seedset 16
param **.PS.maxInventoriedPS 5
param **.U1.interArrivalTime exponential(2s)
param **.U2.interArrivalTime exponential(4s)
param **.PS.serviceTimeForInventoryU1 exponential(0.8s)
param **.PS.serviceTimeForInventoryU2 exponential(1.0s)
param **.PS.serviceTimeDirectU1 exponential(1.2s)
param **.PS.serviceTimeDirectU2 exponential(1.4s)
param **.PS.probabilityProducing 0.5
param **.CS.serviceTimeU1 exponential(0.8s)
param **.CS.serviceTimeU2 exponential(1.0s)

vector 0 Pizza.EntryQueueU1 queueLength:vector ETV
attr interpolationmode sample-hold
attr title "queue length, vector"
vector 1 Pizza.CS queueLength:vector ETV
attr interpolationmode sample-hold
attr title "queue length, vector"
vector 2 Pizza.EntryQueueU2 queueLength:vector ETV
attr interpolationmode sample-hold
attr title "queue length, vector"
vector 3 Pizza.sink lifeTime:vector ETV
attr interpolationmode none
attr title "lifetime of arrived jobs, vector"
attr unit s
vector 4 Pizza.sink lifeTimeU1:vector ETV
attr interpolationmode none
attr title "lifetime of arrived jobs, vector"
attr unit s
vector 5 Pizza.sink lifeTimeU2:vector ETV
attr interpolationmode none
attr title "lifetime of arrived jobs, vector"
attr unit s
0	0	0	0
0	57	8.094712310166	1
0	58	8.774682777377	0
0	72	10.958473017454	1
0	73	11.092382282345	0
0	94	15.123345602417	1
0	97	16.597374855816	0
0	121	21.200745135319	1
0	125	21.529687796634	0
0	133	24.2456731778	1
0	134	24.542391722226	0
0	145	24.730909538225	1
0	149	25.254692297628	2
0	151	25.58452508837	1
0	157	26.362308645457	0
0	163	27.967012179477	1
0	167	31.288886386063	2
0	169	32.415424404648	3
0	170	33.696968677607	2
0	174	35.317076098543	3
0	178	37.774387019129	4
0	179	38.549093850981	3
0	183	38.9177716195	4
0	186	40.147223904422	3
0	192	41.382351772484	4
0	193	42.178442291119	3
0	201	44.838175214912	4
0	203	45.077647528955	5
0	204	46.430929618448	4
0	210	46.934871810549	5
0	212	47.091735140531	6
0	213	47.719597157601	5
0	218	48.057934627817	4
0	222	48.093047894669	5
0	224	48.30504490979	6
0	230	49.285453045999	5
0	237	50.313311410358	4
0	243	50.975917030455	5
0	244	51.153654653305	4
0	248	51.359079427274	5
0	250	51.519477938622	6
0	253	52.483982668285	5
0	258	54.28421298669	4
0	264	55.044190786677	5
0	265	55.236153837212	4
0	271	58.876944823763	3
0	278	59.726430899132	2
0	283	59.91277142434	1
0	289	60.645052557704	2
0	290	60.801574583797	1
0	295	61.710630654663	0
0	314	66.164091402028	1
0	318	68.343287327915	0
0	324	69.616347380973	1
0	325	69.800859894751	0
0	329	69.971666367602	1
0	332	70.382647601383	0
0	338	70.633252501239	1
0	339	70.776094490741	0
0	345	71.642641103679	1
0	347	71.793388156513	2
0	348	72.593515092094	1
0	354	74.640796766678	0
0	381	77.121286147323	1
0	383	77.325371467431	2
0	385	77.460400388753	3
0	386	78.474518017597	2
0	393	80.016222713575	1
0	398	80.740002744277	0
0	402	81.21433932397	1
0	404	81.541289696729	2
0	408	81.981279688418	3
0	410	82.826311653684	4
0	411	82.950617819728	3
0	415	84.649071759501	4
0	419	85.818047752246	5
0	424	88.08424875737	4
0	429	88.195106029999	3
0	435	89.78819180081	2
0	440	89.872025208392	1
0	446	90.387453094218	2
0	449	90.779931037134	1
0	454	91.090690233676	0
0	466	91.785273875567	1
0	468	93.284397429484	0
0	481	95.359968045181	1
0	483	95.61236722312	2
0	484	96.093671813314	1
0	489	96.42789534212	0
0	495	97.291189208779	1
0	496	97.395660804333	0
0	507	99.318122766946	1
0	510	99.72834827545	2
1	0	0	0
2	0	0	0
2	46	6.793817771203	1
2	48	7.053016687338	0
2	64	10.136776543886	1
2	65	10.489644347278	0
2	96	16.387924593235	1
2	102	16.606611116775	0
2	131	21.669982911685	1
2	139	24.569655549516	0
2	147	25.102404006413	1
2	165	29.500087959235	2
2	197	42.69659128736	3
2	228	48.833356780496	4
2	236	50.020295824826	5
2	301	63.608260267965	6
2	302	64.565590196019	5
2	307	64.876386190944	4
2	317	67.274195728559	5
2	359	74.795030479451	4
2	366	75.876558554562	3
2	371	75.991118194098	2
2	377	76.814102289069	3
2	379	76.950114760723	4
2	422	86.019625327222	5
2	444	90.088491211099	6
2	459	91.297691267007	5
2	474	93.534997514531	6
2	476	93.753427657606	7
2	479	94.88859816732	8
2	500	98.296473691716	9
2	502	98.363281938068	10
3	7	0.611476025569	0.106096790346
3	17	1.654916754784	0.072920069745
3	24	2.650047837663	0.663506016686
3	37	5.783577874716	0.074342627414
3	50	7.053016687338	1.22780182713
3	60	8.774682777377	1.980865006174
3	67	10.489644347278	2.394932037112
3	75	11.092382282345	0.955605738459
3	80	12.016590493472	1.058117476018
3	87	12.552278404347	0.504883635291
3	99	16.597374855816	3.378339446033
3	104	16.606611116775	1.483265514358
3	108	16.887639713092	0.499715119857
3	116	18.711627799116	1.246131514203
3	127	21.529687796634	0.677004846205
3	136	24.542391722226	3.341646586907
3	141	24.569655549516	0.323982371716
3	153	25.58452508837	3.914542176685
3	159	26.362308645457	1.631399107232
3	172	33.696968677607	8.442276379979
3	181	38.549093850981	10.582081671504
3	188	40.147223904422	8.858337518359
3	195	42.178442291119	9.763017886471
3	206	46.430929618448	11.113853519905
3	215	47.719597157601	9.945210138472
3	220	48.057934627817	9.140163008317
3	232	49.285453045999	7.903101273515
3	239	50.313311410358	5.475136195446
3	246	51.153654653305	6.07600712435
3	255	52.483982668285	5.549110857736
3	260	54.28421298669	7.192477846159
3	267	55.236153837212	7.143105942543
3	273	58.876944823763	10.571899913973
3	280	59.726430899132	8.750513868677
3	285	59.91277142434	8.553691997066
3	292	60.801574583797	9.282096645175
3	297	61.710630654663	6.666439867986
3	304	64.565590196019	3.920537638315
3	309	64.876386190944	39.773982184531
3	320	68.343287327915	38.84319936868
3	327	69.800859894751	3.636768492723
3	334	70.382647601383	0.76630022041
3	341	70.776094490741	0.804428123139
3	350	72.593515092094	1.960262590855
3	356	74.640796766678	2.998155662999
3	361	74.795030479451	3.001642322938
3	368	75.876558554562	33.179967267202
3	373	75.991118194098	27.157761413602
3	388	78.474518017597	28.454222192771
3	395	80.016222713575	2.894936566252
3	400	80.740002744277	3.414631276846
3	413	82.950617819728	5.490217430975
3	426	88.08424875737	6.8699094334
3	431	88.195106029999	6.65381633327
3	437	89.78819180081	7.806912112392
3	442	89.872025208392	7.045713554708
3	451	90.779931037134	6.130859277633
3	456	91.090690233676	5.27264248143
3	461	91.297691267007	0.910238172789
3	470	93.284397429484	29.676137161519
3	486	96.093671813314	4.308397937747
3	491	96.42789534212	1.067927296939
3	498	97.395660804333	1.783293581213
4	7	0.611476025569	0.106096790346
4	24	2.650047837663	0.663506016686
4	37	5.783577874716	0.074342627414
4	67	10.489644347278	2.394932037112
4	80	12.016590493472	1.058117476018
4	87	12.552278404347	0.504883635291
4	99	16.597374855816	3.378339446033
4	104	16.606611116775	1.483265514358
4	116	18.711627799116	1.246131514203
4	127	21.529687796634	0.677004846205
4	136	24.542391722226	3.341646586907
4	141	24.569655549516	0.323982371716
4	159	26.362308645457	1.631399107232
4	172	33.696968677607	8.442276379979
4	181	38.549093850981	10.582081671504
4	188	40.147223904422	8.858337518359
4	195	42.178442291119	9.763017886471
4	206	46.430929618448	11.113853519905
4	215	47.719597157601	9.945210138472
4	220	48.057934627817	9.140163008317
4	232	49.285453045999	7.903101273515
4	239	50.313311410358	5.475136195446
4	246	51.153654653305	6.07600712435
4	255	52.483982668285	5.549110857736
4	260	54.28421298669	7.192477846159
4	267	55.236153837212	7.143105942543
4	273	58.876944823763	10.571899913973
4	280	59.726430899132	8.750513868677
4	285	59.91277142434	8.553691997066
4	292	60.801574583797	9.282096645175
4	297	61.710630654663	6.666439867986
4	304	64.565590196019	3.920537638315
4	327	69.800859894751	3.636768492723
4	334	70.382647601383	0.76630022041
4	341	70.776094490741	0.804428123139
4	350	72.593515092094	1.960262590855
4	356	74.640796766678	2.998155662999
4	361	74.795030479451	3.001642322938
4	395	80.016222713575	2.894936566252
4	400	80.740002744277	3.414631276846
4	413	82.950617819728	5.490217430975
4	426	88.08424875737	6.8699094334
4	431	88.195106029999	6.65381633327
4	437	89.78819180081	7.806912112392
4	442	89.872025208392	7.045713554708
4	451	90.779931037134	6.130859277633
4	456	91.090690233676	5.27264248143
4	461	91.297691267007	0.910238172789
4	486	96.093671813314	4.308397937747
4	491	96.42789534212	1.067927296939
4	498	97.395660804333	1.783293581213
5	17	1.654916754784	0.072920069745
5	50	7.053016687338	1.22780182713
5	60	8.774682777377	1.980865006174
5	75	11.092382282345	0.955605738459
5	108	16.887639713092	0.499715119857
5	153	25.58452508837	3.914542176685
5	309	64.876386190944	39.773982184531
5	320	68.343287327915	38.84319936868
5	368	75.876558554562	33.179967267202
5	373	75.991118194098	27.157761413602
5	388	78.474518017597	28.454222192771
5	470	93.284397429484	29.676137161519

