version 2
run First-n2-12-20191125-12:37:03-1956
attr configname First-n2
attr datetime 20191125-12:37:03
attr experiment First-n2
attr inifile omnetpp.ini
attr iterationvars ""
attr iterationvarsf ""
attr measurement ""
attr network org.omnetpp.queueing.Pizza
attr processid 1956
attr repetition 12
attr replication ""
attr resultdir results_no_transient
attr runnumber 12
attr seedset 12
param **.PS.maxInventoriedPS 2
param **.U1.interArrivalTime exponential(2s)
param **.U2.interArrivalTime exponential(4s)
param **.PS.serviceTimeForInventoryU1 exponential(0.8s)
param **.PS.serviceTimeForInventoryU2 exponential(1.0s)
param **.PS.serviceTimeDirectU1 exponential(1.2s)
param **.PS.serviceTimeDirectU2 exponential(1.4s)
param **.PS.probabilityProducing 0.5
param **.CS.serviceTimeU1 exponential(0.8s)
param **.CS.serviceTimeU2 exponential(1.0s)

vector 0 Pizza.EntryQueueU1 queueLength:vector ETV
attr interpolationmode sample-hold
attr title "queue length, vector"
vector 1 Pizza.CS queueLength:vector ETV
attr interpolationmode sample-hold
attr title "queue length, vector"
vector 2 Pizza.EntryQueueU2 queueLength:vector ETV
attr interpolationmode sample-hold
attr title "queue length, vector"
vector 3 Pizza.sink lifeTime:vector ETV
attr interpolationmode none
attr title "lifetime of arrived jobs, vector"
attr unit s
vector 4 Pizza.sink lifeTimeU1:vector ETV
attr interpolationmode none
attr title "lifetime of arrived jobs, vector"
attr unit s
vector 5 Pizza.sink lifeTimeU2:vector ETV
attr interpolationmode none
attr title "lifetime of arrived jobs, vector"
attr unit s
0	0	0	0
0	9	3.02938641821	1
0	11	3.058750860014	2
0	19	3.843532611707	1
0	25	3.92178884275	2
0	26	3.96159914839	1
0	34	4.854878354932	2
0	35	7.652884372927	1
0	46	10.390380917026	0
0	52	10.627742290792	1
0	54	11.956385277112	2
0	57	12.484974431512	1
0	61	14.262469819579	2
0	63	14.612883879316	3
0	65	15.830683162741	4
0	68	16.298175181484	3
0	75	18.336002792602	2
0	81	18.723285342282	3
0	84	19.529795156288	2
0	90	20.10936006769	3
0	91	20.595594245793	2
0	97	20.793177047476	3
0	98	20.826118984245	2
0	105	21.367550047163	1
0	113	23.21868187903	2
0	116	26.102585369378	1
0	125	28.270661371737	0
0	136	31.837892359191	1
0	137	31.95116483113	0
0	141	32.228862019865	1
0	145	33.396674852695	0
0	182	38.800865764851	1
0	184	38.899705865693	2
0	185	38.916997069968	1
0	191	38.999323011669	2
0	195	39.612610083613	3
0	199	40.218739147152	2
0	207	41.028386276471	1
0	213	41.977864322313	2
0	214	42.368822756636	1
0	219	43.826532657053	0
0	223	43.839544908444	1
0	225	43.965711767716	2
0	230	45.172987847384	1
0	234	45.273744653716	2
0	237	46.600421747833	1
0	242	47.31900085431	0
0	258	49.041699503432	1
0	260	49.90125501078	2
0	261	50.21636957574	1
0	265	51.081090260057	2
0	268	51.899190897319	1
0	273	53.169323520845	0
0	277	53.298158752441	1
0	283	55.147443935686	2
0	284	56.156242791221	1
0	289	57.713238087633	0
0	311	61.005678997751	1
0	312	61.123192434576	0
0	328	65.168506905141	1
0	331	66.130410570723	0
0	340	68.394738550622	1
0	343	68.809138054064	0
0	358	69.342571597187	1
0	363	70.997837818638	0
0	373	71.566770229912	1
0	377	72.63879921978	2
0	381	72.932919338103	3
0	386	73.684562153433	2
0	391	73.958691804811	1
0	397	74.320170727997	2
0	399	74.754362617183	3
0	401	74.894619996958	4
0	403	75.046676639667	3
0	410	75.836501402772	2
0	415	76.159585313025	1
0	421	76.445772173028	2
0	422	76.463035270564	1
0	426	78.098357743496	2
0	428	79.165541815795	3
0	431	82.147327612468	2
0	437	83.19464210644	1
0	441	83.301873422701	2
0	446	84.420870943683	1
0	450	85.135543985632	2
0	454	87.002314496449	1
0	463	87.131599329153	0
0	469	87.848318600315	1
0	471	88.556620671981	2
0	473	88.911460375406	3
0	474	89.135597902878	2
0	480	89.85411865339	3
0	482	90.699122286091	4
0	483	91.299891558249	3
0	490	92.56560655211	2
0	495	93.732397137959	1
0	501	97.384958385603	2
0	506	99.236425598409	1
0	510	99.270121781855	2
0	512	99.476372785686	3
0	514	99.72343473612	4
1	0	0	0
2	0	0	0
2	5	2.363963738832	1
2	15	3.586343385559	2
2	17	3.722314146963	3
2	30	4.066831363123	4
2	41	8.574848570278	5
2	43	8.583895750357	6
2	45	9.426169261788	7
2	56	12.372275922611	8
2	72	18.21866117119	9
2	83	18.799736277772	10
2	104	21.348541530016	11
2	109	21.501130027918	12
2	111	22.482899554437	13
2	120	26.401761547231	14
2	122	26.920391681111	15
2	130	29.337410191761	14
2	151	33.771045048155	13
2	158	33.892480374636	14
2	159	33.936298729092	13
2	166	35.230420554157	12
2	171	35.479975487148	11
2	176	37.351932609427	10
2	193	39.167332724145	11
2	197	39.649688333461	12
2	206	40.947721085644	13
2	227	44.425042186028	14
2	248	48.009460509847	15
2	249	48.232491557051	14
2	256	48.563731909403	15
2	294	57.78975920175	14
2	301	59.928073286596	15
2	302	60.093379785242	14
2	308	60.123054102641	15
2	318	61.878136486656	14
2	324	62.670132993206	13
2	336	66.319603999561	12
2	349	68.989810145497	11
2	354	69.075753548062	10
2	360	69.976415438243	11
2	369	71.441148578262	10
2	375	71.60127189345	11
2	379	72.772362308217	12
2	383	73.236185531576	13
2	443	83.912042972986	14
2	460	87.052596496885	15
2	462	87.054285786547	16
2	489	92.545174059138	17
2	499	94.762738075749	18
2	503	98.18006768328	19
3	21	3.843532611707	3.50867576754
3	28	3.96159914839	0.93221273018
3	37	7.652884372927	4.594133512913
3	48	10.390380917026	6.468592074276
3	59	12.484974431512	7.63009607658
3	70	16.298175181484	5.670432890692
3	77	18.336002792602	6.37961751549
3	86	19.529795156288	5.267325336709
3	93	20.595594245793	5.982710366477
3	100	20.826118984245	4.995435821504
3	107	21.367550047163	2.644264704881
3	118	26.102585369378	5.993225301688
3	127	28.270661371737	7.477484324261
3	132	29.337410191761	6.118728312731
3	139	31.95116483113	29.587201092298
3	147	33.396674852695	1.558782493504
3	153	33.771045048155	1.54218302829
3	161	33.936298729092	30.349955343533
3	168	35.230420554157	31.508106407194
3	173	35.479975487148	31.413144124025
3	178	37.351932609427	28.777084039149
3	187	38.916997069968	30.333101319611
3	201	40.218739147152	1.417873382301
3	209	41.028386276471	2.128680410778
3	216	42.368822756636	3.369499744967
3	221	43.826532657053	4.21392257344
3	232	45.172987847384	3.195123525071
3	239	46.600421747833	2.760876839389
3	244	47.31900085431	3.353289086594
3	251	48.232491557051	2.958746903335
3	263	50.21636957574	40.790200313952
3	270	51.899190897319	2.857491393887
3	275	53.169323520845	3.268068510065
3	286	56.156242791221	5.075152531164
3	291	57.713238087633	4.415079335192
3	296	57.78975920175	2.642315266064
3	304	60.093379785242	47.721103862631
3	314	61.123192434576	42.904531263386
3	320	61.878136486656	0.872457488905
3	326	62.670132993206	43.870396715434
3	333	66.130410570723	44.781869040707
3	338	66.319603999561	1.15109709442
3	345	68.809138054064	47.308008026146
3	351	68.989810145497	0.595071594875
3	356	69.075753548062	46.592853993625
3	365	70.997837818638	44.596076271407
3	371	71.441148578262	2.098576981075
3	388	73.684562153433	46.764170472322
3	393	73.958691804811	2.391921574899
3	405	75.046676639667	2.407877419887
3	412	75.836501402772	2.903582064669
3	417	76.159585313025	1.839414585028
3	424	76.463035270564	1.708672653381
3	433	82.147327612468	7.25270761551
3	439	83.19464210644	6.748869933412
3	448	84.420870943683	6.322513200187
3	456	87.002314496449	7.836772680654
3	465	87.131599329153	3.829725906452
3	476	89.135597902878	4.000053917246
3	485	91.299891558249	3.451572957934
3	492	92.56560655211	4.008985880129
3	497	93.732397137959	4.820936762553
3	508	99.236425598409	9.382306945019
4	21	3.843532611707	3.50867576754
4	28	3.96159914839	0.93221273018
4	37	7.652884372927	4.594133512913
4	48	10.390380917026	6.468592074276
4	59	12.484974431512	7.63009607658
4	70	16.298175181484	5.670432890692
4	77	18.336002792602	6.37961751549
4	86	19.529795156288	5.267325336709
4	93	20.595594245793	5.982710366477
4	100	20.826118984245	4.995435821504
4	107	21.367550047163	2.644264704881
4	118	26.102585369378	5.993225301688
4	127	28.270661371737	7.477484324261
4	132	29.337410191761	6.118728312731
4	147	33.396674852695	1.558782493504
4	153	33.771045048155	1.54218302829
4	201	40.218739147152	1.417873382301
4	209	41.028386276471	2.128680410778
4	216	42.368822756636	3.369499744967
4	221	43.826532657053	4.21392257344
4	232	45.172987847384	3.195123525071
4	239	46.600421747833	2.760876839389
4	244	47.31900085431	3.353289086594
4	251	48.232491557051	2.958746903335
4	270	51.899190897319	2.857491393887
4	275	53.169323520845	3.268068510065
4	286	56.156242791221	5.075152531164
4	291	57.713238087633	4.415079335192
4	296	57.78975920175	2.642315266064
4	320	61.878136486656	0.872457488905
4	338	66.319603999561	1.15109709442
4	351	68.989810145497	0.595071594875
4	371	71.441148578262	2.098576981075
4	393	73.958691804811	2.391921574899
4	405	75.046676639667	2.407877419887
4	412	75.836501402772	2.903582064669
4	417	76.159585313025	1.839414585028
4	424	76.463035270564	1.708672653381
4	433	82.147327612468	7.25270761551
4	439	83.19464210644	6.748869933412
4	448	84.420870943683	6.322513200187
4	456	87.002314496449	7.836772680654
4	465	87.131599329153	3.829725906452
4	476	89.135597902878	4.000053917246
4	485	91.299891558249	3.451572957934
4	492	92.56560655211	4.008985880129
4	497	93.732397137959	4.820936762553
4	508	99.236425598409	9.382306945019
5	139	31.95116483113	29.587201092298
5	161	33.936298729092	30.349955343533
5	168	35.230420554157	31.508106407194
5	173	35.479975487148	31.413144124025
5	178	37.351932609427	28.777084039149
5	187	38.916997069968	30.333101319611
5	263	50.21636957574	40.790200313952
5	304	60.093379785242	47.721103862631
5	314	61.123192434576	42.904531263386
5	326	62.670132993206	43.870396715434
5	333	66.130410570723	44.781869040707
5	345	68.809138054064	47.308008026146
5	356	69.075753548062	46.592853993625
5	365	70.997837818638	44.596076271407
5	388	73.684562153433	46.764170472322

