version 2
run First-n2-7-20191125-12:36:56-9004
attr configname First-n2
attr datetime 20191125-12:36:56
attr experiment First-n2
attr inifile omnetpp.ini
attr iterationvars ""
attr iterationvarsf ""
attr measurement ""
attr network org.omnetpp.queueing.Pizza
attr processid 9004
attr repetition 7
attr replication ""
attr resultdir results_no_transient
attr runnumber 7
attr seedset 7
param **.PS.maxInventoriedPS 2
param **.U1.interArrivalTime exponential(2s)
param **.U2.interArrivalTime exponential(4s)
param **.PS.serviceTimeForInventoryU1 exponential(0.8s)
param **.PS.serviceTimeForInventoryU2 exponential(1.0s)
param **.PS.serviceTimeDirectU1 exponential(1.2s)
param **.PS.serviceTimeDirectU2 exponential(1.4s)
param **.PS.probabilityProducing 0.5
param **.CS.serviceTimeU1 exponential(0.8s)
param **.CS.serviceTimeU2 exponential(1.0s)

vector 0 Pizza.EntryQueueU1 queueLength:vector ETV
attr interpolationmode sample-hold
attr title "queue length, vector"
vector 1 Pizza.CS queueLength:vector ETV
attr interpolationmode sample-hold
attr title "queue length, vector"
vector 2 Pizza.EntryQueueU2 queueLength:vector ETV
attr interpolationmode sample-hold
attr title "queue length, vector"
vector 3 Pizza.sink lifeTime:vector ETV
attr interpolationmode none
attr title "lifetime of arrived jobs, vector"
attr unit s
vector 4 Pizza.sink lifeTimeU1:vector ETV
attr interpolationmode none
attr title "lifetime of arrived jobs, vector"
attr unit s
vector 5 Pizza.sink lifeTimeU2:vector ETV
attr interpolationmode none
attr title "lifetime of arrived jobs, vector"
attr unit s
0	0	0	0
0	12	3.186271203354	1
0	16	3.922646749257	2
0	18	4.535346124087	3
0	20	5.926127373993	4
0	22	6.107604223705	5
0	24	6.257161520631	6
0	30	7.344452251714	7
0	32	7.741080339274	6
0	42	8.140385499458	5
0	47	8.332398939077	4
0	53	9.61851404012	5
0	55	10.227719621579	6
0	57	10.278148534068	7
0	59	10.983238070839	6
0	64	11.192644628015	5
0	73	13.056848400218	6
0	74	13.340759820876	5
0	81	14.539056613882	6
0	83	14.750831197976	7
0	84	14.807977375928	6
0	88	15.20927791945	7
0	91	15.971452075281	6
0	95	16.558972778663	7
0	97	17.856855046391	8
0	99	18.714598006136	9
0	103	19.625664899779	10
0	104	20.069874813944	9
0	108	22.553290467911	10
0	110	23.307030263865	11
0	114	23.70290044453	12
0	119	24.010871902301	13
0	120	24.353930720808	12
0	125	24.619761611965	11
0	129	24.881622992418	12
0	134	26.191316855534	11
0	141	27.453551977526	10
0	146	27.739279546748	9
0	154	29.202802346455	8
0	159	29.44275266354	7
0	163	29.958074383702	8
0	166	30.163330818757	7
0	174	30.997131357979	8
0	175	31.452495849938	7
0	181	33.30514195808	8
0	183	34.649569059621	9
0	184	35.371246162018	8
0	194	36.946732624157	9
0	198	39.041348068506	10
0	202	40.671586903849	11
0	205	40.981687771652	12
0	208	41.747222106498	11
0	214	42.169755688882	12
0	215	42.258640355743	11
0	219	44.337458000585	12
0	222	44.764248929535	11
0	228	45.896155909315	10
0	233	46.013913548021	9
0	238	47.704219189873	8
0	242	47.984783679819	9
0	245	48.456318163393	8
0	249	48.699330782034	9
0	253	49.771281854056	10
0	257	50.960133540017	11
0	262	53.356942370923	10
0	266	53.9425579417	11
0	268	54.175637999266	12
0	272	55.410346056633	13
0	273	55.448528065229	12
0	281	56.78833411959	13
0	284	58.317811987974	12
0	288	60.964493375194	13
0	294	61.50532598804	14
0	297	61.888571616718	13
0	302	63.070219439063	12
0	309	65.446124920078	11
0	313	65.674985687058	12
0	315	65.81851926413	13
0	320	67.188944970765	14
0	322	68.015301238302	13
0	327	69.057338326874	12
0	332	70.191666602907	11
0	340	72.342920676992	10
0	345	72.388599930188	9
0	351	72.938709118233	10
0	354	74.018494009474	9
0	358	74.810526719724	10
0	365	76.577791071998	11
0	367	77.472397227317	10
0	372	77.67536050522	9
0	377	78.35963478238	8
0	381	78.730465918189	9
0	385	79.101977756612	10
0	386	79.93107363505	9
0	392	81.343152533539	8
0	397	81.934658073697	7
0	401	82.991458145222	8
0	403	84.328572106474	9
0	405	84.969695141293	10
0	407	85.580115352061	11
0	409	85.950609576153	12
0	415	87.449138127172	13
0	417	89.402406011286	14
0	418	89.699802239145	13
0	422	89.842534824875	14
0	426	91.007642651118	15
0	427	91.907650511475	14
0	432	94.294924884372	13
0	437	94.908695591426	12
0	444	97.224513009879	11
0	449	97.469434394699	10
0	453	97.575510864919	11
0	457	98.236784148398	12
0	459	98.328382571269	13
0	460	98.816644609022	12
0	465	99.18559818578	11
1	0	0	0
2	0	0	0
2	7	1.031659898738	1
2	8	1.648071280365	0
2	14	3.463833041628	1
2	26	6.556890160398	2
2	38	7.807188770871	3
2	40	8.080031528368	4
2	70	12.567519483451	5
2	112	23.666160573974	6
2	140	27.066537451603	7
2	150	27.862544854356	8
2	170	30.666900546947	9
2	188	35.61005343948	10
2	190	35.828421801524	11
2	192	36.496132421233	12
2	196	37.973741544133	13
2	207	41.565528451826	14
2	251	49.111590927789	15
2	255	50.304970357376	16
2	261	53.239861184265	17
2	277	55.69987880718	18
2	279	56.578355235966	19
2	290	61.073075960396	20
2	292	61.239097414555	21
2	306	63.103736320195	22
2	336	70.475012190253	23
2	353	73.356271841971	24
2	360	75.423972423447	25
2	413	86.800089321069	26
2	441	96.395700899401	27
3	10	1.648071280365	1.489317457428
3	34	7.741080339274	6.709420440536
3	44	8.140385499458	4.954114296104
3	49	8.332398939077	4.40975218982
3	61	10.983238070839	6.447891946752
3	66	11.192644628015	5.266517254022
3	76	13.340759820876	7.233155597171
3	86	14.807977375928	8.550815855297
3	93	15.971452075281	8.626999823567
3	106	20.069874813944	10.451360773824
3	122	24.353930720808	14.126211099229
3	127	24.619761611965	14.341613077897
3	136	26.191316855534	13.134468455316
3	143	27.453551977526	12.914495363644
3	148	27.739279546748	12.988448348772
3	156	29.202802346455	13.993524427005
3	161	29.44275266354	12.883779884877
3	168	30.163330818757	12.306475772366
3	177	31.452495849938	12.737897843802
3	186	35.371246162018	15.745581262239
3	210	41.747222106498	19.193931638587
3	217	42.258640355743	18.951610091878
3	224	44.764248929535	21.061348485005
3	230	45.896155909315	21.885284007014
3	235	46.013913548021	21.132290555603
3	240	47.704219189873	17.746144806171
3	247	48.456318163393	17.459186805414
3	264	53.356942370923	20.051800412843
3	275	55.448528065229	20.798959005608
3	286	58.317811987974	21.371079363817
3	299	61.888571616718	22.847223548212
3	304	63.070219439063	22.398632535214
3	311	65.446124920078	24.464437148426
3	324	68.015301238302	25.84554554942
3	329	69.057338326874	24.719880326289
3	334	70.191666602907	22.206882923088
3	342	72.342920676992	23.643589894958
3	347	72.388599930188	22.617318076132
3	356	74.018494009474	23.058360469457
3	369	77.472397227317	23.529839285617
3	374	77.67536050522	23.499722505954
3	379	78.35963478238	22.949288725747
3	388	79.93107363505	23.14273951546
3	394	81.343152533539	20.378659158345
3	399	81.934658073697	20.429332085657
3	420	89.699802239145	24.024816552087
3	429	91.907650511475	26.089131247345
3	434	94.294924884372	27.105979913607
3	439	94.908695591426	21.969986473193
3	446	97.224513009879	22.413986290155
3	451	97.469434394699	20.891643322701
3	462	98.816644609022	20.086178690833
3	467	99.18559818578	20.083620429168
4	10	1.648071280365	1.489317457428
4	44	8.140385499458	4.954114296104
4	49	8.332398939077	4.40975218982
4	61	10.983238070839	6.447891946752
4	66	11.192644628015	5.266517254022
4	76	13.340759820876	7.233155597171
4	86	14.807977375928	8.550815855297
4	93	15.971452075281	8.626999823567
4	106	20.069874813944	10.451360773824
4	122	24.353930720808	14.126211099229
4	127	24.619761611965	14.341613077897
4	136	26.191316855534	13.134468455316
4	143	27.453551977526	12.914495363644
4	148	27.739279546748	12.988448348772
4	156	29.202802346455	13.993524427005
4	161	29.44275266354	12.883779884877
4	168	30.163330818757	12.306475772366
4	177	31.452495849938	12.737897843802
4	186	35.371246162018	15.745581262239
4	210	41.747222106498	19.193931638587
4	217	42.258640355743	18.951610091878
4	224	44.764248929535	21.061348485005
4	230	45.896155909315	21.885284007014
4	235	46.013913548021	21.132290555603
4	240	47.704219189873	17.746144806171
4	247	48.456318163393	17.459186805414
4	264	53.356942370923	20.051800412843
4	275	55.448528065229	20.798959005608
4	286	58.317811987974	21.371079363817
4	299	61.888571616718	22.847223548212
4	304	63.070219439063	22.398632535214
4	311	65.446124920078	24.464437148426
4	324	68.015301238302	25.84554554942
4	329	69.057338326874	24.719880326289
4	334	70.191666602907	22.206882923088
4	342	72.342920676992	23.643589894958
4	347	72.388599930188	22.617318076132
4	356	74.018494009474	23.058360469457
4	369	77.472397227317	23.529839285617
4	374	77.67536050522	23.499722505954
4	379	78.35963478238	22.949288725747
4	388	79.93107363505	23.14273951546
4	394	81.343152533539	20.378659158345
4	399	81.934658073697	20.429332085657
4	420	89.699802239145	24.024816552087
4	429	91.907650511475	26.089131247345
4	434	94.294924884372	27.105979913607
4	439	94.908695591426	21.969986473193
4	446	97.224513009879	22.413986290155
4	451	97.469434394699	20.891643322701
4	462	98.816644609022	20.086178690833
4	467	99.18559818578	20.083620429168
5	34	7.741080339274	6.709420440536

