version 2
run First-n5-14-20191125-12:37:07-1372
attr configname First-n5
attr datetime 20191125-12:37:07
attr experiment First-n5
attr inifile omnetpp.ini
attr iterationvars ""
attr iterationvarsf ""
attr measurement ""
attr network org.omnetpp.queueing.Pizza
attr processid 1372
attr repetition 14
attr replication ""
attr resultdir results_no_transient
attr runnumber 14
attr seedset 14
param **.PS.maxInventoriedPS 5
param **.U1.interArrivalTime exponential(2s)
param **.U2.interArrivalTime exponential(4s)
param **.PS.serviceTimeForInventoryU1 exponential(0.8s)
param **.PS.serviceTimeForInventoryU2 exponential(1.0s)
param **.PS.serviceTimeDirectU1 exponential(1.2s)
param **.PS.serviceTimeDirectU2 exponential(1.4s)
param **.PS.probabilityProducing 0.5
param **.CS.serviceTimeU1 exponential(0.8s)
param **.CS.serviceTimeU2 exponential(1.0s)

vector 0 Pizza.EntryQueueU1 queueLength:vector ETV
attr interpolationmode sample-hold
attr title "queue length, vector"
vector 1 Pizza.CS queueLength:vector ETV
attr interpolationmode sample-hold
attr title "queue length, vector"
vector 2 Pizza.EntryQueueU2 queueLength:vector ETV
attr interpolationmode sample-hold
attr title "queue length, vector"
vector 3 Pizza.sink lifeTime:vector ETV
attr interpolationmode none
attr title "lifetime of arrived jobs, vector"
attr unit s
vector 4 Pizza.sink lifeTimeU1:vector ETV
attr interpolationmode none
attr title "lifetime of arrived jobs, vector"
attr unit s
vector 5 Pizza.sink lifeTimeU2:vector ETV
attr interpolationmode none
attr title "lifetime of arrived jobs, vector"
attr unit s
0	0	0	0
0	36	7.626999046764	1
0	38	8.121256100938	2
0	40	8.592762200753	3
0	43	9.015562409945	2
0	47	9.290477850807	3
0	53	12.082512191556	4
0	56	14.807052354365	3
0	61	15.550341021095	2
0	68	18.662060041799	1
0	72	19.533082634406	2
0	74	19.783352831826	3
0	79	21.125440150436	2
0	89	21.923402854585	3
0	90	22.223555706012	2
0	96	23.178123964034	1
0	101	23.346580836548	0
0	122	24.636962172741	1
0	124	25.316049656925	2
0	125	25.66949243822	1
0	131	26.732722597439	0
0	153	28.541120584351	1
0	155	29.88324860689	0
0	174	31.193327856406	1
0	176	32.389651279579	2
0	178	32.578047182824	3
0	180	33.699032736389	4
0	183	34.362025287344	3
0	193	35.247446043162	2
0	199	35.480822734369	3
0	201	35.95095534835	4
0	202	36.061679513684	3
0	207	36.275887387052	2
0	212	36.345266017002	1
0	216	36.432617714555	2
0	219	36.989474935104	1
0	224	37.33250529324	0
0	233	38.121827624036	1
0	241	39.051720331575	2
0	245	39.617952809793	3
0	248	41.309624465348	2
0	254	43.22338801666	1
0	259	44.015963744994	0
0	284	50.234808548404	1
0	288	50.844470518017	0
0	294	50.977615240935	1
0	295	51.029013479231	0
0	380	66.302461522438	1
0	381	66.980210750187	0
0	387	67.15857894343	1
0	388	67.241699943081	0
0	425	75.158965069293	1
0	426	75.224290275211	0
0	432	75.677129448295	1
0	434	76.963845648478	2
0	435	76.997925173206	1
0	441	77.161613882078	2
0	442	77.233846306864	1
0	448	77.900508073975	2
0	450	78.03122647498	3
0	451	78.16702777439	2
0	459	78.55974116863	3
0	460	78.79277342491	2
0	467	79.788388030944	1
0	471	79.898931084438	2
0	473	80.163323886721	3
0	477	81.652676605765	4
0	478	82.168150851533	3
0	485	83.20732999375	4
0	486	83.405266837339	3
0	492	83.856912719164	2
0	497	84.282926983433	1
0	501	84.37796550537	2
0	506	86.0845078051	1
0	513	86.867336980176	0
0	538	90.510357712542	1
0	543	90.652155667053	2
0	545	90.794563973235	3
0	550	93.146068782252	2
0	557	93.392002219536	1
0	563	94.310366866144	0
0	577	98.41228173508	1
0	578	98.640217432179	0
1	0	0	0
2	0	0	0
2	49	10.198724837328	1
2	51	11.226481556374	2
2	65	16.987608747044	3
2	87	21.458015204997	4
2	106	23.51499425205	3
2	111	23.957282123322	2
2	116	23.997962901758	1
2	136	26.895165124364	0
2	161	30.0565114901	1
2	164	30.707399681748	2
2	165	31.007198475765	1
2	170	31.17328318991	0
2	189	34.396032251964	1
2	192	35.118734022775	2
2	229	37.684258869325	1
2	235	38.4754010033	2
2	239	38.864136411811	3
2	247	41.142321910154	4
2	264	45.622515039543	3
2	269	48.529277059733	2
2	274	49.028048547317	1
2	287	50.711988619452	2
2	301	51.741617453818	1
2	309	52.793261871271	0
2	324	56.237305095009	1
2	325	56.602751964435	0
2	331	57.019270437756	1
2	332	57.028825010102	0
2	422	74.177628427276	1
2	457	78.50422636597	2
2	464	78.887976553749	3
2	519	87.150123265434	4
2	520	88.453381738196	3
2	525	89.039059819846	2
2	530	89.28422281339	1
2	540	90.540319158935	2
2	549	92.328299466972	3
2	569	95.258733999207	2
2	575	95.91322547756	3
2	583	99.304877313324	2
3	7	2.740669890449	1.29780973762
3	16	4.716439596079	0.306514206635
3	24	5.824542310142	0.912574689697
3	31	6.806664772653	0.345927719878
3	45	9.015562409945	1.716950570438
3	58	14.807052354365	7.180053307601
3	63	15.550341021095	7.429084920157
3	70	18.662060041799	10.069297841046
3	81	21.125440150436	11.834962299629
3	92	22.223555706012	10.141043514456
3	98	23.178123964034	3.645041329628
3	103	23.346580836548	3.563228004722
3	108	23.51499425205	1.591591397465
3	113	23.957282123322	13.758557285994
3	118	23.997962901758	12.771481345384
3	127	25.66949243822	8.681883691176
3	133	26.732722597439	2.095760424698
3	138	26.895165124364	1.579115467439
3	143	27.479330942991	6.021315737994
3	157	29.88324860689	1.908567661332
3	167	31.007198475765	2.466077891414
3	172	31.17328318991	1.11677169981
3	185	34.362025287344	3.654625605596
3	195	35.247446043162	4.054118186756
3	204	36.061679513684	3.672028234105
3	209	36.275887387052	3.697840204228
3	214	36.345266017002	2.646233280613
3	221	36.989474935104	1.508652200735
3	226	37.33250529324	1.38154994489
3	231	37.684258869325	1.25164115477
3	250	41.309624465348	6.913592213384
3	256	43.22338801666	5.101560392624
3	261	44.015963744994	4.964243413419
3	266	45.622515039543	6.00456222975
3	271	48.529277059733	13.410543036958
3	276	49.028048547317	10.552647544017
3	290	50.844470518017	11.980334106206
3	297	51.029013479231	0.794204930827
3	303	51.741617453818	0.764002212883
3	311	52.793261871271	11.650939961117
3	315	52.93637557527	2.224386955818
3	327	56.602751964435	0.425782561383
3	334	57.028825010102	0.791519915093
3	340	58.436484007576	1.41721356982
3	348	59.545035289655	0.522565649885
3	355	63.136227179386	0.254180311769
3	362	63.92234483857	0.514504161243
3	373	66.066188196812	1.512521240947
3	383	66.980210750187	0.726888665501
3	390	67.241699943081	0.939238420643
3	394	67.308120422628	0.149541479198
3	402	68.46192187253	0.514072741421
3	415	73.579373344213	2.549223114191
3	428	75.224290275211	1.228204240165
3	437	76.997925173206	1.838960103913
3	444	77.233846306864	1.556716858569
3	453	78.16702777439	1.203182125912
3	462	78.79277342491	1.631159542832
3	469	79.788388030944	1.887879956969
3	480	82.168150851533	4.136924376553
3	488	83.405266837339	4.845525668709
3	494	83.856912719164	3.957981634726
3	499	84.282926983433	4.119603096712
3	508	86.0845078051	4.431831199335
3	515	86.867336980176	3.660006986426
3	522	88.453381738196	4.075416232826
3	527	89.039059819846	14.86143139257
3	532	89.28422281339	10.77999644742
3	552	93.146068782252	14.258092228503
3	559	93.392002219536	2.881644506994
3	565	94.310366866144	3.658211199091
3	571	95.258733999207	4.464170025972
3	580	98.640217432179	11.490094166745
3	585	99.304877313324	0.892595578244
4	7	2.740669890449	1.29780973762
4	16	4.716439596079	0.306514206635
4	24	5.824542310142	0.912574689697
4	31	6.806664772653	0.345927719878
4	45	9.015562409945	1.716950570438
4	58	14.807052354365	7.180053307601
4	63	15.550341021095	7.429084920157
4	70	18.662060041799	10.069297841046
4	81	21.125440150436	11.834962299629
4	92	22.223555706012	10.141043514456
4	98	23.178123964034	3.645041329628
4	103	23.346580836548	3.563228004722
4	108	23.51499425205	1.591591397465
4	133	26.732722597439	2.095760424698
4	138	26.895165124364	1.579115467439
4	157	29.88324860689	1.908567661332
4	167	31.007198475765	2.466077891414
4	195	35.247446043162	4.054118186756
4	204	36.061679513684	3.672028234105
4	209	36.275887387052	3.697840204228
4	214	36.345266017002	2.646233280613
4	221	36.989474935104	1.508652200735
4	226	37.33250529324	1.38154994489
4	231	37.684258869325	1.25164115477
4	256	43.22338801666	5.101560392624
4	261	44.015963744994	4.964243413419
4	266	45.622515039543	6.00456222975
4	297	51.029013479231	0.794204930827
4	303	51.741617453818	0.764002212883
4	327	56.602751964435	0.425782561383
4	348	59.545035289655	0.522565649885
4	355	63.136227179386	0.254180311769
4	362	63.92234483857	0.514504161243
4	373	66.066188196812	1.512521240947
4	390	67.241699943081	0.939238420643
4	394	67.308120422628	0.149541479198
4	402	68.46192187253	0.514072741421
4	415	73.579373344213	2.549223114191
4	428	75.224290275211	1.228204240165
4	437	76.997925173206	1.838960103913
4	444	77.233846306864	1.556716858569
4	453	78.16702777439	1.203182125912
4	462	78.79277342491	1.631159542832
4	469	79.788388030944	1.887879956969
4	480	82.168150851533	4.136924376553
4	488	83.405266837339	4.845525668709
4	494	83.856912719164	3.957981634726
4	499	84.282926983433	4.119603096712
4	508	86.0845078051	4.431831199335
4	515	86.867336980176	3.660006986426
4	522	88.453381738196	4.075416232826
4	559	93.392002219536	2.881644506994
4	565	94.310366866144	3.658211199091
4	571	95.258733999207	4.464170025972
4	585	99.304877313324	0.892595578244
5	113	23.957282123322	13.758557285994
5	118	23.997962901758	12.771481345384
5	127	25.66949243822	8.681883691176
5	143	27.479330942991	6.021315737994
5	172	31.17328318991	1.11677169981
5	185	34.362025287344	3.654625605596
5	250	41.309624465348	6.913592213384
5	271	48.529277059733	13.410543036958
5	276	49.028048547317	10.552647544017
5	290	50.844470518017	11.980334106206
5	311	52.793261871271	11.650939961117
5	315	52.93637557527	2.224386955818
5	334	57.028825010102	0.791519915093
5	340	58.436484007576	1.41721356982
5	383	66.980210750187	0.726888665501
5	527	89.039059819846	14.86143139257
5	532	89.28422281339	10.77999644742
5	552	93.146068782252	14.258092228503
5	580	98.640217432179	11.490094166745

