version 2
run First-n4-15-20191125-12:37:07-3300
attr configname First-n4
attr datetime 20191125-12:37:07
attr experiment First-n4
attr inifile omnetpp.ini
attr iterationvars ""
attr iterationvarsf ""
attr measurement ""
attr network org.omnetpp.queueing.Pizza
attr processid 3300
attr repetition 15
attr replication ""
attr resultdir results_no_transient
attr runnumber 15
attr seedset 15
param **.PS.maxInventoriedPS 4
param **.U1.interArrivalTime exponential(2s)
param **.U2.interArrivalTime exponential(4s)
param **.PS.serviceTimeForInventoryU1 exponential(0.8s)
param **.PS.serviceTimeForInventoryU2 exponential(1.0s)
param **.PS.serviceTimeDirectU1 exponential(1.2s)
param **.PS.serviceTimeDirectU2 exponential(1.4s)
param **.PS.probabilityProducing 0.5
param **.CS.serviceTimeU1 exponential(0.8s)
param **.CS.serviceTimeU2 exponential(1.0s)

vector 0 Pizza.EntryQueueU1 queueLength:vector ETV
attr interpolationmode sample-hold
attr title "queue length, vector"
vector 1 Pizza.CS queueLength:vector ETV
attr interpolationmode sample-hold
attr title "queue length, vector"
vector 2 Pizza.EntryQueueU2 queueLength:vector ETV
attr interpolationmode sample-hold
attr title "queue length, vector"
vector 3 Pizza.sink lifeTime:vector ETV
attr interpolationmode none
attr title "lifetime of arrived jobs, vector"
attr unit s
vector 4 Pizza.sink lifeTimeU1:vector ETV
attr interpolationmode none
attr title "lifetime of arrived jobs, vector"
attr unit s
vector 5 Pizza.sink lifeTimeU2:vector ETV
attr interpolationmode none
attr title "lifetime of arrived jobs, vector"
attr unit s
0	0	0	0
0	5	4.17274849821	1
0	7	4.284541970041	2
0	9	4.519827285931	3
0	15	5.417214924167	4
0	17	6.14338972316	5
0	22	6.942359780066	4
0	28	7.500111611894	3
0	36	8.688786154527	4
0	37	8.8164932114	3
0	44	9.161625189042	4
0	46	9.242066029311	5
0	48	9.490018313288	6
0	49	9.795606840984	5
0	53	9.936882534884	6
0	60	11.481437250553	5
0	65	11.688471833181	4
0	70	12.189001975725	3
0	76	13.317293734609	2
0	82	14.03695402325	1
0	87	14.817401601139	0
0	131	23.00018522155	1
0	133	23.800441780716	2
0	134	24.229822366857	1
0	140	24.283863123934	2
0	143	25.151549814537	1
0	148	25.48196113969	0
0	154	25.530028959477	1
0	156	25.951370291204	0
0	184	29.600474142153	1
0	185	29.82688254915	0
0	253	44.067237577219	1
0	257	44.325270233045	2
0	261	45.177215075733	1
0	266	45.538368863947	0
0	282	48.010153480432	1
0	284	49.243089452372	0
0	292	49.837939034233	1
0	295	50.150583972555	0
0	313	51.418749349738	1
0	317	53.745427683829	2
0	318	54.172351577317	1
0	325	54.58273192033	0
0	333	57.53622361079	1
0	334	58.664236102198	0
0	356	59.834065321856	1
0	357	59.854740502075	0
0	363	60.352157326602	1
0	364	60.794465952666	0
0	377	61.605943018603	1
0	379	62.211033615996	0
0	399	63.658193043522	1
0	400	64.047266555208	0
0	463	82.49203888878	1
0	464	82.778875484056	0
0	479	85.381310619318	1
0	482	86.649269554385	0
0	496	88.831530116956	1
0	498	88.89424960989	2
0	501	91.426349933002	1
0	506	92.007613970931	0
1	0	0	0
2	0	0	0
2	20	6.719022018935	1
2	34	7.869211717697	2
2	55	10.064641965508	3
2	92	16.319515186869	2
2	97	16.714090679579	1
2	106	17.000794339774	2
2	108	17.235285745631	1
2	114	17.896022097256	0
2	129	22.918903966569	1
2	142	24.580973097557	2
2	164	26.310872669046	3
2	165	26.322692596857	2
2	170	27.057696634113	1
2	175	27.968115149025	0
2	181	29.407408256133	1
2	190	30.026061522285	0
2	226	38.044945749447	1
2	230	40.255417866609	0
2	244	41.895932068388	1
2	247	43.053835148598	0
2	255	44.078252507505	1
2	260	44.974428152367	2
2	273	45.860359636949	3
2	275	46.73468641794	2
2	290	49.682567185659	3
2	294	50.041229838163	4
2	302	51.343091363281	3
2	307	51.344184586647	2
2	324	54.24891040584	3
2	339	58.745163847603	2
2	345	59.160431202866	3
2	349	59.713613278671	4
2	350	59.82254128898	3
2	369	60.950724805372	2
2	385	62.350074301048	1
2	390	62.375880412864	0
2	438	73.180835320352	1
2	439	73.809175370769	0
2	481	85.53573276925	1
2	489	88.056605795206	0
2	500	90.826811754128	1
2	512	92.489186409897	0
3	24	6.942359780066	3.163822100587
3	30	7.500111611894	3.327363113684
3	39	8.8164932114	4.531951241359
3	51	9.795606840984	5.275779555053
3	62	11.481437250553	6.064222326386
3	67	11.688471833181	5.545082110021
3	72	12.189001975725	3.500215821198
3	78	13.317293734609	4.155668545567
3	84	14.03695402325	4.794887993939
3	89	14.817401601139	5.327383287851
3	94	16.319515186869	6.382632651985
3	99	16.714090679579	9.995068660644
3	110	17.235285745631	9.366074027934
3	116	17.896022097256	7.831380131748
3	120	17.927260616962	0.926466277188
3	136	24.229822366857	3.673267434835
3	145	25.151549814537	2.151364592987
3	150	25.48196113969	1.681519358974
3	158	25.951370291204	1.66750716727
3	167	26.322692596857	0.79266363738
3	172	27.057696634113	4.138792667544
3	177	27.968115149025	3.387142051468
3	187	29.82688254915	3.516009880104
3	192	30.026061522285	0.425587380132
3	196	30.131620585549	0.724212329416
3	203	31.204535265358	0.809726520295
3	211	34.012352491286	0.634466713327
3	220	36.714973723444	0.3619082455
3	232	40.255417866609	2.840555394437
3	236	40.950251796837	2.90530604739
3	249	43.053835148598	1.164487524111
3	263	45.177215075733	3.281283007345
3	268	45.538368863947	1.471131286728
3	277	46.73468641794	2.409416184895
3	286	49.243089452372	5.164836944867
3	297	50.150583972555	2.140430492123
3	304	51.343091363281	1.505152329048
3	309	51.344184586647	6.36975643428
3	320	54.172351577317	8.311991940368
3	327	54.58273192033	3.163982570592
3	336	58.664236102198	4.918808418369
3	341	58.745163847603	1.208940236813
3	352	59.82254128898	10.139974103321
3	359	59.854740502075	9.813510663912
3	366	60.794465952666	0.96040063081
3	371	60.950724805372	0.59856747877
3	381	62.211033615996	7.962123210156
3	387	62.350074301048	0.744131282445
3	392	62.375880412864	3.215449209998
3	402	64.047266555208	4.333653276537
3	407	65.084678297787	1.426485254265
3	414	65.962263850078	0.349960434202
3	423	68.528319602249	1.22446750887
3	431	70.904295147137	0.335637028237
3	441	73.809175370769	0.775523202759
3	445	74.766411405971	1.585576085619
3	455	80.931222339811	1.364586602379
3	466	82.778875484056	0.461728073584
3	470	82.875464454871	0.383425566091
3	484	86.649269554385	2.71965471267
3	491	88.056605795206	2.675295175888
3	503	91.426349933002	5.890617163752
3	508	92.007613970931	3.176083853975
3	514	92.489186409897	3.594936800007
3	519	94.188857952268	3.36204619814
3	526	94.413305095383	0.011349687914
3	534	97.323613867173	0.422646962627
3	543	98.311893895634	0.515305791706
3	552	99.859859781389	0.739152289868
4	24	6.942359780066	3.163822100587
4	30	7.500111611894	3.327363113684
4	39	8.8164932114	4.531951241359
4	51	9.795606840984	5.275779555053
4	62	11.481437250553	6.064222326386
4	67	11.688471833181	5.545082110021
4	72	12.189001975725	3.500215821198
4	78	13.317293734609	4.155668545567
4	84	14.03695402325	4.794887993939
4	89	14.817401601139	5.327383287851
4	94	16.319515186869	6.382632651985
4	145	25.151549814537	2.151364592987
4	150	25.48196113969	1.681519358974
4	158	25.951370291204	1.66750716727
4	167	26.322692596857	0.79266363738
4	192	30.026061522285	0.425587380132
4	203	31.204535265358	0.809726520295
4	211	34.012352491286	0.634466713327
4	268	45.538368863947	1.471131286728
4	277	46.73468641794	2.409416184895
4	297	50.150583972555	2.140430492123
4	304	51.343091363281	1.505152329048
4	327	54.58273192033	3.163982570592
4	336	58.664236102198	4.918808418369
4	341	58.745163847603	1.208940236813
4	366	60.794465952666	0.96040063081
4	371	60.950724805372	0.59856747877
4	387	62.350074301048	0.744131282445
4	407	65.084678297787	1.426485254265
4	414	65.962263850078	0.349960434202
4	431	70.904295147137	0.335637028237
4	466	82.778875484056	0.461728073584
4	470	82.875464454871	0.383425566091
4	484	86.649269554385	2.71965471267
4	491	88.056605795206	2.675295175888
4	508	92.007613970931	3.176083853975
4	514	92.489186409897	3.594936800007
4	534	97.323613867173	0.422646962627
4	543	98.311893895634	0.515305791706
4	552	99.859859781389	0.739152289868
5	99	16.714090679579	9.995068660644
5	110	17.235285745631	9.366074027934
5	116	17.896022097256	7.831380131748
5	120	17.927260616962	0.926466277188
5	136	24.229822366857	3.673267434835
5	172	27.057696634113	4.138792667544
5	177	27.968115149025	3.387142051468
5	187	29.82688254915	3.516009880104
5	196	30.131620585549	0.724212329416
5	220	36.714973723444	0.3619082455
5	232	40.255417866609	2.840555394437
5	236	40.950251796837	2.90530604739
5	249	43.053835148598	1.164487524111
5	263	45.177215075733	3.281283007345
5	286	49.243089452372	5.164836944867
5	309	51.344184586647	6.36975643428
5	320	54.172351577317	8.311991940368
5	352	59.82254128898	10.139974103321
5	359	59.854740502075	9.813510663912
5	381	62.211033615996	7.962123210156
5	392	62.375880412864	3.215449209998
5	402	64.047266555208	4.333653276537
5	423	68.528319602249	1.22446750887
5	441	73.809175370769	0.775523202759
5	445	74.766411405971	1.585576085619
5	455	80.931222339811	1.364586602379
5	503	91.426349933002	5.890617163752
5	519	94.188857952268	3.36204619814
5	526	94.413305095383	0.011349687914

