version 2
run First-n3-5-20191125-12:36:52-8884
attr configname First-n3
attr datetime 20191125-12:36:52
attr experiment First-n3
attr inifile omnetpp.ini
attr iterationvars ""
attr iterationvarsf ""
attr measurement ""
attr network org.omnetpp.queueing.Pizza
attr processid 8884
attr repetition 5
attr replication ""
attr resultdir results_no_transient
attr runnumber 5
attr seedset 5
param **.PS.maxInventoriedPS 3
param **.U1.interArrivalTime exponential(2s)
param **.U2.interArrivalTime exponential(4s)
param **.PS.serviceTimeForInventoryU1 exponential(0.8s)
param **.PS.serviceTimeForInventoryU2 exponential(1.0s)
param **.PS.serviceTimeDirectU1 exponential(1.2s)
param **.PS.serviceTimeDirectU2 exponential(1.4s)
param **.PS.probabilityProducing 0.5
param **.CS.serviceTimeU1 exponential(0.8s)
param **.CS.serviceTimeU2 exponential(1.0s)

vector 0 Pizza.EntryQueueU1 queueLength:vector ETV
attr interpolationmode sample-hold
attr title "queue length, vector"
vector 1 Pizza.CS queueLength:vector ETV
attr interpolationmode sample-hold
attr title "queue length, vector"
vector 2 Pizza.EntryQueueU2 queueLength:vector ETV
attr interpolationmode sample-hold
attr title "queue length, vector"
vector 3 Pizza.sink lifeTime:vector ETV
attr interpolationmode none
attr title "lifetime of arrived jobs, vector"
attr unit s
vector 4 Pizza.sink lifeTimeU2:vector ETV
attr interpolationmode none
attr title "lifetime of arrived jobs, vector"
attr unit s
vector 5 Pizza.sink lifeTimeU1:vector ETV
attr interpolationmode none
attr title "lifetime of arrived jobs, vector"
attr unit s
0	0	0	0
0	5	0.502039955384	1
0	7	0.965195882806	2
0	9	1.869482112156	3
0	12	2.812875588987	2
0	17	4.297919186127	1
0	25	6.886510062585	2
0	30	8.927397378856	1
0	35	9.02143451979	0
0	49	9.568695461828	1
0	53	10.316418301134	0
0	67	10.923778614552	1
0	69	11.235132323748	2
0	76	14.12550412847	1
0	84	15.694006414355	2
0	89	18.100909706667	3
0	91	18.540458784907	2
0	97	19.019154831422	3
0	98	19.120123832559	2
0	103	21.199231037577	1
0	108	21.203832293184	0
0	114	22.406617329924	1
0	115	22.861296681843	0
0	119	24.606198081802	1
0	121	25.051898780376	2
0	124	25.315802623045	1
0	136	29.534407599296	0
0	159	30.173305419688	1
0	161	32.171379043634	2
0	163	32.683715834594	3
0	164	33.460428786901	2
0	169	33.839348535642	1
0	178	35.17598395585	0
0	186	36.076543838893	1
0	188	36.274423367304	2
0	189	36.569494563272	1
0	195	37.775423033851	0
0	212	38.579923165578	1
0	215	39.153092698932	0
0	227	41.750267347068	1
0	229	41.9281593591	2
0	230	42.160445367959	1
0	236	42.165033811609	2
0	238	43.01441575432	3
0	240	43.884378081718	4
0	243	44.096938344423	5
0	247	46.312911500179	4
0	252	46.341543827201	3
0	256	46.807538555798	4
0	260	47.138852408724	5
0	263	47.388863150619	6
0	267	48.470088166103	5
0	273	48.690337977252	6
0	274	49.048541171465	5
0	280	49.872133419556	6
0	281	50.337999449071	5
0	286	50.406635715532	4
0	292	51.301747646193	5
0	293	52.17084123582	4
0	298	53.524901478186	3
0	302	54.534688101078	4
0	306	55.739177297294	5
0	308	58.166833537205	6
0	314	59.159335005024	5
0	320	59.578795177955	6
0	321	61.61622581242	5
0	329	63.125245928422	6
0	332	63.789304108656	5
0	338	63.926957192649	6
0	341	64.491389761824	5
0	346	66.111454805764	4
0	354	69.349369969209	5
0	358	71.208681141704	6
0	359	73.427969861501	5
0	363	73.684768099873	6
0	369	76.103092799174	7
0	372	76.571228194392	6
0	380	77.919395721591	7
0	381	77.961109068857	6
0	387	78.823251046508	7
0	389	79.269999437972	8
0	390	79.29101821474	7
0	396	79.393954874995	8
0	398	79.884068786549	7
0	403	79.936468811467	6
0	408	81.687748503274	5
0	416	82.146133482278	4
0	422	82.749072875597	5
0	423	84.214577504143	4
0	429	86.073543134298	5
0	430	87.608025241065	4
0	441	90.595188634668	3
0	445	90.997510000819	4
0	449	91.71806745778	5
0	451	91.776864987898	6
0	452	92.511017868494	5
0	457	92.853896890709	4
0	462	93.686109262416	3
0	466	93.931059478586	4
0	468	95.211516864608	5
0	472	97.661370211271	6
0	474	98.215142140163	7
0	475	99.112698363317	6
1	0	0	0
2	0	0	0
2	29	8.410523326293	1
2	41	9.099896696936	2
2	43	9.449303828841	1
2	51	9.607120292659	2
2	58	10.394828835608	1
2	63	10.7916770879	0
2	71	13.27157526438	1
2	75	13.995806391132	2
2	130	26.894046370801	3
2	133	27.160772395108	4
2	141	29.708410145297	3
2	146	29.737953852981	2
2	152	30.110438718325	1
2	175	33.883057749774	2
2	184	35.32121370607	3
2	200	37.912083215879	2
2	205	38.121160821684	1
2	220	39.358644493101	0
2	246	45.806982471485	1
2	266	47.672777845287	2
2	304	55.260725311135	3
2	312	58.826500826379	4
2	325	62.240454558639	5
2	331	63.343841017687	6
2	340	63.959320830118	7
2	350	68.284505804715	8
2	352	68.806389546433	9
2	365	74.683922699102	10
2	367	75.893947956677	11
2	412	81.726508197503	12
2	434	88.322913857254	13
2	436	88.569656560058	14
2	438	89.317136169516	15
3	14	2.812875588987	2.585831694502
3	19	4.297919186127	3.795879230743
3	32	8.927397378856	7.96220149605
3	37	9.02143451979	7.151952407634
3	45	9.449303828841	2.562793766256
3	55	10.316418301134	1.905894974841
3	60	10.394828835608	0.82613337378
3	65	10.7916770879	1.691780390964
3	78	14.12550412847	4.518383835811
3	93	18.540458784907	7.616680170355
3	100	19.120123832559	7.884991508811
3	105	21.199231037577	5.505224623222
3	110	21.203832293184	3.102922586517
3	117	22.861296681843	3.842141850421
3	126	25.315802623045	2.909185293121
3	138	29.534407599296	4.928209517494
3	143	29.708410145297	4.656511364921
3	148	29.737953852981	16.466378588601
3	154	30.110438718325	16.114632327193
3	166	33.460428786901	6.5663824161
3	171	33.839348535642	3.666043115954
3	180	35.17598395585	3.004604912216
3	191	36.569494563272	3.885778728678
3	197	37.775423033851	1.698879194958
3	202	37.912083215879	1.637659848575
3	207	38.121160821684	10.960388426576
3	217	39.153092698932	5.270034949158
3	222	39.358644493101	0.778721327523
3	232	42.160445367959	6.839231661889
3	249	46.312911500179	4.562644153111
3	254	46.341543827201	4.413384468101
3	269	48.470088166103	6.305054354494
3	276	49.048541171465	6.034125417145
3	283	50.337999449071	6.453621367353
3	288	50.406635715532	6.309697371109
3	295	52.17084123582	5.363302680022
3	300	53.524901478186	6.386049069462
3	316	59.159335005024	11.770471854405
3	323	61.61622581242	12.925887835168
3	334	63.789304108656	13.9171706891
3	343	64.491389761824	13.189642115631
3	348	66.111454805764	11.576766704686
3	361	73.427969861501	17.688792564207
3	374	76.571228194392	18.404394657187
3	383	77.961109068857	18.382313890902
3	392	79.29101821474	16.165772286318
3	400	79.884068786549	15.9571115939
3	405	79.936468811467	10.587098842258
3	410	81.687748503274	10.47906736157
3	418	82.146133482278	8.461365382405
3	425	84.214577504143	8.111484704969
3	432	87.608025241065	9.688629519474
3	443	90.595188634668	11.77193758816
3	454	92.511017868494	13.241018430522
3	459	92.853896890709	13.459942015714
3	464	93.686109262416	10.937036386819
3	477	99.112698363317	13.039155229019
4	14	2.812875588987	2.585831694502
4	55	10.316418301134	1.905894974841
4	65	10.7916770879	1.691780390964
4	78	14.12550412847	4.518383835811
4	148	29.737953852981	16.466378588601
4	154	30.110438718325	16.114632327193
4	166	33.460428786901	6.5663824161
4	207	38.121160821684	10.960388426576
4	217	39.153092698932	5.270034949158
4	232	42.160445367959	6.839231661889
5	19	4.297919186127	3.795879230743
5	32	8.927397378856	7.96220149605
5	37	9.02143451979	7.151952407634
5	45	9.449303828841	2.562793766256
5	60	10.394828835608	0.82613337378
5	93	18.540458784907	7.616680170355
5	100	19.120123832559	7.884991508811
5	105	21.199231037577	5.505224623222
5	110	21.203832293184	3.102922586517
5	117	22.861296681843	3.842141850421
5	126	25.315802623045	2.909185293121
5	138	29.534407599296	4.928209517494
5	143	29.708410145297	4.656511364921
5	171	33.839348535642	3.666043115954
5	180	35.17598395585	3.004604912216
5	191	36.569494563272	3.885778728678
5	197	37.775423033851	1.698879194958
5	202	37.912083215879	1.637659848575
5	222	39.358644493101	0.778721327523
5	249	46.312911500179	4.562644153111
5	254	46.341543827201	4.413384468101
5	269	48.470088166103	6.305054354494
5	276	49.048541171465	6.034125417145
5	283	50.337999449071	6.453621367353
5	288	50.406635715532	6.309697371109
5	295	52.17084123582	5.363302680022
5	300	53.524901478186	6.386049069462
5	316	59.159335005024	11.770471854405
5	323	61.61622581242	12.925887835168
5	334	63.789304108656	13.9171706891
5	343	64.491389761824	13.189642115631
5	348	66.111454805764	11.576766704686
5	361	73.427969861501	17.688792564207
5	374	76.571228194392	18.404394657187
5	383	77.961109068857	18.382313890902
5	392	79.29101821474	16.165772286318
5	400	79.884068786549	15.9571115939
5	405	79.936468811467	10.587098842258
5	410	81.687748503274	10.47906736157
5	418	82.146133482278	8.461365382405
5	425	84.214577504143	8.111484704969
5	432	87.608025241065	9.688629519474
5	443	90.595188634668	11.77193758816
5	454	92.511017868494	13.241018430522
5	459	92.853896890709	13.459942015714
5	464	93.686109262416	10.937036386819
5	477	99.112698363317	13.039155229019

