version 2
run First-n3-4-20191125-12:36:51-7236
attr configname First-n3
attr datetime 20191125-12:36:51
attr experiment First-n3
attr inifile omnetpp.ini
attr iterationvars ""
attr iterationvarsf ""
attr measurement ""
attr network org.omnetpp.queueing.Pizza
attr processid 7236
attr repetition 4
attr replication ""
attr resultdir results_no_transient
attr runnumber 4
attr seedset 4
param **.PS.maxInventoriedPS 3
param **.U1.interArrivalTime exponential(2s)
param **.U2.interArrivalTime exponential(4s)
param **.PS.serviceTimeForInventoryU1 exponential(0.8s)
param **.PS.serviceTimeForInventoryU2 exponential(1.0s)
param **.PS.serviceTimeDirectU1 exponential(1.2s)
param **.PS.serviceTimeDirectU2 exponential(1.4s)
param **.PS.probabilityProducing 0.5
param **.CS.serviceTimeU1 exponential(0.8s)
param **.CS.serviceTimeU2 exponential(1.0s)

vector 0 Pizza.EntryQueueU1 queueLength:vector ETV
attr interpolationmode sample-hold
attr title "queue length, vector"
vector 1 Pizza.CS queueLength:vector ETV
attr interpolationmode sample-hold
attr title "queue length, vector"
vector 2 Pizza.EntryQueueU2 queueLength:vector ETV
attr interpolationmode sample-hold
attr title "queue length, vector"
vector 3 Pizza.sink lifeTime:vector ETV
attr interpolationmode none
attr title "lifetime of arrived jobs, vector"
attr unit s
vector 4 Pizza.sink lifeTimeU1:vector ETV
attr interpolationmode none
attr title "lifetime of arrived jobs, vector"
attr unit s
vector 5 Pizza.sink lifeTimeU2:vector ETV
attr interpolationmode none
attr title "lifetime of arrived jobs, vector"
attr unit s
0	0	0	0
0	19	10.287334142778	1
0	24	12.291919922191	2
0	25	12.83773584874	1
0	33	13.189175669305	2
0	34	13.579075286782	1
0	44	14.183567517157	2
0	45	14.915903630852	1
0	52	15.160949938658	2
0	53	15.741970625653	1
0	62	18.122358452434	0
0	70	18.493623765341	1
0	71	18.588142048192	0
0	77	18.880456483614	1
0	78	19.645687228767	0
0	103	22.590214398096	1
0	105	22.988874595181	2
0	108	23.740051413021	1
0	113	24.144589224541	0
0	122	25.018944566069	1
0	124	25.317688276148	2
0	128	25.712089054879	3
0	132	26.653939620356	4
0	134	27.018956244766	3
0	139	27.252211521543	2
0	147	28.974917654069	3
0	149	29.513662621883	4
0	152	30.549640885053	3
0	160	31.475282243489	2
0	166	31.543439114754	3
0	168	32.621808060217	4
0	172	33.147018470551	3
0	177	33.524840362758	2
0	183	35.017561605066	3
0	186	35.601316175519	2
0	191	36.75468586474	1
0	196	37.926093838268	0
0	200	38.964330170337	1
0	202	39.454674716082	2
0	205	39.593502632351	1
0	216	40.814452162172	0
0	243	43.95563354593	1
0	244	44.419690995316	0
0	250	47.046243236436	1
0	252	47.254347518024	0
0	279	52.273197102539	1
0	280	52.318669897221	0
0	289	53.336860576389	1
0	291	53.766316395946	2
0	304	58.403393284099	1
0	310	59.160425936611	0
0	327	61.552352217789	1
0	329	61.934140115621	2
0	331	62.12307297677	3
0	332	63.50954506156	2
0	339	64.169003903207	1
0	350	67.066818293368	0
0	356	67.838002148712	1
0	358	67.906931673791	2
0	359	68.105043785686	1
0	364	68.11853096866	0
0	394	72.601607568246	1
0	399	73.281065757264	2
0	402	74.747113048626	1
0	412	76.323289184972	2
0	413	76.381706536259	1
0	418	77.048267492335	0
0	434	78.938659200208	1
0	436	79.193364101651	2
0	438	79.37929026773	3
0	440	79.894193620114	4
0	441	80.22313974235	3
0	446	81.462787868359	2
0	451	83.155203027205	1
0	455	83.431271333783	2
0	463	85.329153770426	1
0	470	87.349610200567	0
0	512	95.338828984522	1
0	514	95.932422413932	2
0	516	95.972710198896	3
0	519	96.22357329707	2
0	523	96.721239199113	3
0	528	97.339179531142	4
0	529	97.405605246695	3
0	535	98.188464269883	2
0	540	98.476514354109	1
1	0	0	0
2	0	0	0
2	12	9.23527612256	1
2	31	12.876075456012	2
2	40	13.591827376653	3
2	42	13.627934228515	4
2	61	17.420353565014	5
2	83	20.246153743071	4
2	88	22.049520562027	3
2	93	22.164026533031	2
2	99	22.423785665048	1
2	118	24.346474651395	0
2	126	25.468660551456	1
2	145	28.910164287721	2
2	159	30.713187505755	3
2	171	32.974470143794	4
2	185	35.050070769201	5
2	209	39.8523986873	6
2	211	40.118032303339	7
2	213	40.387157399952	8
2	221	42.251471996775	7
2	226	42.273327800006	6
2	232	42.709723427063	5
2	237	43.557517954791	4
2	257	47.940352236074	3
2	262	48.135647162194	2
2	272	51.913249953751	3
2	273	52.171415263721	2
2	285	52.378692957344	1
2	293	53.768421348996	2
2	295	53.78014489445	3
2	301	57.688225242285	4
2	316	60.300552320793	3
2	321	60.825860280342	2
2	347	64.683550946258	3
2	349	64.747951711364	4
2	370	68.251845073271	5
2	371	69.934562215354	4
2	378	70.888605306099	3
2	383	71.895284458816	2
2	388	71.999898320787	1
2	396	72.644995216895	2
2	408	75.417275584528	3
2	424	78.62846700242	4
2	425	78.821303428982	3
2	431	78.934489845805	4
2	460	84.323472729798	5
2	469	85.550989432763	6
2	475	87.612983101969	5
2	480	87.703910076025	4
2	487	88.874400697271	3
2	493	89.183861922029	4
2	494	89.393953566515	3
2	499	89.410574551151	2
2	504	89.661064793181	1
2	508	93.235604479278	2
2	510	94.852439055195	3
3	7	8.055499867566	1.231195229197
3	27	12.83773584874	4.428679239785
3	36	13.579075286782	3.291741144004
3	47	14.915903630852	2.623983708661
3	55	15.741970625653	2.552794956348
3	64	18.122358452434	3.938790935277
3	73	18.588142048192	3.427192109534
3	80	19.645687228767	1.152063463426
3	85	20.246153743071	1.365697259457
3	90	22.049520562027	12.814244439467
3	95	22.164026533031	9.287951077019
3	101	22.423785665048	8.831958288395
3	110	23.740051413021	10.112117184506
3	115	24.144589224541	1.554374826445
3	120	24.346474651395	1.357600056214
3	136	27.018956244766	9.598602679752
3	141	27.252211521543	2.233266955474
3	154	30.549640885053	5.231952608905
3	162	31.475282243489	5.76319318861
3	174	33.147018470551	6.493078850195
3	179	33.524840362758	4.549922708689
3	188	35.601316175519	6.087653553636
3	193	36.75468586474	5.211246749986
3	198	37.926093838268	5.304285778051
3	207	39.593502632351	4.575941027285
3	218	40.814452162172	1.850121991835
3	223	42.251471996775	2.796797280693
3	228	42.273327800006	16.80466724855
3	234	42.709723427063	13.799559139342
3	239	43.557517954791	12.844330449036
3	246	44.419690995316	11.445220851522
3	254	47.254347518024	3.298713972094
3	259	47.940352236074	0.894108999638
3	264	48.135647162194	13.085576392993
3	275	52.171415263721	12.319016576421
3	282	52.318669897221	12.200637593882
3	287	52.378692957344	0.105495854805
3	306	58.403393284099	18.016235884147
3	312	59.160425936611	5.823565360222
3	318	60.300552320793	6.534235924847
3	323	60.825860280342	8.912610326591
3	334	63.50954506156	9.741123712564
3	341	64.169003903207	2.616651685418
3	352	67.066818293368	5.132678177747
3	361	68.105043785686	5.981970808916
3	366	68.11853096866	0.280528819948
3	373	69.934562215354	2.027630541563
3	380	70.888605306099	17.108460411649
3	385	71.895284458816	14.207059216531
3	390	71.999898320787	7.316347374529
3	404	74.747113048626	9.999161337262
3	415	76.381706536259	3.780098968013
3	420	77.048267492335	3.767201735071
3	427	78.821303428982	2.49801424401
3	443	80.22313974235	11.971294669079
3	448	81.462787868359	2.524128668151
3	453	83.155203027205	3.961838925554
3	465	85.329153770426	5.949863502696
3	472	87.349610200567	7.455416580453
3	477	87.612983101969	4.181711768186
3	482	87.703910076025	15.05891485913
3	489	88.874400697271	13.457125112743
3	496	89.393953566515	10.765486564095
3	501	89.410574551151	10.476084705346
3	506	89.661064793181	5.337592063383
3	521	96.22357329707	10.672583864307
3	531	97.405605246695	2.066776262173
3	537	98.188464269883	2.256041855951
3	542	98.476514354109	2.503804155213
4	7	8.055499867566	1.231195229197
4	27	12.83773584874	4.428679239785
4	36	13.579075286782	3.291741144004
4	47	14.915903630852	2.623983708661
4	55	15.741970625653	2.552794956348
4	64	18.122358452434	3.938790935277
4	73	18.588142048192	3.427192109534
4	80	19.645687228767	1.152063463426
4	85	20.246153743071	1.365697259457
4	115	24.144589224541	1.554374826445
4	120	24.346474651395	1.357600056214
4	141	27.252211521543	2.233266955474
4	154	30.549640885053	5.231952608905
4	162	31.475282243489	5.76319318861
4	174	33.147018470551	6.493078850195
4	179	33.524840362758	4.549922708689
4	188	35.601316175519	6.087653553636
4	193	36.75468586474	5.211246749986
4	198	37.926093838268	5.304285778051
4	207	39.593502632351	4.575941027285
4	218	40.814452162172	1.850121991835
4	223	42.251471996775	2.796797280693
4	254	47.254347518024	3.298713972094
4	259	47.940352236074	0.894108999638
4	287	52.378692957344	0.105495854805
4	312	59.160425936611	5.823565360222
4	318	60.300552320793	6.534235924847
4	341	64.169003903207	2.616651685418
4	352	67.066818293368	5.132678177747
4	361	68.105043785686	5.981970808916
4	366	68.11853096866	0.280528819948
4	373	69.934562215354	2.027630541563
4	415	76.381706536259	3.780098968013
4	420	77.048267492335	3.767201735071
4	427	78.821303428982	2.49801424401
4	448	81.462787868359	2.524128668151
4	453	83.155203027205	3.961838925554
4	465	85.329153770426	5.949863502696
4	472	87.349610200567	7.455416580453
4	477	87.612983101969	4.181711768186
4	531	97.405605246695	2.066776262173
4	537	98.188464269883	2.256041855951
4	542	98.476514354109	2.503804155213
5	90	22.049520562027	12.814244439467
5	95	22.164026533031	9.287951077019
5	101	22.423785665048	8.831958288395
5	110	23.740051413021	10.112117184506
5	136	27.018956244766	9.598602679752
5	228	42.273327800006	16.80466724855
5	234	42.709723427063	13.799559139342
5	239	43.557517954791	12.844330449036
5	246	44.419690995316	11.445220851522
5	264	48.135647162194	13.085576392993
5	275	52.171415263721	12.319016576421
5	282	52.318669897221	12.200637593882
5	306	58.403393284099	18.016235884147
5	323	60.825860280342	8.912610326591
5	334	63.50954506156	9.741123712564
5	380	70.888605306099	17.108460411649
5	385	71.895284458816	14.207059216531
5	390	71.999898320787	7.316347374529
5	404	74.747113048626	9.999161337262
5	443	80.22313974235	11.971294669079
5	482	87.703910076025	15.05891485913
5	489	88.874400697271	13.457125112743
5	496	89.393953566515	10.765486564095
5	501	89.410574551151	10.476084705346
5	506	89.661064793181	5.337592063383
5	521	96.22357329707	10.672583864307

