version 2
run First-n2-13-20191125-12:37:04-6708
attr configname First-n2
attr datetime 20191125-12:37:04
attr experiment First-n2
attr inifile omnetpp.ini
attr iterationvars ""
attr iterationvarsf ""
attr measurement ""
attr network org.omnetpp.queueing.Pizza
attr processid 6708
attr repetition 13
attr replication ""
attr resultdir results_no_transient
attr runnumber 13
attr seedset 13
param **.PS.maxInventoriedPS 2
param **.U1.interArrivalTime exponential(2s)
param **.U2.interArrivalTime exponential(4s)
param **.PS.serviceTimeForInventoryU1 exponential(0.8s)
param **.PS.serviceTimeForInventoryU2 exponential(1.0s)
param **.PS.serviceTimeDirectU1 exponential(1.2s)
param **.PS.serviceTimeDirectU2 exponential(1.4s)
param **.PS.probabilityProducing 0.5
param **.CS.serviceTimeU1 exponential(0.8s)
param **.CS.serviceTimeU2 exponential(1.0s)

vector 0 Pizza.EntryQueueU1 queueLength:vector ETV
attr interpolationmode sample-hold
attr title "queue length, vector"
vector 1 Pizza.CS queueLength:vector ETV
attr interpolationmode sample-hold
attr title "queue length, vector"
vector 2 Pizza.EntryQueueU2 queueLength:vector ETV
attr interpolationmode sample-hold
attr title "queue length, vector"
vector 3 Pizza.sink lifeTime:vector ETV
attr interpolationmode none
attr title "lifetime of arrived jobs, vector"
attr unit s
vector 4 Pizza.sink lifeTimeU1:vector ETV
attr interpolationmode none
attr title "lifetime of arrived jobs, vector"
attr unit s
vector 5 Pizza.sink lifeTimeU2:vector ETV
attr interpolationmode none
attr title "lifetime of arrived jobs, vector"
attr unit s
0	0	0	0
0	5	3.549890252068	1
0	13	7.02760041119	2
0	14	8.239772737911	1
0	18	8.905913062476	2
0	21	10.18247065087	1
0	26	11.10461582422	0
0	38	11.893908381753	1
0	41	12.70405841711	0
0	45	13.169682580827	1
0	49	14.133667392739	0
0	62	15.447601080038	1
0	65	15.771880634189	0
0	101	22.352264943218	1
0	102	23.536007363466	0
0	141	30.138211036865	1
0	143	30.794615129974	2
0	145	30.935283025614	3
0	147	31.171034724125	4
0	148	31.582445713708	3
0	153	32.368232880874	2
0	158	32.451413811381	1
0	162	33.488301270984	2
0	168	34.051857965412	3
0	170	34.443205729595	4
0	173	36.037976440747	3
0	178	36.439804060089	2
0	182	36.722730710656	3
0	184	37.36729065058	4
0	188	37.518327199514	5
0	189	37.894550120253	4
0	195	38.557789152361	5
0	197	38.726129554213	4
0	203	39.959570998711	5
0	205	39.984634220157	6
0	207	42.082618305506	5
0	212	43.002435049756	4
0	217	43.37053923083	3
0	222	43.939526814153	2
0	226	44.140104167323	3
0	228	45.157799894553	4
0	230	45.45099461716	5
0	232	45.816317194003	6
0	234	46.355687618815	7
0	238	46.43730594337	8
0	240	48.097177047821	9
0	242	48.984686777512	10
0	243	49.07230966205	9
0	248	49.215714638771	8
0	253	51.685107806195	7
0	260	55.179259348425	6
0	266	55.369872178824	7
0	272	57.368874378092	8
0	275	57.914417098775	7
0	280	58.11057971378	6
0	286	59.046370360551	5
0	291	59.063678925697	4
0	296	59.417312321115	3
0	302	61.091846430207	4
0	306	61.155211392584	5
0	307	61.839753810166	4
0	313	63.541440950484	5
0	315	64.192129991927	6
0	318	64.309461590826	5
0	324	66.865125877889	6
0	329	68.131963252702	5
0	334	68.187956997419	4
0	339	69.295348406178	3
0	344	69.684034025479	2
0	348	69.941995022956	3
0	351	70.228209570098	2
0	355	70.451282232192	3
0	357	70.520096064229	4
0	361	71.645313698469	3
0	366	71.802238606202	2
0	374	75.080265450507	3
0	376	76.640338038615	4
0	377	76.744668862102	3
0	385	80.152917517079	2
0	390	80.170653051304	1
0	396	80.68968103668	0
0	435	85.553145834407	1
0	439	86.071346499499	0
0	445	88.156764987106	1
0	450	88.61856700719	0
0	454	88.935010549368	1
0	457	90.00262367507	0
0	477	93.237460730263	1
0	479	93.498432714765	2
0	480	93.596093113237	1
0	486	94.055189747269	2
0	487	95.084539710344	1
0	492	95.233181779052	0
1	0	0	0
2	0	0	0
2	7	3.739258279764	1
2	31	11.430983732464	0
2	40	12.678316803355	1
2	54	14.488617011546	0
2	60	14.544620616226	1
2	64	15.527706214026	2
2	70	16.725456586244	1
2	77	17.066777526787	2
2	80	17.895924143454	1
2	87	19.57172183766	0
2	164	33.813184208147	1
2	172	34.737826585931	2
2	268	56.685693749566	3
2	270	57.303084930696	4
2	274	57.77572760306	5
2	300	60.068309649398	6
2	317	64.269090102615	7
2	322	65.333432389986	8
2	370	72.808134092864	9
2	384	78.46702771487	10
2	401	81.354065603177	9
2	406	81.358416207473	8
2	411	81.462132604207	7
2	417	83.769961467603	6
2	423	83.993844770533	7
2	424	84.02530582403	6
2	429	84.162943240823	5
2	438	85.856272501388	6
2	443	87.867978905616	7
2	449	88.571772878567	8
2	463	90.887760446345	9
2	466	91.301898540914	8
2	471	92.421784175966	7
2	496	95.802894862115	8
2	500	98.42643137167	7
3	16	8.239772737911	5.232296137202
3	23	10.18247065087	6.632580398802
3	28	11.10461582422	4.07701541303
3	33	11.430983732464	2.525070669988
3	43	12.70405841711	8.964800137346
3	51	14.133667392739	2.239759010986
3	56	14.488617011546	1.318934430719
3	67	15.771880634189	3.093563830834
3	72	16.725456586244	1.277855506206
3	82	17.895924143454	3.351303527228
3	89	19.57172183766	4.044015623634
3	93	20.283567146033	3.216789619246
3	104	23.536007363466	2.491146916136
3	109	23.762936781357	1.410671838139
3	117	24.818125965829	0.25947280974
3	124	26.506956203642	1.160203027903
3	134	28.56392425612	0.381568829346
3	150	31.582445713708	1.480072257089
3	155	32.368232880874	2.230021844009
3	160	32.451413811381	1.656798681407
3	175	36.037976440747	5.102693415133
3	180	36.439804060089	5.268769335964
3	191	37.894550120253	4.406248849269
3	199	38.726129554213	4.674271588801
3	209	42.082618305506	7.639412575911
3	214	43.002435049756	6.2797043391
3	219	43.37053923083	6.00324858025
3	224	43.939526814153	6.421199614639
3	245	49.07230966205	10.514520509689
3	250	49.215714638771	9.25614364006
3	255	51.685107806195	11.700473586038
3	262	55.179259348425	11.039155181102
3	277	57.914417098775	12.756617204222
3	282	58.11057971378	12.65958509662
3	288	59.046370360551	13.230053166548
3	293	59.063678925697	12.707991306882
3	298	59.417312321115	12.980006377745
3	309	61.839753810166	13.742576762345
3	320	64.309461590826	15.324774813314
3	331	68.131963252702	12.762091073878
3	336	68.187956997419	10.819082619327
3	341	69.295348406178	8.203501975971
3	346	69.684034025479	8.528822632895
3	353	70.228209570098	6.686768619614
3	363	71.645313698469	7.453183706542
3	368	71.802238606202	4.937112728313
3	379	76.744668862102	6.802673839146
3	387	80.152917517079	9.701635284887
3	392	80.170653051304	9.650556987075
3	398	80.68968103668	5.609415586173
3	403	81.354065603177	4.713727564562
3	408	81.358416207473	47.545231999326
3	413	81.462132604207	46.724306018276
3	419	83.769961467603	27.084267718037
3	426	84.02530582403	26.722220893334
3	431	84.162943240823	26.387215637763
3	441	86.071346499499	26.003036850101
3	452	88.61856700719	3.065421172783
3	459	90.00262367507	1.845858687964
3	468	91.301898540914	2.366887991546
3	473	92.421784175966	28.152694073351
3	482	93.596093113237	28.262660723251
3	489	95.084539710344	1.847078980081
3	494	95.233181779052	1.734749064287
3	502	98.42643137167	4.371241624401
4	16	8.239772737911	5.232296137202
4	23	10.18247065087	6.632580398802
4	28	11.10461582422	4.07701541303
4	33	11.430983732464	2.525070669988
4	51	14.133667392739	2.239759010986
4	56	14.488617011546	1.318934430719
4	72	16.725456586244	1.277855506206
4	104	23.536007363466	2.491146916136
4	109	23.762936781357	1.410671838139
4	117	24.818125965829	0.25947280974
4	134	28.56392425612	0.381568829346
4	155	32.368232880874	2.230021844009
4	160	32.451413811381	1.656798681407
4	175	36.037976440747	5.102693415133
4	180	36.439804060089	5.268769335964
4	191	37.894550120253	4.406248849269
4	199	38.726129554213	4.674271588801
4	209	42.082618305506	7.639412575911
4	214	43.002435049756	6.2797043391
4	219	43.37053923083	6.00324858025
4	224	43.939526814153	6.421199614639
4	245	49.07230966205	10.514520509689
4	250	49.215714638771	9.25614364006
4	255	51.685107806195	11.700473586038
4	262	55.179259348425	11.039155181102
4	277	57.914417098775	12.756617204222
4	282	58.11057971378	12.65958509662
4	288	59.046370360551	13.230053166548
4	293	59.063678925697	12.707991306882
4	298	59.417312321115	12.980006377745
4	309	61.839753810166	13.742576762345
4	320	64.309461590826	15.324774813314
4	331	68.131963252702	12.762091073878
4	336	68.187956997419	10.819082619327
4	341	69.295348406178	8.203501975971
4	346	69.684034025479	8.528822632895
4	353	70.228209570098	6.686768619614
4	363	71.645313698469	7.453183706542
4	368	71.802238606202	4.937112728313
4	379	76.744668862102	6.802673839146
4	387	80.152917517079	9.701635284887
4	392	80.170653051304	9.650556987075
4	398	80.68968103668	5.609415586173
4	403	81.354065603177	4.713727564562
4	452	88.61856700719	3.065421172783
4	459	90.00262367507	1.845858687964
4	468	91.301898540914	2.366887991546
4	489	95.084539710344	1.847078980081
4	494	95.233181779052	1.734749064287
4	502	98.42643137167	4.371241624401
5	43	12.70405841711	8.964800137346
5	67	15.771880634189	3.093563830834
5	82	17.895924143454	3.351303527228
5	89	19.57172183766	4.044015623634
5	93	20.283567146033	3.216789619246
5	124	26.506956203642	1.160203027903
5	150	31.582445713708	1.480072257089
5	408	81.358416207473	47.545231999326
5	413	81.462132604207	46.724306018276
5	419	83.769961467603	27.084267718037
5	426	84.02530582403	26.722220893334
5	431	84.162943240823	26.387215637763
5	441	86.071346499499	26.003036850101
5	473	92.421784175966	28.152694073351
5	482	93.596093113237	28.262660723251

