version 2
run First-n3-10-20191125-12:37:01-3248
attr configname First-n3
attr datetime 20191125-12:37:01
attr experiment First-n3
attr inifile omnetpp.ini
attr iterationvars ""
attr iterationvarsf ""
attr measurement ""
attr network org.omnetpp.queueing.Pizza
attr processid 3248
attr repetition 10
attr replication ""
attr resultdir results_no_transient
attr runnumber 10
attr seedset 10
param **.PS.maxInventoriedPS 3
param **.U1.interArrivalTime exponential(2s)
param **.U2.interArrivalTime exponential(4s)
param **.PS.serviceTimeForInventoryU1 exponential(0.8s)
param **.PS.serviceTimeForInventoryU2 exponential(1.0s)
param **.PS.serviceTimeDirectU1 exponential(1.2s)
param **.PS.serviceTimeDirectU2 exponential(1.4s)
param **.PS.probabilityProducing 0.5
param **.CS.serviceTimeU1 exponential(0.8s)
param **.CS.serviceTimeU2 exponential(1.0s)

vector 0 Pizza.EntryQueueU1 queueLength:vector ETV
attr interpolationmode sample-hold
attr title "queue length, vector"
vector 1 Pizza.CS queueLength:vector ETV
attr interpolationmode sample-hold
attr title "queue length, vector"
vector 2 Pizza.EntryQueueU2 queueLength:vector ETV
attr interpolationmode sample-hold
attr title "queue length, vector"
vector 3 Pizza.sink lifeTime:vector ETV
attr interpolationmode none
attr title "lifetime of arrived jobs, vector"
attr unit s
vector 4 Pizza.sink lifeTimeU2:vector ETV
attr interpolationmode none
attr title "lifetime of arrived jobs, vector"
attr unit s
vector 5 Pizza.sink lifeTimeU1:vector ETV
attr interpolationmode none
attr title "lifetime of arrived jobs, vector"
attr unit s
0	0	0	0
0	9	2.950868889951	1
0	13	4.158229986914	0
0	20	4.331200204502	1
0	21	4.403018544262	0
0	36	6.643851325214	1
0	38	7.085448467383	2
0	43	7.434516905248	1
0	49	8.474420933571	0
0	53	8.981661905636	1
0	55	9.263540920408	2
0	61	10.827691676624	3
0	63	11.185648402948	2
0	68	11.452435649738	1
0	75	11.99388646103	2
0	77	12.293201717883	1
0	85	13.050484846771	0
0	109	14.894109054308	1
0	111	15.192925357061	2
0	113	15.636583037795	3
0	115	16.351089095045	2
0	122	17.475137184831	1
0	128	17.979129797276	0
0	139	18.548987302466	1
0	141	18.876737628926	2
0	143	19.90797674234	1
0	151	21.028696175047	2
0	156	23.421669179632	1
0	163	23.826557942165	0
0	179	24.527508650772	1
0	181	24.799083599159	2
0	182	24.882675021032	1
0	186	24.965005885723	2
0	192	25.694016702375	3
0	194	25.845427822883	2
0	199	25.942844524421	1
0	204	25.978087421633	0
0	210	26.816473505752	1
0	212	27.448416776533	0
0	218	28.300353909907	1
0	219	28.711392825162	0
0	286	38.071833708162	1
0	287	38.467515637612	0
0	365	52.123453637966	1
0	370	52.637819745354	2
0	371	52.683845336752	1
0	376	53.02271048749	0
0	382	54.725456825628	1
0	391	56.398337195351	2
0	392	57.227742286595	1
0	398	57.249746273303	2
0	399	57.917306023219	1
0	404	58.169491702458	0
0	410	60.387845476221	1
0	413	61.674584762323	0
0	419	62.142927219772	1
0	421	62.372658374725	0
0	441	64.869584516567	1
0	443	65.474879079279	2
0	447	66.119168868675	1
0	452	66.489943726309	0
0	466	67.254895950177	1
0	467	67.339051249386	0
0	473	67.41526779093	1
0	474	67.569075565219	0
0	481	68.387903284173	1
0	482	69.553782326693	0
0	488	70.215749347166	1
0	489	70.241659561508	0
0	525	73.990209885581	1
0	527	74.86872545109	0
0	560	78.463841289173	1
0	561	78.49309862581	0
0	601	88.969204075826	1
0	603	89.731729486158	2
0	605	90.983205040936	3
0	608	92.291830619453	2
0	613	92.312301463975	1
0	619	92.603366307587	0
0	658	97.82926088559	1
0	661	98.551874280236	0
1	0	0	0
2	0	0	0
2	5	1.503508115357	1
2	27	5.520153280876	2
2	29	5.53597761008	3
2	30	5.759895128889	2
2	40	7.174301375503	3
2	42	7.298681895418	4
2	83	12.4156994253	5
2	90	13.126337316711	4
2	97	13.655976392589	3
2	103	14.640243949703	2
2	133	18.057626230674	1
2	153	21.987878580683	2
2	155	22.635467246016	3
2	162	23.793530979189	4
2	168	24.438372084386	3
2	173	24.440781748442	2
2	225	30.318473759995	1
2	230	30.344201686077	0
2	255	33.118776286284	1
2	256	33.573637880493	0
2	368	52.636538867163	1
2	380	54.557799143898	2
2	384	54.828764561722	3
2	386	55.82583112229	4
2	408	58.875570553605	5
2	428	62.799930783025	4
2	434	64.509387165547	3
2	446	65.672511302898	4
2	457	66.520568635695	3
2	464	66.555600068384	4
2	494	71.498832500711	3
2	500	72.019435476601	4
2	502	72.455260244609	3
2	507	72.648896128414	2
2	512	72.665930610089	1
2	518	73.327619615164	0
2	533	75.187270666782	1
2	536	75.551140243049	0
2	558	78.26728280419	1
2	566	78.57157740912	0
2	607	91.268934625562	1
2	624	92.841525758838	0
2	667	99.848435125604	1
3	15	4.158229986914	2.738603048725
3	23	4.403018544262	1.452149654311
3	32	5.759895128889	1.428694924387
3	45	7.434516905248	5.931008789891
3	51	8.474420933571	1.830569608357
3	65	11.185648402948	4.100199935565
3	70	11.452435649738	2.470773744102
3	79	12.293201717883	3.029660797475
3	87	13.050484846771	2.222793170147
3	92	13.126337316711	1.132450855681
3	99	13.655976392589	8.135823111713
3	105	14.640243949703	9.104266339623
3	117	16.351089095045	9.176787719542
3	124	17.475137184831	2.581028130523
3	130	17.979129797276	2.786204440215
3	135	18.057626230674	2.421043192879
3	145	19.90797674234	12.609294846922
3	158	23.421669179632	4.872681877166
3	165	23.826557942165	4.949820313239
3	170	24.438372084386	3.409675909339
3	175	24.440781748442	12.025082323142
3	184	24.882675021032	2.894796440349
3	196	25.845427822883	1.317919172111
3	201	25.942844524421	1.143760925262
3	206	25.978087421633	1.01308153591
3	214	27.448416776533	1.754400074158
3	221	28.711392825162	1.89491931941
3	227	30.318473759995	2.018119850088
3	232	30.344201686077	7.708734440061
3	238	30.748333824167	6.954802844978
3	246	31.858979573664	0.121194104649
3	258	33.573637880493	0.546634520811
3	264	34.154839159085	1.036062872801
3	271	36.648288665838	0.863073322383
3	278	37.11060723942	0.056421471836
3	289	38.467515637612	1.218421493208
3	293	38.497755568435	0.425921860273
3	302	39.547659187936	0.82825853963
3	309	40.364829713795	0.722819951391
3	319	41.408028794211	0.329769316675
3	326	41.76772602328	0.2285121013
3	333	41.935777784043	0.002336276476
3	343	43.900446035386	1.057594127012
3	350	45.735432865254	0.162706878059
3	357	46.803405052101	0.04985013144
3	373	52.683845336752	1.190641624626
3	378	53.02271048749	0.899256849524
3	394	57.227742286595	4.589922541241
3	401	57.917306023219	3.191849197591
3	406	58.169491702458	1.771154507107
3	415	61.674584762323	4.42483848902
3	423	62.372658374725	1.984812898504
3	430	62.799930783025	0.657003563253
3	436	64.509387165547	11.872848298384
3	449	66.119168868675	11.561369724777
3	454	66.489943726309	1.620359209742
3	459	66.520568635695	1.045689556416
3	469	67.339051249386	12.510286687664
3	476	67.569075565219	0.314179615042
3	484	69.553782326693	2.138514535763
3	491	70.241659561508	1.853756277335
3	496	71.498832500711	1.283083153545
3	504	72.455260244609	16.629429122319
3	509	72.648896128414	13.773325574809
3	514	72.665930610089	6.993419307191
3	520	73.327619615164	6.77201954678
3	529	74.86872545109	2.849289974489
3	538	75.551140243049	1.560930357468
3	543	76.034468327386	0.847197660604
3	551	77.526107238552	0.181261129932
3	563	78.49309862581	0.725060298355
3	568	78.57157740912	0.107736119947
3	573	80.836416263113	2.569133458923
3	586	84.759808940179	1.066605502442
3	593	85.016809746402	0.239764119005
3	610	92.291830619453	3.379815295023
3	615	92.312301463975	3.343097388149
3	621	92.603366307587	2.871636821429
3	626	92.841525758838	1.858320717902
3	630	93.278051016257	2.009116390695
3	638	95.233100533854	0.236730764046
3	646	95.358488687768	0.083107855065
3	653	96.729372661356	0.42074086094
3	663	98.551874280236	1.602019612402
4	15	4.158229986914	2.738603048725
4	45	7.434516905248	5.931008789891
4	99	13.655976392589	8.135823111713
4	105	14.640243949703	9.104266339623
4	117	16.351089095045	9.176787719542
4	145	19.90797674234	12.609294846922
4	175	24.440781748442	12.025082323142
4	184	24.882675021032	2.894796440349
4	232	30.344201686077	7.708734440061
4	238	30.748333824167	6.954802844978
4	264	34.154839159085	1.036062872801
4	271	36.648288665838	0.863073322383
4	302	39.547659187936	0.82825853963
4	357	46.803405052101	0.04985013144
4	373	52.683845336752	1.190641624626
4	436	64.509387165547	11.872848298384
4	449	66.119168868675	11.561369724777
4	469	67.339051249386	12.510286687664
4	504	72.455260244609	16.629429122319
4	509	72.648896128414	13.773325574809
4	514	72.665930610089	6.993419307191
4	520	73.327619615164	6.77201954678
4	529	74.86872545109	2.849289974489
4	543	76.034468327386	0.847197660604
4	551	77.526107238552	0.181261129932
4	573	80.836416263113	2.569133458923
4	593	85.016809746402	0.239764119005
4	610	92.291830619453	3.379815295023
4	630	93.278051016257	2.009116390695
5	23	4.403018544262	1.452149654311
5	32	5.759895128889	1.428694924387
5	51	8.474420933571	1.830569608357
5	65	11.185648402948	4.100199935565
5	70	11.452435649738	2.470773744102
5	79	12.293201717883	3.029660797475
5	87	13.050484846771	2.222793170147
5	92	13.126337316711	1.132450855681
5	124	17.475137184831	2.581028130523
5	130	17.979129797276	2.786204440215
5	135	18.057626230674	2.421043192879
5	158	23.421669179632	4.872681877166
5	165	23.826557942165	4.949820313239
5	170	24.438372084386	3.409675909339
5	196	25.845427822883	1.317919172111
5	201	25.942844524421	1.143760925262
5	206	25.978087421633	1.01308153591
5	214	27.448416776533	1.754400074158
5	221	28.711392825162	1.89491931941
5	227	30.318473759995	2.018119850088
5	246	31.858979573664	0.121194104649
5	258	33.573637880493	0.546634520811
5	278	37.11060723942	0.056421471836
5	289	38.467515637612	1.218421493208
5	293	38.497755568435	0.425921860273
5	309	40.364829713795	0.722819951391
5	319	41.408028794211	0.329769316675
5	326	41.76772602328	0.2285121013
5	333	41.935777784043	0.002336276476
5	343	43.900446035386	1.057594127012
5	350	45.735432865254	0.162706878059
5	378	53.02271048749	0.899256849524
5	394	57.227742286595	4.589922541241
5	401	57.917306023219	3.191849197591
5	406	58.169491702458	1.771154507107
5	415	61.674584762323	4.42483848902
5	423	62.372658374725	1.984812898504
5	430	62.799930783025	0.657003563253
5	454	66.489943726309	1.620359209742
5	459	66.520568635695	1.045689556416
5	476	67.569075565219	0.314179615042
5	484	69.553782326693	2.138514535763
5	491	70.241659561508	1.853756277335
5	496	71.498832500711	1.283083153545
5	538	75.551140243049	1.560930357468
5	563	78.49309862581	0.725060298355
5	568	78.57157740912	0.107736119947
5	586	84.759808940179	1.066605502442
5	615	92.312301463975	3.343097388149
5	621	92.603366307587	2.871636821429
5	626	92.841525758838	1.858320717902
5	638	95.233100533854	0.236730764046
5	646	95.358488687768	0.083107855065
5	653	96.729372661356	0.42074086094
5	663	98.551874280236	1.602019612402

