version 2
run First-n4-11-20191125-12:37:01-10656
attr configname First-n4
attr datetime 20191125-12:37:01
attr experiment First-n4
attr inifile omnetpp.ini
attr iterationvars ""
attr iterationvarsf ""
attr measurement ""
attr network org.omnetpp.queueing.Pizza
attr processid 10656
attr repetition 11
attr replication ""
attr resultdir results_no_transient
attr runnumber 11
attr seedset 11
param **.PS.maxInventoriedPS 4
param **.U1.interArrivalTime exponential(2s)
param **.U2.interArrivalTime exponential(4s)
param **.PS.serviceTimeForInventoryU1 exponential(0.8s)
param **.PS.serviceTimeForInventoryU2 exponential(1.0s)
param **.PS.serviceTimeDirectU1 exponential(1.2s)
param **.PS.serviceTimeDirectU2 exponential(1.4s)
param **.PS.probabilityProducing 0.5
param **.CS.serviceTimeU1 exponential(0.8s)
param **.CS.serviceTimeU2 exponential(1.0s)

vector 0 Pizza.EntryQueueU1 queueLength:vector ETV
attr interpolationmode sample-hold
attr title "queue length, vector"
vector 1 Pizza.CS queueLength:vector ETV
attr interpolationmode sample-hold
attr title "queue length, vector"
vector 2 Pizza.EntryQueueU2 queueLength:vector ETV
attr interpolationmode sample-hold
attr title "queue length, vector"
vector 3 Pizza.sink lifeTime:vector ETV
attr interpolationmode none
attr title "lifetime of arrived jobs, vector"
attr unit s
vector 4 Pizza.sink lifeTimeU2:vector ETV
attr interpolationmode none
attr title "lifetime of arrived jobs, vector"
attr unit s
vector 5 Pizza.sink lifeTimeU1:vector ETV
attr interpolationmode none
attr title "lifetime of arrived jobs, vector"
attr unit s
0	0	0	0
0	7	0.397559776347	1
0	9	0.82918977245	2
0	12	1.924040615244	1
0	21	3.410677649658	2
0	23	3.605489874977	3
0	25	4.534659223345	2
0	31	5.118339758079	1
0	36	5.262681591808	0
0	48	7.410359181033	1
0	50	7.754101433183	2
0	52	7.805043269295	3
0	58	10.650790573663	4
0	60	11.353524261599	3
0	66	12.54624612408	2
0	71	13.06907548676	1
0	77	13.845846552745	0
0	92	14.641053681864	1
0	93	15.208330796752	0
0	147	26.788209404985	1
0	149	27.501422181734	2
0	152	27.985064944781	3
0	153	27.991089611057	2
0	160	28.317151887249	1
0	165	28.726250410802	0
0	201	38.993654940366	1
0	202	39.626684670994	0
0	206	39.636198346431	1
0	208	39.838411678942	2
0	211	40.479248691195	1
0	216	40.654245025569	0
0	223	41.730015502453	1
0	224	41.935317120177	0
0	243	43.94309496663	1
0	245	45.547627733429	0
0	266	48.548132599211	1
0	267	48.957249921844	0
0	278	49.588123267535	1
0	280	50.057770977603	2
0	285	51.054898257837	1
0	292	52.207712991043	2
0	293	52.547694826258	1
0	298	53.009011752516	0
0	359	70.906322597572	1
0	361	71.439550131178	0
0	367	74.209025166668	1
0	368	74.276765661006	0
0	374	74.984146296326	1
0	375	76.220868674911	0
0	388	78.657895547153	1
0	392	79.371762559001	2
0	397	79.916288610517	3
0	399	80.197065394593	2
0	404	82.349413848957	1
0	411	84.266506090736	0
0	431	86.352173502133	1
0	433	87.06702205404	0
0	473	93.090412327585	1
0	475	94.950764776191	2
0	476	95.707166759314	1
0	482	96.161762056988	2
0	483	96.227630323744	1
0	488	96.393541800049	0
1	0	0	0
2	0	0	0
2	5	0.36167654501	1
2	19	2.850333390812	2
2	41	6.881213055259	1
2	83	14.226270272121	2
2	85	14.512653024495	3
2	86	14.583017935683	2
2	99	15.739448243336	1
2	104	15.80525309647	0
2	118	17.752000696016	1
2	122	20.566037225912	0
2	159	28.052193784611	1
2	170	29.081329882667	0
2	199	38.858754654928	1
2	229	42.38265627078	0
2	284	50.828370615038	1
2	305	55.27448946671	0
2	395	79.907754434216	1
2	416	84.266643904633	0
2	422	84.366024937156	1
2	423	84.413387353267	0
2	429	85.659786928417	1
2	438	87.124707430852	0
2	444	87.606075634853	1
2	446	87.750032955829	2
2	447	87.931980705095	1
2	452	88.243462307474	0
2	471	93.081949361752	1
2	493	96.437258677915	0
2	515	98.912531470908	1
2	516	98.944996654541	0
3	14	1.924040615244	1.641033596265
3	27	4.534659223345	4.137099446998
3	33	5.118339758079	4.289149985629
3	38	5.262681591808	1.85200394215
3	43	6.881213055259	3.275723180282
3	62	11.353524261599	10.991847716589
3	68	12.54624612408	5.135886943047
3	73	13.06907548676	5.314974053577
3	79	13.845846552745	6.04080328345
3	88	14.583017935683	3.93222736202
3	95	15.208330796752	12.35799740594
3	101	15.739448243336	1.098394561472
3	106	15.80525309647	1.578982824349
3	110	16.023642660359	1.510989635864
3	124	20.566037225912	2.838107546101
3	128	21.391159764496	3.63915906848
3	137	23.635915491165	0.358886258179
3	155	27.991089611057	1.244782063633
3	162	28.317151887249	1.528942482264
3	167	28.726250410802	1.224828229068
3	172	29.081329882667	1.096264937886
3	176	29.253982041815	1.201788257204
3	185	34.054164294889	0.03281854069
3	192	36.614579036783	0.489123520407
3	204	39.626684670994	1.445583870928
3	213	40.479248691195	1.485593750829
3	218	40.654245025569	1.018046679138
3	226	41.935317120177	2.096905441235
3	231	42.38265627078	0.652640768327
3	235	42.925081670769	4.066327015841
3	247	45.547627733429	2.611879638571
3	251	47.129094703498	3.185999736868
3	259	48.102559206899	0.579493244975
3	269	48.957249921844	0.838025359336
3	273	49.309599559138	0.761466959927
3	287	51.054898257837	1.693585494538
3	295	52.547694826258	2.959571558723
3	300	53.009011752516	2.951240774913
3	307	55.27448946671	3.066776475667
3	311	55.350690115258	4.52231950022
3	318	56.54098059635	0.741363060631
3	327	57.388976341337	0.290169334003
3	335	59.562649743655	0.491500726048
3	344	64.06483303644	0.152710331313
3	351	68.877094045546	0.544837353091
3	363	71.439550131178	1.046177910794
3	370	74.276765661006	3.370443063434
3	377	76.220868674911	2.011843508243
3	381	77.54477188801	2.560625591684
3	401	80.197065394593	2.428097148672
3	406	82.349413848957	3.691518301804
3	413	84.266506090736	4.894743531735
3	418	84.266643904633	4.350355294116
3	425	84.413387353267	4.505632919051
3	435	87.06702205404	2.700997116884
3	440	87.124707430852	0.772533928719
3	449	87.931980705095	2.272193776678
3	454	88.243462307474	0.637386672621
3	462	89.477032553247	1.726999597418
3	478	95.707166759314	3.105211604149
3	485	96.227630323744	3.137217996159
3	490	96.393541800049	1.442777023858
3	495	96.437258677915	0.275496620927
3	500	97.480734946245	4.398785584493
3	508	98.509490433493	0.231070446485
3	518	98.944996654541	0.093673415584
3	522	99.026618728535	0.114087257627
4	14	1.924040615244	1.641033596265
4	62	11.353524261599	10.991847716589
4	95	15.208330796752	12.35799740594
4	106	15.80525309647	1.578982824349
4	110	16.023642660359	1.510989635864
4	124	20.566037225912	2.838107546101
4	128	21.391159764496	3.63915906848
4	176	29.253982041815	1.201788257204
4	235	42.925081670769	4.066327015841
4	311	55.350690115258	4.52231950022
4	318	56.54098059635	0.741363060631
4	363	71.439550131178	1.046177910794
4	401	80.197065394593	2.428097148672
4	425	84.413387353267	4.505632919051
4	435	87.06702205404	2.700997116884
4	449	87.931980705095	2.272193776678
4	454	88.243462307474	0.637386672621
4	462	89.477032553247	1.726999597418
4	500	97.480734946245	4.398785584493
4	522	99.026618728535	0.114087257627
5	27	4.534659223345	4.137099446998
5	33	5.118339758079	4.289149985629
5	38	5.262681591808	1.85200394215
5	43	6.881213055259	3.275723180282
5	68	12.54624612408	5.135886943047
5	73	13.06907548676	5.314974053577
5	79	13.845846552745	6.04080328345
5	88	14.583017935683	3.93222736202
5	101	15.739448243336	1.098394561472
5	137	23.635915491165	0.358886258179
5	155	27.991089611057	1.244782063633
5	162	28.317151887249	1.528942482264
5	167	28.726250410802	1.224828229068
5	172	29.081329882667	1.096264937886
5	185	34.054164294889	0.03281854069
5	192	36.614579036783	0.489123520407
5	204	39.626684670994	1.445583870928
5	213	40.479248691195	1.485593750829
5	218	40.654245025569	1.018046679138
5	226	41.935317120177	2.096905441235
5	231	42.38265627078	0.652640768327
5	247	45.547627733429	2.611879638571
5	251	47.129094703498	3.185999736868
5	259	48.102559206899	0.579493244975
5	269	48.957249921844	0.838025359336
5	273	49.309599559138	0.761466959927
5	287	51.054898257837	1.693585494538
5	295	52.547694826258	2.959571558723
5	300	53.009011752516	2.951240774913
5	307	55.27448946671	3.066776475667
5	327	57.388976341337	0.290169334003
5	335	59.562649743655	0.491500726048
5	344	64.06483303644	0.152710331313
5	351	68.877094045546	0.544837353091
5	370	74.276765661006	3.370443063434
5	377	76.220868674911	2.011843508243
5	381	77.54477188801	2.560625591684
5	406	82.349413848957	3.691518301804
5	413	84.266506090736	4.894743531735
5	418	84.266643904633	4.350355294116
5	440	87.124707430852	0.772533928719
5	478	95.707166759314	3.105211604149
5	485	96.227630323744	3.137217996159
5	490	96.393541800049	1.442777023858
5	495	96.437258677915	0.275496620927
5	508	98.509490433493	0.231070446485
5	518	98.944996654541	0.093673415584

