version 2
run First-n5-11-20191125-12:37:04-3408
attr configname First-n5
attr datetime 20191125-12:37:04
attr experiment First-n5
attr inifile omnetpp.ini
attr iterationvars ""
attr iterationvarsf ""
attr measurement ""
attr network org.omnetpp.queueing.Pizza
attr processid 3408
attr repetition 11
attr replication ""
attr resultdir results_no_transient
attr runnumber 11
attr seedset 11
param **.PS.maxInventoriedPS 5
param **.U1.interArrivalTime exponential(2s)
param **.U2.interArrivalTime exponential(4s)
param **.PS.serviceTimeForInventoryU1 exponential(0.8s)
param **.PS.serviceTimeForInventoryU2 exponential(1.0s)
param **.PS.serviceTimeDirectU1 exponential(1.2s)
param **.PS.serviceTimeDirectU2 exponential(1.4s)
param **.PS.probabilityProducing 0.5
param **.CS.serviceTimeU1 exponential(0.8s)
param **.CS.serviceTimeU2 exponential(1.0s)

vector 0 Pizza.EntryQueueU1 queueLength:vector ETV
attr interpolationmode sample-hold
attr title "queue length, vector"
vector 1 Pizza.CS queueLength:vector ETV
attr interpolationmode sample-hold
attr title "queue length, vector"
vector 2 Pizza.EntryQueueU2 queueLength:vector ETV
attr interpolationmode sample-hold
attr title "queue length, vector"
vector 3 Pizza.sink lifeTime:vector ETV
attr interpolationmode none
attr title "lifetime of arrived jobs, vector"
attr unit s
vector 4 Pizza.sink lifeTimeU2:vector ETV
attr interpolationmode none
attr title "lifetime of arrived jobs, vector"
attr unit s
vector 5 Pizza.sink lifeTimeU1:vector ETV
attr interpolationmode none
attr title "lifetime of arrived jobs, vector"
attr unit s
0	0	0	0
0	7	0.397559776347	1
0	9	0.82918977245	2
0	12	1.924040615244	1
0	21	3.410677649658	2
0	23	3.605489874977	3
0	25	4.534659223345	2
0	31	5.118339758079	1
0	36	5.262681591808	0
0	48	7.410359181033	1
0	50	7.754101433183	2
0	52	7.805043269295	3
0	58	10.650790573663	4
0	61	11.353524261599	3
0	66	11.399351054945	2
0	71	11.436106481422	1
0	77	12.943095776975	0
0	91	14.641053681864	1
0	93	15.466196427651	2
0	94	15.978311796129	1
0	102	16.793990044111	2
0	105	17.230769171889	3
0	106	17.251730679433	2
0	111	17.256544882674	1
0	117	18.000235323262	2
0	118	18.505448400268	1
0	125	19.764015673012	0
0	131	20.263730570707	1
0	133	20.367750075319	2
0	134	20.529744156978	1
0	138	21.264965720767	2
0	142	21.634777024198	3
0	148	22.781033617187	4
0	153	23.040462489084	3
0	161	25.773225533957	2
0	166	26.330584487031	1
0	171	27.316297792618	0
0	203	32.980559599538	1
0	205	33.168268560753	2
0	206	33.306162367186	1
0	212	33.399860107465	0
0	221	34.406353788605	1
0	224	35.368803744881	0
0	230	36.356493574775	1
0	232	36.44092035999	0
0	238	36.726813876195	1
0	239	36.748520939757	0
0	260	39.376933910571	1
0	261	39.394345373889	0
0	265	39.603744414807	1
0	267	40.073392124875	2
0	271	41.396595300669	1
0	277	42.223334138315	2
0	279	42.94287841983	3
0	283	43.648118731261	2
0	288	43.933623278764	1
0	295	44.210278880713	0
0	301	47.128863745104	1
0	308	49.091721749416	2
0	309	49.443746271231	1
0	315	50.05407680205	0
0	323	51.88693825233	1
0	325	52.708333564815	0
0	333	53.350746459421	1
0	337	54.991941038443	0
0	346	57.03854447219	1
0	349	57.829156568271	0
0	374	61.898802006954	1
0	377	63.249042179446	2
0	383	65.054480725786	1
0	388	65.054618539683	0
0	413	68.629913315355	1
0	414	69.314847928718	0
0	448	71.295871518317	1
0	451	73.156223966923	2
0	452	74.118218071584	1
0	462	76.095049546445	0
0	468	76.332143230294	1
0	469	76.856522380303	0
0	487	78.419095766955	1
0	489	78.582339914942	2
0	490	78.774579495985	1
0	496	79.754321729354	0
0	510	81.499831410458	1
0	512	81.95042680868	0
0	519	82.187738032055	1
0	522	82.6961199512	0
0	552	85.524976099486	1
0	556	86.076445513057	0
0	569	87.011083505279	1
0	571	87.314185357895	2
0	572	88.143964639499	1
0	581	89.405084691541	0
0	599	91.038895049787	1
0	600	91.089346479121	0
0	640	96.262860236086	1
0	646	98.897046679136	2
0	647	99.012926743333	1
0	652	99.468244487204	0
1	0	0	0
2	0	0	0
2	5	0.36167654501	1
2	19	2.850333390812	2
2	41	6.881213055259	1
2	82	13.00037232745	0
2	89	14.226270272121	1
2	124	18.770369266671	2
2	140	21.307172280564	3
2	146	22.529128856125	4
2	150	22.788937130763	5
2	152	22.872740845884	6
2	157	24.415995558591	7
2	176	29.332457253436	6
2	183	30.639905876757	7
2	184	30.998288686348	6
2	189	31.404565756498	5
2	195	31.675327462728	6
2	197	32.709426813135	5
2	217	33.882153144427	4
2	244	37.613366988007	3
2	249	38.245132026767	2
2	254	38.957670633286	1
2	282	43.644943422838	2
2	292	44.028408947002	3
2	299	45.713039195379	4
2	303	47.982171596051	5
2	319	50.947623838577	6
2	331	53.095642944797	7
2	343	55.819829710252	8
2	348	57.370071969568	9
2	355	60.270537888939	8
2	363	61.630636537808	7
2	368	61.836538279978	6
2	382	64.717570471222	7
2	393	65.292351778817	6
2	398	65.448911388681	5
2	403	65.93548356529	4
2	419	69.564033210621	3
2	425	69.71014600635	4
2	426	69.829148941153	3
2	431	69.885809073635	2
2	436	69.91790509589	1
2	441	70.202657654647	0
2	458	74.339869417182	1
2	461	75.169426798706	2
2	475	77.771976948097	1
2	480	77.813767886758	0
2	544	84.975381371543	1
2	545	85.236407622615	0
2	554	85.666197965281	1
2	561	86.167854222127	0
2	580	89.327863469849	1
2	586	89.838575102541	0
2	644	97.611050485938	1
3	14	1.924040615244	1.641033596265
3	27	4.534659223345	4.137099446998
3	33	5.118339758079	4.289149985629
3	38	5.262681591808	1.85200394215
3	43	6.881213055259	3.275723180282
3	63	11.353524261599	10.991847716589
3	68	11.399351054945	3.988991873912
3	73	11.436106481422	3.682005048239
3	79	12.943095776975	5.13805250768
3	84	13.00037232745	2.349581753787
3	96	15.978311796129	13.127978405317
3	108	17.251730679433	2.610676997569
3	113	17.256544882674	1.790348455023
3	120	18.505448400268	1.711458356157
3	127	19.764015673012	2.533246501123
3	136	20.529744156978	2.529508833716
3	155	23.040462489084	2.776731918377
3	163	25.773225533957	5.405475458638
3	168	26.330584487031	5.065618766264
3	173	27.316297792618	5.68152076842
3	178	29.332457253436	6.551423636249
3	186	30.998288686348	16.772018414227
3	191	31.404565756498	12.634196489827
3	199	32.709426813135	11.402254532571
3	208	33.306162367186	10.777033511061
3	214	33.399860107465	0.419300507927
3	219	33.882153144427	0.713884583674
3	226	35.368803744881	12.579866614118
3	234	36.44092035999	2.034566571385
3	241	36.748520939757	0.392027364982
3	246	37.613366988007	0.886553111812
3	251	38.245132026767	15.372391180883
3	256	38.957670633286	14.541675074695
3	263	39.394345373889	8.754439497132
3	273	41.396595300669	2.019661390098
3	285	43.648118731261	4.044374316454
3	290	43.933623278764	3.860231153889
3	297	44.210278880713	1.986944742398
3	311	49.443746271231	6.500867851401
3	317	50.05407680205	2.925213056946
3	327	52.708333564815	3.616611815399
3	339	54.991941038443	3.105002786113
3	351	57.829156568271	4.47841010885
3	357	60.270537888939	3.231993416749
3	365	61.630636537808	29.95530907508
3	370	61.836538279978	18.19159485714
3	385	65.054480725786	21.026071778784
3	390	65.054618539683	3.155816532729
3	395	65.292351778817	2.043309599371
3	400	65.448911388681	19.735872193302
3	405	65.93548356529	17.953311969239
3	416	69.314847928718	18.367224090141
3	421	69.564033210621	0.934119895266
3	428	69.829148941153	16.733505996356
3	433	69.885809073635	14.065979363383
3	438	69.91790509589	12.547833126322
3	443	70.202657654647	5.485087183425
3	454	74.118218071584	4.408072065234
3	464	76.095049546445	4.799178028128
3	471	76.856522380303	3.70029841338
3	477	77.771976948097	1.439833717803
3	482	77.813767886758	3.473898469576
3	492	78.774579495985	3.605152697279
3	498	79.754321729354	1.335225962399
3	502	80.022207060533	1.439867145591
3	514	81.95042680868	0.873820017515
3	524	82.6961199512	1.196288540742
3	528	82.792154365213	0.604416333158
3	536	84.126761649113	0.696221672026
3	547	85.236407622615	0.81007930229
3	558	86.076445513057	1.101064141514
3	563	86.167854222127	0.642878122641
3	574	88.143964639499	2.477766674218
3	583	89.405084691541	2.394001186262
3	588	89.838575102541	2.524389744646
3	592	89.993152310326	0.665288840477
3	602	91.089346479121	0.381780116001
3	606	91.291856067186	0.252961017399
3	613	92.720505109809	0.634366564087
3	624	94.826565669222	0.049261827841
3	632	95.788475690741	0.537528239247
3	649	99.012926743333	3.003991541382
3	654	99.468244487204	3.205384251118
4	14	1.924040615244	1.641033596265
4	63	11.353524261599	10.991847716589
4	96	15.978311796129	13.127978405317
4	186	30.998288686348	16.772018414227
4	191	31.404565756498	12.634196489827
4	199	32.709426813135	11.402254532571
4	208	33.306162367186	10.777033511061
4	226	35.368803744881	12.579866614118
4	251	38.245132026767	15.372391180883
4	256	38.957670633286	14.541675074695
4	263	39.394345373889	8.754439497132
4	365	61.630636537808	29.95530907508
4	370	61.836538279978	18.19159485714
4	385	65.054480725786	21.026071778784
4	400	65.448911388681	19.735872193302
4	405	65.93548356529	17.953311969239
4	416	69.314847928718	18.367224090141
4	428	69.829148941153	16.733505996356
4	433	69.885809073635	14.065979363383
4	438	69.91790509589	12.547833126322
4	443	70.202657654647	5.485087183425
4	454	74.118218071584	4.408072065234
4	482	77.813767886758	3.473898469576
4	492	78.774579495985	3.605152697279
4	536	84.126761649113	0.696221672026
4	558	86.076445513057	1.101064141514
4	574	88.143964639499	2.477766674218
4	592	89.993152310326	0.665288840477
4	632	95.788475690741	0.537528239247
4	649	99.012926743333	3.003991541382
5	27	4.534659223345	4.137099446998
5	33	5.118339758079	4.289149985629
5	38	5.262681591808	1.85200394215
5	43	6.881213055259	3.275723180282
5	68	11.399351054945	3.988991873912
5	73	11.436106481422	3.682005048239
5	79	12.943095776975	5.13805250768
5	84	13.00037232745	2.349581753787
5	108	17.251730679433	2.610676997569
5	113	17.256544882674	1.790348455023
5	120	18.505448400268	1.711458356157
5	127	19.764015673012	2.533246501123
5	136	20.529744156978	2.529508833716
5	155	23.040462489084	2.776731918377
5	163	25.773225533957	5.405475458638
5	168	26.330584487031	5.065618766264
5	173	27.316297792618	5.68152076842
5	178	29.332457253436	6.551423636249
5	214	33.399860107465	0.419300507927
5	219	33.882153144427	0.713884583674
5	234	36.44092035999	2.034566571385
5	241	36.748520939757	0.392027364982
5	246	37.613366988007	0.886553111812
5	273	41.396595300669	2.019661390098
5	285	43.648118731261	4.044374316454
5	290	43.933623278764	3.860231153889
5	297	44.210278880713	1.986944742398
5	311	49.443746271231	6.500867851401
5	317	50.05407680205	2.925213056946
5	327	52.708333564815	3.616611815399
5	339	54.991941038443	3.105002786113
5	351	57.829156568271	4.47841010885
5	357	60.270537888939	3.231993416749
5	390	65.054618539683	3.155816532729
5	395	65.292351778817	2.043309599371
5	421	69.564033210621	0.934119895266
5	464	76.095049546445	4.799178028128
5	471	76.856522380303	3.70029841338
5	477	77.771976948097	1.439833717803
5	498	79.754321729354	1.335225962399
5	502	80.022207060533	1.439867145591
5	514	81.95042680868	0.873820017515
5	524	82.6961199512	1.196288540742
5	528	82.792154365213	0.604416333158
5	547	85.236407622615	0.81007930229
5	563	86.167854222127	0.642878122641
5	583	89.405084691541	2.394001186262
5	588	89.838575102541	2.524389744646
5	602	91.089346479121	0.381780116001
5	606	91.291856067186	0.252961017399
5	613	92.720505109809	0.634366564087
5	624	94.826565669222	0.049261827841
5	654	99.468244487204	3.205384251118

