version 2
run First-n3-6-20191125-12:36:55-6696
attr configname First-n3
attr datetime 20191125-12:36:55
attr experiment First-n3
attr inifile omnetpp.ini
attr iterationvars ""
attr iterationvarsf ""
attr measurement ""
attr network org.omnetpp.queueing.Pizza
attr processid 6696
attr repetition 6
attr replication ""
attr resultdir results_no_transient
attr runnumber 6
attr seedset 6
param **.PS.maxInventoriedPS 3
param **.U1.interArrivalTime exponential(2s)
param **.U2.interArrivalTime exponential(4s)
param **.PS.serviceTimeForInventoryU1 exponential(0.8s)
param **.PS.serviceTimeForInventoryU2 exponential(1.0s)
param **.PS.serviceTimeDirectU1 exponential(1.2s)
param **.PS.serviceTimeDirectU2 exponential(1.4s)
param **.PS.probabilityProducing 0.5
param **.CS.serviceTimeU1 exponential(0.8s)
param **.CS.serviceTimeU2 exponential(1.0s)

vector 0 Pizza.EntryQueueU1 queueLength:vector ETV
attr interpolationmode sample-hold
attr title "queue length, vector"
vector 1 Pizza.CS queueLength:vector ETV
attr interpolationmode sample-hold
attr title "queue length, vector"
vector 2 Pizza.EntryQueueU2 queueLength:vector ETV
attr interpolationmode sample-hold
attr title "queue length, vector"
vector 3 Pizza.sink lifeTime:vector ETV
attr interpolationmode none
attr title "lifetime of arrived jobs, vector"
attr unit s
vector 4 Pizza.sink lifeTimeU1:vector ETV
attr interpolationmode none
attr title "lifetime of arrived jobs, vector"
attr unit s
vector 5 Pizza.sink lifeTimeU2:vector ETV
attr interpolationmode none
attr title "lifetime of arrived jobs, vector"
attr unit s
0	0	0	0
0	16	5.4836616119	1
0	17	5.708252767279	0
0	24	6.995394588346	1
0	25	7.593883598229	0
0	56	14.56947919385	1
0	59	14.889452155863	2
0	60	15.186347880309	1
0	65	15.65379717604	0
0	76	17.55614748617	1
0	79	18.789414015471	2
0	80	19.117456578518	1
0	87	20.007567361519	0
0	93	20.3673754618	1
0	94	21.026218727451	0
0	100	22.89434090904	1
0	101	23.242366044807	0
0	123	27.166726821803	1
0	132	29.801660199271	2
0	133	29.909648847871	1
0	139	30.817895182741	2
0	141	31.461605013437	1
0	146	31.629729809515	0
0	169	33.712116523897	1
0	172	34.359122791893	0
0	179	35.621265276045	1
0	184	37.361533568437	0
0	216	40.970901635448	1
0	217	41.994084906225	0
0	223	42.111387175916	1
0	227	42.911370690972	0
0	241	43.590949870762	1
0	243	43.800723488599	0
0	250	44.425913694841	1
0	251	45.289237382156	0
0	264	46.277921978155	1
0	265	47.011687397808	0
0	275	47.626053938771	1
0	276	48.224956430924	0
0	303	49.907953359709	1
0	305	50.349052974972	2
0	307	50.744507450059	3
0	309	50.926765051899	4
0	310	51.238052838408	3
0	317	52.586839497317	2
0	323	53.7269962109	1
0	329	53.984847927146	2
0	330	54.960441526156	1
0	336	55.647049764549	2
0	337	56.882326232028	1
0	341	57.021582659751	2
0	343	57.108927476221	3
0	347	57.775976050069	4
0	350	58.876202672052	3
0	354	58.971634634695	4
0	357	59.32225799066	3
0	363	60.513419190529	2
0	369	60.644731235531	3
0	371	60.739907955963	4
0	372	60.800386055497	3
0	376	60.821126069935	4
0	379	61.490960343049	3
0	383	62.83079153482	4
0	385	62.854138970034	5
0	387	62.997033859453	6
0	389	63.644803882656	7
0	398	65.726892594829	6
0	403	65.952586497254	5
0	408	66.546073657198	4
0	415	68.127535484782	3
0	420	68.955583686856	2
0	426	69.480236488656	3
0	427	70.182172866279	2
0	431	70.356463720933	3
0	435	70.865333924755	4
0	437	71.737446073078	5
0	441	73.506421860246	6
0	442	73.933783590289	5
0	447	75.622668828421	4
0	453	77.304290723986	3
0	458	77.533966301029	2
0	463	79.229594259471	1
0	469	80.969517353148	0
0	475	81.506097067293	1
0	476	81.553048988331	0
0	480	81.559611469425	1
0	482	82.151210959879	2
0	484	82.581731512285	3
0	486	83.200763718282	4
0	494	86.530593738068	3
0	499	86.570735471411	2
0	503	86.675322317407	3
0	507	87.219282755116	4
0	508	88.569747280648	3
0	516	92.121027241241	4
0	518	92.23932397793	5
0	523	92.94372564762	6
0	525	92.959630753695	7
0	526	93.043223785463	6
0	531	93.294497296784	5
0	535	93.296801557813	6
0	538	93.838765141198	5
0	542	94.885853476411	6
0	547	96.512182135763	5
0	552	98.254188537613	4
0	556	98.61036438485	5
0	560	99.171356009235	6
1	0	0	0
2	0	0	0
2	69	16.369556957387	1
2	86	19.801194821152	2
2	106	23.996682769482	1
2	114	25.187349254606	2
2	115	25.364646732385	1
2	126	27.724354876455	2
2	128	28.842348639969	3
2	130	29.186578751585	4
2	153	32.93582179269	3
2	158	33.145441103857	2
2	163	33.547567905367	1
2	171	33.740122953889	2
2	182	36.953251131012	3
2	190	37.775755555562	2
2	195	38.578393625876	1
2	200	38.728369907016	0
2	214	40.806890672635	1
2	226	42.884355011707	2
2	234	43.143239958045	1
2	256	45.772258963777	0
2	273	47.456936589004	1
2	281	48.857931148459	0
2	345	57.358644495492	1
2	391	64.148825737558	2
2	397	65.584366929862	3
2	439	72.504487593536	4
2	491	84.790156042185	5
2	493	85.928168286138	6
2	512	90.774422576084	7
2	514	91.820245048683	8
2	546	96.089023109225	9
2	558	98.887119899007	10
2	562	99.993443316649	11
3	7	4.78327863324	0.316038117612
3	19	5.708252767279	0.434138505596
3	27	7.593883598229	2.110221986329
3	31	7.813237092884	0.817842504538
3	41	10.170597475463	0.512483477702
3	48	13.404025749095	1.618079662467
3	62	15.186347880309	1.268110490067
3	67	15.65379717604	1.08431798219
3	82	19.117456578518	4.228004422655
3	89	20.007567361519	2.451419875349
3	96	21.026218727451	2.23680471198
3	103	23.242366044807	2.874990583007
3	108	23.996682769482	1.102341860442
3	117	25.364646732385	8.995089774998
3	135	29.909648847871	10.108454026719
3	143	31.461605013437	4.294878191634
3	148	31.629729809515	1.828069610244
3	155	32.93582179269	2.117926609949
3	160	33.145441103857	7.958091849251
3	165	33.547567905367	5.823213028912
3	174	34.359122791893	5.516774151924
3	186	37.361533568437	3.64941704454
3	192	37.775755555562	2.154490279517
3	197	38.578393625876	9.391814874291
3	202	38.728369907016	4.988246953127
3	206	39.661845346681	2.708594215669
3	219	41.994084906225	2.07001696285
3	229	42.911370690972	1.940469055524
3	236	43.143239958045	1.031852782129
3	245	43.800723488599	2.993832815964
3	253	45.289237382156	1.698287511394
3	258	45.772258963777	1.346345268936
3	267	47.011687397808	4.127332386101
3	278	48.224956430924	1.947034452769
3	283	48.857931148459	1.231877209688
3	287	48.882748006658	1.425811417654
3	295	49.365820578034	0.104763334628
3	312	51.238052838408	1.49181014403
3	319	52.586839497317	2.678886137608
3	325	53.7269962109	3.377943235928
3	332	54.960441526156	4.215934076097
3	339	56.882326232028	5.955561180129
3	352	58.876202672052	4.891354744906
3	359	59.32225799066	3.675208226111
3	365	60.513419190529	3.491836530778
3	374	60.800386055497	3.691458579276
3	381	61.490960343049	3.71498429298
3	400	65.726892594829	6.755257960134
3	405	65.952586497254	5.307855261723
3	410	66.546073657198	5.806165701235
3	417	68.127535484782	7.306409414847
3	422	68.955583686856	6.124792152036
3	429	70.182172866279	7.328033896245
3	444	73.933783590289	10.936749730836
3	449	75.622668828421	11.977864945765
3	455	77.304290723986	7.82405423533
3	460	77.533966301029	7.177502580096
3	465	79.229594259471	8.364260334716
3	471	80.969517353148	9.23207128007
3	478	81.553048988331	8.046627128085
3	496	86.530593738068	5.024496670775
3	501	86.570735471411	5.011124001986
3	510	88.569747280648	6.418536320769
3	528	93.043223785463	10.461492273178
3	533	93.294497296784	10.093733578502
3	540	93.838765141198	7.163442823791
3	549	96.512182135763	9.292899380647
3	554	98.254188537613	6.133161296372
4	7	4.78327863324	0.316038117612
4	19	5.708252767279	0.434138505596
4	27	7.593883598229	2.110221986329
4	31	7.813237092884	0.817842504538
4	41	10.170597475463	0.512483477702
4	67	15.65379717604	1.08431798219
4	82	19.117456578518	4.228004422655
4	89	20.007567361519	2.451419875349
4	96	21.026218727451	2.23680471198
4	103	23.242366044807	2.874990583007
4	108	23.996682769482	1.102341860442
4	143	31.461605013437	4.294878191634
4	148	31.629729809515	1.828069610244
4	155	32.93582179269	2.117926609949
4	186	37.361533568437	3.64941704454
4	192	37.775755555562	2.154490279517
4	219	41.994084906225	2.07001696285
4	229	42.911370690972	1.940469055524
4	236	43.143239958045	1.031852782129
4	253	45.289237382156	1.698287511394
4	258	45.772258963777	1.346345268936
4	278	48.224956430924	1.947034452769
4	283	48.857931148459	1.231877209688
4	295	49.365820578034	0.104763334628
4	319	52.586839497317	2.678886137608
4	325	53.7269962109	3.377943235928
4	332	54.960441526156	4.215934076097
4	339	56.882326232028	5.955561180129
4	352	58.876202672052	4.891354744906
4	359	59.32225799066	3.675208226111
4	365	60.513419190529	3.491836530778
4	374	60.800386055497	3.691458579276
4	381	61.490960343049	3.71498429298
4	400	65.726892594829	6.755257960134
4	405	65.952586497254	5.307855261723
4	410	66.546073657198	5.806165701235
4	417	68.127535484782	7.306409414847
4	422	68.955583686856	6.124792152036
4	429	70.182172866279	7.328033896245
4	444	73.933783590289	10.936749730836
4	449	75.622668828421	11.977864945765
4	455	77.304290723986	7.82405423533
4	460	77.533966301029	7.177502580096
4	465	79.229594259471	8.364260334716
4	471	80.969517353148	9.23207128007
4	478	81.553048988331	8.046627128085
4	496	86.530593738068	5.024496670775
4	501	86.570735471411	5.011124001986
4	510	88.569747280648	6.418536320769
4	528	93.043223785463	10.461492273178
4	533	93.294497296784	10.093733578502
4	540	93.838765141198	7.163442823791
4	549	96.512182135763	9.292899380647
4	554	98.254188537613	6.133161296372
5	48	13.404025749095	1.618079662467
5	62	15.186347880309	1.268110490067
5	117	25.364646732385	8.995089774998
5	135	29.909648847871	10.108454026719
5	160	33.145441103857	7.958091849251
5	165	33.547567905367	5.823213028912
5	174	34.359122791893	5.516774151924
5	197	38.578393625876	9.391814874291
5	202	38.728369907016	4.988246953127
5	206	39.661845346681	2.708594215669
5	245	43.800723488599	2.993832815964
5	267	47.011687397808	4.127332386101
5	287	48.882748006658	1.425811417654
5	312	51.238052838408	1.49181014403

