version 2
run First-n2-18-20191125-12:37:12-10412
attr configname First-n2
attr datetime 20191125-12:37:12
attr experiment First-n2
attr inifile omnetpp.ini
attr iterationvars ""
attr iterationvarsf ""
attr measurement ""
attr network org.omnetpp.queueing.Pizza
attr processid 10412
attr repetition 18
attr replication ""
attr resultdir results_no_transient
attr runnumber 18
attr seedset 18
param **.PS.maxInventoriedPS 2
param **.U1.interArrivalTime exponential(2s)
param **.U2.interArrivalTime exponential(4s)
param **.PS.serviceTimeForInventoryU1 exponential(0.8s)
param **.PS.serviceTimeForInventoryU2 exponential(1.0s)
param **.PS.serviceTimeDirectU1 exponential(1.2s)
param **.PS.serviceTimeDirectU2 exponential(1.4s)
param **.PS.probabilityProducing 0.5
param **.CS.serviceTimeU1 exponential(0.8s)
param **.CS.serviceTimeU2 exponential(1.0s)

vector 0 Pizza.EntryQueueU1 queueLength:vector ETV
attr interpolationmode sample-hold
attr title "queue length, vector"
vector 1 Pizza.CS queueLength:vector ETV
attr interpolationmode sample-hold
attr title "queue length, vector"
vector 2 Pizza.EntryQueueU2 queueLength:vector ETV
attr interpolationmode sample-hold
attr title "queue length, vector"
vector 3 Pizza.sink lifeTime:vector ETV
attr interpolationmode none
attr title "lifetime of arrived jobs, vector"
attr unit s
vector 4 Pizza.sink lifeTimeU2:vector ETV
attr interpolationmode none
attr title "lifetime of arrived jobs, vector"
attr unit s
vector 5 Pizza.sink lifeTimeU1:vector ETV
attr interpolationmode none
attr title "lifetime of arrived jobs, vector"
attr unit s
0	0	0	0
0	13	2.558026770941	1
0	15	2.581173658892	2
0	20	4.003604927843	1
0	24	4.775011115572	2
0	26	4.832439629344	3
0	31	6.92441673768	2
0	37	8.795808639043	1
0	44	9.488702830233	0
0	61	12.560094858392	1
0	64	14.74027603251	0
0	71	15.924627577483	1
0	73	16.346304006661	2
0	75	16.821073051732	3
0	78	17.569571998835	2
0	85	18.369502568848	3
0	86	18.760597659505	2
0	92	19.088340470974	3
0	93	20.16829206018	2
0	97	20.669649910845	3
0	101	21.56598672754	4
0	102	22.135406141258	3
0	109	23.970445629105	2
0	114	25.000212542526	1
0	119	26.827449067852	0
0	123	27.366402707268	1
0	126	27.756416457592	0
0	132	28.636922280792	1
0	136	30.256537750154	2
0	142	30.498100489707	3
0	144	31.334069142308	4
0	146	32.602935681327	5
0	149	33.344741648245	4
0	157	35.526588851171	3
0	164	35.905519681713	4
0	165	36.64648759175	3
0	171	36.712067869973	4
0	172	37.825224816199	3
0	178	38.145636533435	2
0	184	38.161938024748	3
0	186	39.277654717095	4
0	187	39.34654993345	3
0	192	39.810040565455	2
0	196	40.568906379195	3
0	199	42.63024203301	2
0	205	43.432979248616	3
0	207	44.247840833356	2
0	212	44.743748416169	1
0	217	46.680221627063	0
0	239	49.204811788006	1
0	242	50.686304781284	2
0	243	51.860956360424	1
0	250	52.654960770504	0
0	256	53.037184762961	1
0	257	53.268523488492	0
0	266	53.989794924998	1
0	268	54.322887695964	2
0	273	55.461605642878	1
0	279	55.96401615589	0
0	292	59.260570319696	1
0	295	60.346010417485	0
0	301	60.969135248355	1
0	303	61.398674756888	0
0	310	62.261763485267	1
0	311	62.3437101348	0
0	317	62.598786989574	1
0	318	63.153824726617	0
0	348	69.342598353539	1
0	354	70.694638371943	0
0	360	71.136606685039	1
0	361	71.503422293285	0
0	372	71.727612988431	1
0	375	73.069016310009	0
0	388	73.319843335776	1
0	389	73.640916637972	0
0	397	73.931514563392	1
0	400	75.049390253106	0
0	408	76.085494279042	1
0	409	76.2212500791	0
0	423	78.528309605415	1
0	429	80.982698048561	0
0	444	84.903438989274	1
0	446	85.511094950449	2
0	448	86.340950906226	3
0	451	87.082294410354	2
0	459	88.640883976962	3
0	461	88.939549751004	2
0	467	89.455421391777	1
0	472	90.060358484196	0
0	476	91.343597163203	1
0	478	91.513015423596	2
0	483	95.037580357354	1
0	488	97.983807204654	0
1	0	0	0
2	0	0	0
2	17	3.132674834365	1
2	28	5.359395578063	2
2	43	9.398715797703	3
2	50	11.513046990454	2
2	55	11.947517415836	1
2	77	17.309897929885	2
2	108	23.901081502905	3
2	138	30.424527629253	4
2	140	30.490268024914	5
2	148	33.144559562207	6
2	156	34.128734204073	7
2	222	47.49266474196	6
2	228	48.189970293876	5
2	233	48.350159986028	4
2	249	51.989628740606	5
2	262	53.750250811952	4
2	284	57.18295355035	3
2	288	57.445899099844	4
2	290	57.487257362143	5
2	322	63.996325678215	6
2	327	65.192418210751	7
2	329	65.402455132599	6
2	334	67.42056253037	5
2	339	68.59157646916	4
2	344	69.300748937166	3
2	350	69.615915138336	4
2	366	71.634120969754	3
2	380	73.104402382671	2
2	386	73.124391109487	3
2	395	73.919761331631	4
2	414	76.350081518246	3
2	419	77.302227711243	2
2	427	80.618291758088	3
2	435	81.587917317807	2
2	440	83.713959193122	1
2	482	92.769894843731	2
3	7	1.310347029447	0.994127584796
3	22	4.003604927843	1.901821000403
3	33	6.92441673768	4.366389966739
3	39	8.795808639043	6.214634980151
3	46	9.488702830233	4.713691714661
3	52	11.513046990454	6.68060736111
3	57	11.947517415836	8.814842581471
3	66	14.74027603251	9.380880454447
3	80	17.569571998835	5.009477140443
3	88	18.760597659505	2.835970082022
3	95	20.16829206018	3.821988053519
3	104	22.135406141258	5.314333089526
3	111	23.970445629105	5.600943060257
3	116	25.000212542526	5.911872071552
3	121	26.827449067852	6.157799157007
3	128	27.756416457592	6.190429730052
3	151	33.344741648245	5.978338940977
3	159	35.526588851171	6.889666570379
3	167	36.64648759175	6.389949841596
3	174	37.825224816199	7.327124326492
3	180	38.145636533435	6.811567391127
3	189	39.34654993345	6.743614252123
3	194	39.810040565455	3.904520883742
3	201	42.63024203301	5.918174163037
3	209	44.247840833356	6.085902808608
3	214	44.743748416169	5.466093699074
3	219	46.680221627063	6.111315247868
3	224	47.49266474196	4.059685493344
3	230	48.189970293876	38.791254496173
3	235	48.350159986028	31.040262056143
3	245	51.860956360424	27.959874857519
3	252	52.654960770504	3.450148982498
3	259	53.268523488492	2.582218707208
3	264	53.750250811952	0.713066048991
3	275	55.461605642878	25.037078013625
3	281	55.96401615589	1.974221230892
3	286	57.18295355035	2.860065854386
3	297	60.346010417485	29.855742392571
3	305	61.398674756888	2.138104437192
3	313	62.3437101348	1.374574886445
3	320	63.153824726617	0.89206124135
3	331	65.402455132599	2.803668143025
3	336	67.42056253037	34.276002968163
3	341	68.59157646916	34.462842265087
3	346	69.300748937166	17.31112019656
3	356	70.694638371943	13.248739272099
3	363	71.503422293285	2.160823939746
3	368	71.634120969754	0.497514284715
3	377	73.069016310009	15.581758947866
3	382	73.104402382671	1.37678939424
3	391	73.640916637972	9.644590959757
3	402	75.049390253106	1.72954691733
3	411	76.2212500791	2.289735515708
3	416	76.350081518246	0.264587239204
3	421	77.302227711243	12.109809500492
3	431	80.982698048561	11.366782910225
3	437	81.587917317807	3.059607712392
3	442	83.713959193122	10.589568083635
3	453	87.082294410354	13.162533078723
3	463	88.939549751004	4.03611076173
3	469	89.455421391777	3.944326441328
3	474	90.060358484196	3.71940757797
3	485	95.037580357354	6.396696380392
3	490	97.983807204654	6.640210041451
4	7	1.310347029447	0.994127584796
4	57	11.947517415836	8.814842581471
4	66	14.74027603251	9.380880454447
4	230	48.189970293876	38.791254496173
4	235	48.350159986028	31.040262056143
4	245	51.860956360424	27.959874857519
4	275	55.461605642878	25.037078013625
4	297	60.346010417485	29.855742392571
4	336	67.42056253037	34.276002968163
4	341	68.59157646916	34.462842265087
4	346	69.300748937166	17.31112019656
4	356	70.694638371943	13.248739272099
4	377	73.069016310009	15.581758947866
4	391	73.640916637972	9.644590959757
4	421	77.302227711243	12.109809500492
4	431	80.982698048561	11.366782910225
4	442	83.713959193122	10.589568083635
4	453	87.082294410354	13.162533078723
5	22	4.003604927843	1.901821000403
5	33	6.92441673768	4.366389966739
5	39	8.795808639043	6.214634980151
5	46	9.488702830233	4.713691714661
5	52	11.513046990454	6.68060736111
5	80	17.569571998835	5.009477140443
5	88	18.760597659505	2.835970082022
5	95	20.16829206018	3.821988053519
5	104	22.135406141258	5.314333089526
5	111	23.970445629105	5.600943060257
5	116	25.000212542526	5.911872071552
5	121	26.827449067852	6.157799157007
5	128	27.756416457592	6.190429730052
5	151	33.344741648245	5.978338940977
5	159	35.526588851171	6.889666570379
5	167	36.64648759175	6.389949841596
5	174	37.825224816199	7.327124326492
5	180	38.145636533435	6.811567391127
5	189	39.34654993345	6.743614252123
5	194	39.810040565455	3.904520883742
5	201	42.63024203301	5.918174163037
5	209	44.247840833356	6.085902808608
5	214	44.743748416169	5.466093699074
5	219	46.680221627063	6.111315247868
5	224	47.49266474196	4.059685493344
5	252	52.654960770504	3.450148982498
5	259	53.268523488492	2.582218707208
5	264	53.750250811952	0.713066048991
5	281	55.96401615589	1.974221230892
5	286	57.18295355035	2.860065854386
5	305	61.398674756888	2.138104437192
5	313	62.3437101348	1.374574886445
5	320	63.153824726617	0.89206124135
5	331	65.402455132599	2.803668143025
5	363	71.503422293285	2.160823939746
5	368	71.634120969754	0.497514284715
5	382	73.104402382671	1.37678939424
5	402	75.049390253106	1.72954691733
5	411	76.2212500791	2.289735515708
5	416	76.350081518246	0.264587239204
5	437	81.587917317807	3.059607712392
5	463	88.939549751004	4.03611076173
5	469	89.455421391777	3.944326441328
5	474	90.060358484196	3.71940757797
5	485	95.037580357354	6.396696380392
5	490	97.983807204654	6.640210041451

