version 2
run Second-n5-2-20191125-12:37:26-5216
attr configname Second-n5
attr datetime 20191125-12:37:26
attr experiment Second-n5
attr inifile omnetpp.ini
attr iterationvars ""
attr iterationvarsf ""
attr measurement ""
attr network org.omnetpp.queueing.Pizza
attr processid 5216
attr repetition 2
attr replication ""
attr resultdir results_no_transient
attr runnumber 2
attr seedset 2
param **.PS.maxInventoriedPS 5
param **.U1.interArrivalTime exponential(3s)
param **.U2.interArrivalTime exponential(5s)
param **.PS.serviceTimeForInventoryU1 exponential(1.0s)
param **.PS.serviceTimeForInventoryU2 exponential(1.2s)
param **.PS.serviceTimeDirectU1 exponential(1.4s)
param **.PS.serviceTimeDirectU2 exponential(1.4s)
param **.PS.probabilityProducing 0.7
param **.CS.serviceTimeU1 exponential(1.1s)
param **.CS.serviceTimeU2 exponential(1.4s)

vector 0 Pizza.EntryQueueU1 queueLength:vector ETV
attr interpolationmode sample-hold
attr title "queue length, vector"
vector 1 Pizza.CS queueLength:vector ETV
attr interpolationmode sample-hold
attr title "queue length, vector"
vector 2 Pizza.EntryQueueU2 queueLength:vector ETV
attr interpolationmode sample-hold
attr title "queue length, vector"
vector 3 Pizza.sink lifeTime:vector ETV
attr interpolationmode none
attr title "lifetime of arrived jobs, vector"
attr unit s
vector 4 Pizza.sink lifeTimeU2:vector ETV
attr interpolationmode none
attr title "lifetime of arrived jobs, vector"
attr unit s
vector 5 Pizza.sink lifeTimeU1:vector ETV
attr interpolationmode none
attr title "lifetime of arrived jobs, vector"
attr unit s
0	0	0	0
0	7	1.718075968882	1
0	13	5.540971110126	0
0	38	10.572109086914	1
0	41	11.469341677053	2
0	44	12.338075893448	1
0	49	12.429371851505	0
0	68	13.922410977845	1
0	70	14.431988715574	0
0	76	14.691007718191	1
0	81	15.379211545418	0
0	89	15.982554813814	1
0	90	16.105043778541	0
0	96	18.093582354327	1
0	100	19.36397459778	0
0	131	32.176241356729	1
0	136	34.533398521733	2
0	137	38.159652461902	1
0	142	38.733125483878	0
0	150	39.726260460083	1
0	151	40.243326467202	0
0	183	49.980239074091	1
0	184	50.940964730405	0
0	198	53.551411960423	1
0	202	54.955996506531	0
0	219	57.555331850525	1
0	220	57.650714540293	0
0	227	59.026065608725	1
0	232	60.322441222364	2
0	233	60.355563097972	1
0	238	60.815820718069	0
0	262	63.312038181389	1
0	266	65.984397187484	0
0	272	66.409180068614	1
0	273	67.640023296842	0
0	280	68.975850447305	1
0	283	69.875137217823	0
0	305	77.574234094513	1
0	308	79.353229424609	0
0	337	86.67818780021	1
0	338	86.83799120045	0
0	400	98.063865106307	1
0	402	98.799275100552	2
0	403	99.527717907554	1
1	0	0	0
2	0	0	0
2	5	1.154680605615	1
2	11	5.143470225116	2
2	18	6.603205211783	1
2	24	7.075728570225	2
2	25	7.216616805748	1
2	32	10.183927683578	0
2	43	12.084123848813	1
2	54	12.81703880589	0
2	78	14.699524474949	1
2	87	15.618076966186	2
2	105	20.126454897295	1
2	114	23.495427570238	2
2	115	27.127335929625	1
2	120	30.029025717073	0
2	217	56.260699574019	1
2	229	59.75860793271	2
2	243	61.229197819076	1
2	250	62.41159393628	2
2	251	62.687056350816	1
2	256	63.025307065677	0
2	307	78.243683507184	1
2	313	80.207869147095	0
3	15	5.540971110126	4.517631688744
3	20	6.603205211783	4.885129242901
3	27	7.216616805748	6.061936200133
3	34	10.183927683578	5.040457458462
3	46	12.338075893448	5.262347323223
3	51	12.429371851505	1.857262764591
3	56	12.81703880589	1.347697128837
3	60	13.084483814139	1.000359965326
3	72	14.431988715574	0.917586688609
3	83	15.379211545418	1.456800567573
3	92	16.105043778541	1.41403606035
3	102	19.36397459778	3.381419783966
3	107	20.126454897295	2.032872542968
3	117	27.127335929625	12.427811454676
3	122	30.029025717073	14.410948750887
3	126	31.360789295317	7.865361725079
3	139	38.159652461902	6.382224916415
3	144	38.733125483878	6.556884127149
3	153	40.243326467202	5.709927945469
3	158	44.122026855874	4.395766395791
3	166	46.506113298829	0.203936496959
3	176	47.762492832517	0.617436963406
3	186	50.940964730405	1.020083215551
3	191	51.828241989852	1.848002915761
3	204	54.955996506531	2.872216719967
3	209	55.301257726676	1.749845766253
3	222	57.650714540293	1.519430164743
3	235	60.355563097972	2.800231247447
3	240	60.815820718069	1.789755109344
3	245	61.229197819076	0.906756596712
3	253	62.687056350816	6.426356776797
3	258	63.025307065677	3.266699132967
3	268	65.984397187484	3.572803251204
3	275	67.640023296842	4.327985115453
3	285	69.875137217823	3.465957149209
3	290	70.142546499518	1.166696052213
3	297	72.184595126459	0.467512951789
3	310	79.353229424609	2.69766820074
3	315	80.207869147095	2.633635052582
3	319	80.265036323963	2.021352816779
3	328	84.138791539028	3.1737521513
3	340	86.83799120045	1.322613770528
3	345	87.523446327033	0.845258526823
3	352	87.524661229869	0.000135950996
3	361	88.595538485146	0.110152540153
3	368	89.32909764506	0.266172759327
3	376	90.608282071257	0.892558697905
3	385	93.55907779391	0.070143521937
3	393	96.557455728209	1.13398144534
3	405	99.527717907554	1.992155279063
4	15	5.540971110126	4.517631688744
4	27	7.216616805748	6.061936200133
4	34	10.183927683578	5.040457458462
4	46	12.338075893448	5.262347323223
4	60	13.084483814139	1.000359965326
4	117	27.127335929625	12.427811454676
4	122	30.029025717073	14.410948750887
4	126	31.360789295317	7.865361725079
4	139	38.159652461902	6.382224916415
4	176	47.762492832517	0.617436963406
4	186	50.940964730405	1.020083215551
4	222	57.650714540293	1.519430164743
4	253	62.687056350816	6.426356776797
4	258	63.025307065677	3.266699132967
4	268	65.984397187484	3.572803251204
4	319	80.265036323963	2.021352816779
4	328	84.138791539028	3.1737521513
4	376	90.608282071257	0.892558697905
4	385	93.55907779391	0.070143521937
5	20	6.603205211783	4.885129242901
5	51	12.429371851505	1.857262764591
5	56	12.81703880589	1.347697128837
5	72	14.431988715574	0.917586688609
5	83	15.379211545418	1.456800567573
5	92	16.105043778541	1.41403606035
5	102	19.36397459778	3.381419783966
5	107	20.126454897295	2.032872542968
5	144	38.733125483878	6.556884127149
5	153	40.243326467202	5.709927945469
5	158	44.122026855874	4.395766395791
5	166	46.506113298829	0.203936496959
5	191	51.828241989852	1.848002915761
5	204	54.955996506531	2.872216719967
5	209	55.301257726676	1.749845766253
5	235	60.355563097972	2.800231247447
5	240	60.815820718069	1.789755109344
5	245	61.229197819076	0.906756596712
5	275	67.640023296842	4.327985115453
5	285	69.875137217823	3.465957149209
5	290	70.142546499518	1.166696052213
5	297	72.184595126459	0.467512951789
5	310	79.353229424609	2.69766820074
5	315	80.207869147095	2.633635052582
5	340	86.83799120045	1.322613770528
5	345	87.523446327033	0.845258526823
5	352	87.524661229869	0.000135950996
5	361	88.595538485146	0.110152540153
5	368	89.32909764506	0.266172759327
5	393	96.557455728209	1.13398144534
5	405	99.527717907554	1.992155279063

