version 2
run Second-n5-1-20191125-12:37:25-7848
attr configname Second-n5
attr datetime 20191125-12:37:25
attr experiment Second-n5
attr inifile omnetpp.ini
attr iterationvars ""
attr iterationvarsf ""
attr measurement ""
attr network org.omnetpp.queueing.Pizza
attr processid 7848
attr repetition 1
attr replication ""
attr resultdir results_no_transient
attr runnumber 1
attr seedset 1
param **.PS.maxInventoriedPS 5
param **.U1.interArrivalTime exponential(3s)
param **.U2.interArrivalTime exponential(5s)
param **.PS.serviceTimeForInventoryU1 exponential(1.0s)
param **.PS.serviceTimeForInventoryU2 exponential(1.2s)
param **.PS.serviceTimeDirectU1 exponential(1.4s)
param **.PS.serviceTimeDirectU2 exponential(1.4s)
param **.PS.probabilityProducing 0.7
param **.CS.serviceTimeU1 exponential(1.1s)
param **.CS.serviceTimeU2 exponential(1.4s)

vector 0 Pizza.EntryQueueU1 queueLength:vector ETV
attr interpolationmode sample-hold
attr title "queue length, vector"
vector 1 Pizza.CS queueLength:vector ETV
attr interpolationmode sample-hold
attr title "queue length, vector"
vector 2 Pizza.EntryQueueU2 queueLength:vector ETV
attr interpolationmode sample-hold
attr title "queue length, vector"
vector 3 Pizza.sink lifeTime:vector ETV
attr interpolationmode none
attr title "lifetime of arrived jobs, vector"
attr unit s
vector 4 Pizza.sink lifeTimeU1:vector ETV
attr interpolationmode none
attr title "lifetime of arrived jobs, vector"
attr unit s
vector 5 Pizza.sink lifeTimeU2:vector ETV
attr interpolationmode none
attr title "lifetime of arrived jobs, vector"
attr unit s
0	0	0	0
0	7	5.441193194016	1
0	9	5.789900475303	0
0	45	35.056649878996	1
0	46	35.681504417268	0
0	240	97.072124386765	1
0	243	97.665549934923	0
0	256	98.74845155845	1
0	258	98.947086765237	2
0	259	99.039340536703	1
1	0	0	0
2	0	0	0
2	71	42.07285434897	1
2	72	42.074913273888	0
2	78	42.590481109748	1
2	79	42.84020744281	0
2	242	97.598487398359	1
2	248	97.678461530013	0
3	11	5.789900475303	4.171082995767
3	15	6.016626572663	0.575433378647
3	30	27.129440133722	0.840904077696
3	37	30.219056800319	0.855432495412
3	48	35.681504417268	3.078876472412
3	55	39.476754213283	4.420104334287
3	62	41.520794466425	1.943646340451
3	74	42.074913273888	0.446456567874
3	81	42.84020744281	0.76735309384
3	86	43.906699474387	1.316218364639
3	93	46.017619219645	0.168620324793
3	101	48.184759857781	0.025840609199
3	109	50.569517976623	1.188749309014
3	118	54.191300742655	0.649916742976
3	127	56.29209115414	0.486631112119
3	136	57.774395459103	0.096060175995
3	143	58.435711690175	0.339491689175
3	150	59.049447562684	0.076774731214
3	158	60.970559929863	0.222148609702
3	165	65.439772018142	0.423400483061
3	173	66.396581723404	0.838625538242
3	180	69.755674782705	0.588215596342
3	188	78.201992938868	0.051046621757
3	197	80.034054537442	1.729375305682
3	205	81.527283498963	0.83183986604
3	212	82.132435928964	0.55765727265
3	222	89.186377464613	0.930950150408
3	233	92.982150615441	0.600725281927
3	245	97.665549934923	1.537261470319
3	250	97.678461530013	0.606337143248
3	261	99.039340536703	1.440853138344
4	11	5.789900475303	4.171082995767
4	15	6.016626572663	0.575433378647
4	30	27.129440133722	0.840904077696
4	48	35.681504417268	3.078876472412
4	55	39.476754213283	4.420104334287
4	62	41.520794466425	1.943646340451
4	93	46.017619219645	0.168620324793
4	109	50.569517976623	1.188749309014
4	118	54.191300742655	0.649916742976
4	136	57.774395459103	0.096060175995
4	143	58.435711690175	0.339491689175
4	173	66.396581723404	0.838625538242
4	180	69.755674782705	0.588215596342
4	188	78.201992938868	0.051046621757
4	197	80.034054537442	1.729375305682
4	212	82.132435928964	0.55765727265
4	222	89.186377464613	0.930950150408
4	245	97.665549934923	1.537261470319
4	250	97.678461530013	0.606337143248
5	37	30.219056800319	0.855432495412
5	74	42.074913273888	0.446456567874
5	81	42.84020744281	0.76735309384
5	86	43.906699474387	1.316218364639
5	101	48.184759857781	0.025840609199
5	127	56.29209115414	0.486631112119
5	150	59.049447562684	0.076774731214
5	158	60.970559929863	0.222148609702
5	165	65.439772018142	0.423400483061
5	205	81.527283498963	0.83183986604
5	233	92.982150615441	0.600725281927
5	261	99.039340536703	1.440853138344

