version 2
run Second-n4-9-20191125-12:37:23-9100
attr configname Second-n4
attr datetime 20191125-12:37:23
attr experiment Second-n4
attr inifile omnetpp.ini
attr iterationvars ""
attr iterationvarsf ""
attr measurement ""
attr network org.omnetpp.queueing.Pizza
attr processid 9100
attr repetition 9
attr replication ""
attr resultdir results_no_transient
attr runnumber 9
attr seedset 9
param **.PS.maxInventoriedPS 4
param **.U1.interArrivalTime exponential(3s)
param **.U2.interArrivalTime exponential(5s)
param **.PS.serviceTimeForInventoryU1 exponential(1.0s)
param **.PS.serviceTimeForInventoryU2 exponential(1.2s)
param **.PS.serviceTimeDirectU1 exponential(1.4s)
param **.PS.serviceTimeDirectU2 exponential(1.4s)
param **.PS.probabilityProducing 0.7
param **.CS.serviceTimeU1 exponential(1.1s)
param **.CS.serviceTimeU2 exponential(1.4s)

vector 0 Pizza.EntryQueueU1 queueLength:vector ETV
attr interpolationmode sample-hold
attr title "queue length, vector"
vector 1 Pizza.CS queueLength:vector ETV
attr interpolationmode sample-hold
attr title "queue length, vector"
vector 2 Pizza.EntryQueueU2 queueLength:vector ETV
attr interpolationmode sample-hold
attr title "queue length, vector"
vector 3 Pizza.sink lifeTime:vector ETV
attr interpolationmode none
attr title "lifetime of arrived jobs, vector"
attr unit s
vector 4 Pizza.sink lifeTimeU1:vector ETV
attr interpolationmode none
attr title "lifetime of arrived jobs, vector"
attr unit s
vector 5 Pizza.sink lifeTimeU2:vector ETV
attr interpolationmode none
attr title "lifetime of arrived jobs, vector"
attr unit s
0	0	0	0
0	20	2.569630456354	1
0	21	2.588265067867	0
0	32	3.11699001608	1
0	33	3.158751378979	0
0	89	25.721771339875	1
0	90	26.508585636568	0
0	118	32.178233057485	1
0	124	38.308332496996	2
0	125	38.573380904643	1
0	130	38.949097332491	0
0	139	41.799456687737	1
0	141	44.924310426876	2
0	143	45.05570114757	3
0	146	45.521353357278	2
0	151	45.564621281617	1
0	157	45.86593482859	0
0	208	55.282437051884	1
0	209	56.305802590822	0
0	231	61.147371237993	1
0	233	61.911438798297	2
0	235	64.352473022851	3
0	238	64.599421877043	2
0	244	64.800651116003	3
0	245	65.344269222058	2
0	250	65.471604575365	1
0	255	65.516084124388	0
0	264	67.320366978586	1
0	270	69.343941240367	2
0	272	69.605663052462	3
0	273	69.66462832123	2
0	280	70.918655079039	3
0	282	71.225491402573	2
0	290	72.02705254368	1
0	295	72.895857533205	0
0	309	77.053255605475	1
0	310	77.648515111206	0
0	314	78.410896698414	1
0	317	79.464980001261	0
0	356	87.625708113	1
0	358	88.437578048558	0
1	0	0	0
2	0	0	0
2	18	2.26640931194	1
2	26	3.103424685412	0
2	45	6.40992701819	1
2	50	8.914943241824	0
2	74	21.820302726328	1
2	76	22.937876871941	0
2	82	22.995541036341	1
2	83	23.225201718337	0
2	120	34.50659334906	1
2	135	38.993377012606	0
2	237	64.402533019685	1
2	260	65.63571976292	0
2	323	80.877482462951	1
2	325	82.314590082418	2
2	328	82.849631177902	1
2	333	82.956046934081	0
2	349	86.512179632006	1
2	350	87.512224204449	0
3	8	1.15729912632	1.126014091859
3	23	2.588265067867	0.46626978174
3	28	3.103424685412	0.533794229058
3	35	3.158751378979	0.892342067039
3	39	4.094201218555	0.977211202475
3	52	8.914943241824	3.235969163992
3	56	10.343576917504	3.933649899314
3	66	13.524971182256	0.090902245096
3	78	22.937876871941	1.467914046822
3	85	23.225201718337	1.404898992009
3	92	26.508585636568	3.513044600227
3	98	28.070549231884	2.348777892009
3	105	29.853444126215	1.320183653057
3	112	31.181076873448	0.715041702554
3	127	38.573380904643	6.926353272811
3	132	38.949097332491	6.770864275006
3	137	38.993377012606	0.68504451561
3	148	45.521353357278	11.014760008218
3	153	45.564621281617	3.76516459388
3	159	45.86593482859	0.941624401714
3	164	46.03022789814	0.97452675057
3	174	48.445813814352	0.34133199933
3	183	49.933713812413	0.517220063948
3	192	51.624502333935	0.265236610816
3	201	54.778001365112	1.021581813723
3	211	56.305802590822	1.227555388778
3	216	56.924223743768	1.641786691884
3	223	58.904208172298	1.137385794268
3	240	64.599421877043	3.886877367789
3	247	65.344269222058	4.196897984065
3	252	65.471604575365	3.560165777068
3	257	65.516084124388	1.163611101537
3	262	65.63571976292	0.835068646917
3	275	69.66462832123	5.262095301545
3	284	71.225491402573	3.905124423987
3	292	72.02705254368	2.683111303313
3	297	72.895857533205	3.290194480743
3	301	74.689787351868	3.771132272829
3	312	77.648515111206	1.725247950054
3	319	79.464980001261	2.411724395786
3	330	82.849631177902	4.438734479488
3	335	82.956046934081	2.07856447113
3	340	85.060975981388	2.74638589897
3	352	87.512224204449	1.450766982287
3	360	88.437578048558	1.925398416552
3	364	88.820531428509	1.194823315509
3	372	98.259841732126	0.334307465683
3	379	98.561387487832	0.080706790162
4	8	1.15729912632	1.126014091859
4	23	2.588265067867	0.46626978174
4	28	3.103424685412	0.533794229058
4	39	4.094201218555	0.977211202475
4	66	13.524971182256	0.090902245096
4	98	28.070549231884	2.348777892009
4	112	31.181076873448	0.715041702554
4	132	38.949097332491	6.770864275006
4	137	38.993377012606	0.68504451561
4	153	45.564621281617	3.76516459388
4	159	45.86593482859	0.941624401714
4	164	46.03022789814	0.97452675057
4	174	48.445813814352	0.34133199933
4	183	49.933713812413	0.517220063948
4	192	51.624502333935	0.265236610816
4	216	56.924223743768	1.641786691884
4	240	64.599421877043	3.886877367789
4	247	65.344269222058	4.196897984065
4	252	65.471604575365	3.560165777068
4	257	65.516084124388	1.163611101537
4	262	65.63571976292	0.835068646917
4	284	71.225491402573	3.905124423987
4	292	72.02705254368	2.683111303313
4	297	72.895857533205	3.290194480743
4	301	74.689787351868	3.771132272829
4	312	77.648515111206	1.725247950054
4	319	79.464980001261	2.411724395786
4	330	82.849631177902	4.438734479488
4	352	87.512224204449	1.450766982287
4	364	88.820531428509	1.194823315509
4	372	98.259841732126	0.334307465683
4	379	98.561387487832	0.080706790162
5	35	3.158751378979	0.892342067039
5	52	8.914943241824	3.235969163992
5	56	10.343576917504	3.933649899314
5	78	22.937876871941	1.467914046822
5	85	23.225201718337	1.404898992009
5	92	26.508585636568	3.513044600227
5	105	29.853444126215	1.320183653057
5	127	38.573380904643	6.926353272811
5	148	45.521353357278	11.014760008218
5	201	54.778001365112	1.021581813723
5	211	56.305802590822	1.227555388778
5	223	58.904208172298	1.137385794268
5	275	69.66462832123	5.262095301545
5	335	82.956046934081	2.07856447113
5	340	85.060975981388	2.74638589897
5	360	88.437578048558	1.925398416552

