version 2
run Second-n5-4-20191125-12:37:28-5292
attr configname Second-n5
attr datetime 20191125-12:37:28
attr experiment Second-n5
attr inifile omnetpp.ini
attr iterationvars ""
attr iterationvarsf ""
attr measurement ""
attr network org.omnetpp.queueing.Pizza
attr processid 5292
attr repetition 4
attr replication ""
attr resultdir results_no_transient
attr runnumber 4
attr seedset 4
param **.PS.maxInventoriedPS 5
param **.U1.interArrivalTime exponential(3s)
param **.U2.interArrivalTime exponential(5s)
param **.PS.serviceTimeForInventoryU1 exponential(1.0s)
param **.PS.serviceTimeForInventoryU2 exponential(1.2s)
param **.PS.serviceTimeDirectU1 exponential(1.4s)
param **.PS.serviceTimeDirectU2 exponential(1.4s)
param **.PS.probabilityProducing 0.7
param **.CS.serviceTimeU1 exponential(1.1s)
param **.CS.serviceTimeU2 exponential(1.4s)

vector 0 Pizza.EntryQueueU1 queueLength:vector ETV
attr interpolationmode sample-hold
attr title "queue length, vector"
vector 1 Pizza.CS queueLength:vector ETV
attr interpolationmode sample-hold
attr title "queue length, vector"
vector 2 Pizza.EntryQueueU2 queueLength:vector ETV
attr interpolationmode sample-hold
attr title "queue length, vector"
vector 3 Pizza.sink lifeTime:vector ETV
attr interpolationmode none
attr title "lifetime of arrived jobs, vector"
attr unit s
vector 4 Pizza.sink lifeTimeU1:vector ETV
attr interpolationmode none
attr title "lifetime of arrived jobs, vector"
attr unit s
vector 5 Pizza.sink lifeTimeU2:vector ETV
attr interpolationmode none
attr title "lifetime of arrived jobs, vector"
attr unit s
0	0	0	0
0	12	12.613584913432	1
0	20	15.344184413521	2
0	22	15.359701926249	3
0	24	16.020464134918	4
0	31	18.568860200749	5
0	32	18.794641994562	4
0	39	19.837557312099	3
0	45	21.297803308745	4
0	46	21.670527916775	3
0	51	21.715180471041	2
0	57	23.016686538375	3
0	58	23.928464892313	2
0	63	24.014161449555	1
0	68	24.226919444605	0
0	74	24.790349889057	1
0	77	26.365345939058	2
0	78	26.524731465649	1
0	83	30.740621632666	0
0	97	32.493089281894	1
0	98	32.607714016913	0
0	112	34.352984738313	1
0	113	34.422886984207	0
0	121	35.653068271747	1
0	122	35.699424902749	0
0	130	36.527775559661	1
0	137	38.183862159496	0
0	153	41.524291792133	1
0	155	43.093636822135	0
0	201	51.503114807469	1
0	203	52.036448690037	2
0	204	52.158249994086	1
0	210	52.451432002801	2
0	217	53.807453308901	3
0	223	55.461385817416	2
0	229	56.013578806897	3
0	235	58.376694342866	2
0	241	58.55696239008	3
0	242	59.663733510272	2
0	250	60.698504047106	3
0	252	61.506662123374	4
0	254	61.98972877131	5
0	256	62.709917263591	4
0	263	63.184261247301	3
0	270	63.95994276956	4
0	273	65.571017625985	3
0	279	65.682124632222	4
0	284	65.907211107684	5
0	286	65.916003766774	6
0	288	66.16838705073	5
0	293	67.620939043275	4
0	300	68.84706402765	5
0	301	69.134894882236	4
0	307	69.201648074786	3
0	313	69.607898092323	2
0	319	70.856358651941	3
0	320	71.34802786273	2
0	326	74.514701408045	1
0	333	75.080253822586	2
0	336	77.55322447876	3
0	338	77.584668710299	4
0	339	77.657912452613	3
0	344	77.699226379249	2
0	349	77.796198513762	1
0	354	77.813908724166	0
0	385	81.777586526798	1
0	388	85.409261587013	0
0	410	90.019230710316	1
0	412	90.618115499135	2
0	414	91.067731337378	3
0	418	92.648552600321	4
0	419	93.433640127376	3
0	425	93.851861987881	2
0	432	95.825758445996	1
0	437	97.530274619259	0
1	0	0	0
2	0	0	0
2	7	11.5440951532	1
2	8	11.881954837231	0
2	27	16.239788987758	1
2	89	31.186665037291	0
2	132	36.731754733064	1
2	135	37.794296311995	2
2	143	38.187923722835	3
2	146	41.014527020384	4
2	147	41.41660934074	3
2	160	43.536092129591	2
2	167	46.161797429773	1
2	172	47.711847325098	0
2	213	53.495136727619	1
2	215	53.604415743773	2
2	219	53.853173107895	3
2	221	54.434820492012	4
2	231	56.268538317529	5
2	234	56.958733623857	6
2	248	60.303325397623	7
2	282	65.800304925896	8
2	360	79.241468776104	7
2	366	80.313180584674	6
2	373	81.648840911718	5
2	378	81.657722541026	4
2	387	85.265394480504	5
2	394	85.988978216571	4
2	400	86.964039953048	5
2	401	87.004256458463	4
2	406	89.070002741369	3
2	442	97.987218982304	2
2	450	99.969574857482	3
3	10	11.881954837231	1.645497879678
3	34	18.794641994562	7.250546841362
3	41	19.837557312099	7.223972398667
3	48	21.670527916775	6.326343503254
3	53	21.715180471041	6.355478544792
3	60	23.928464892313	7.908000757395
3	65	24.014161449555	5.445301248806
3	70	24.226919444605	2.92911613586
3	80	26.524731465649	3.508044927274
3	85	30.740621632666	5.950271743609
3	91	31.186665037291	4.821319098233
3	100	32.607714016913	16.367925029155
3	105	33.683451388342	1.190362106448
3	115	34.422886984207	0.518017811012
3	124	35.699424902749	1.346440164436
3	139	38.183862159496	2.530793887749
3	149	41.41660934074	4.888833781079
3	157	43.093636822135	6.361882089071
3	162	43.536092129591	2.011800337458
3	169	46.161797429773	8.367501117778
3	174	47.711847325098	9.523923602263
3	178	47.828549986608	6.814022966224
3	185	48.685491272367	0.110043152201
3	194	51.17518176893	1.295335198598
3	206	52.158249994086	0.854360398646
3	225	55.461385817416	3.958271009947
3	237	58.376694342866	6.340245652829
3	244	59.663733510272	7.212301507471
3	258	62.709917263591	8.90246395469
3	265	63.184261247301	7.170682440404
3	275	65.571017625985	7.014055235905
3	290	66.16838705073	5.469883003624
3	295	67.620939043275	6.114276919901
3	303	69.134894882236	7.145166110926
3	309	69.201648074786	5.241705305226
3	315	69.607898092323	3.925773460101
3	322	71.34802786273	5.440816755046
3	328	74.514701408045	8.598697641271
3	341	77.657912452613	8.810848424963
3	346	77.699226379249	6.842867727308
3	351	77.796198513762	2.715944691176
3	356	77.813908724166	0.260684245406
3	362	79.241468776104	1.656800065805
3	368	80.313180584674	26.818043857055
3	375	81.648840911718	28.044425167945
3	380	81.657722541026	27.804549433131
3	390	85.409261587013	30.974441095001
3	396	85.988978216571	4.211391689773
3	403	87.004256458463	30.735718140934
3	408	89.070002741369	32.111269117512
3	421	93.433640127376	33.130314729753
3	427	93.851861987881	3.832631277565
3	434	95.825758445996	5.207642946861
3	439	97.530274619259	6.462543281881
3	444	97.987218982304	5.338666381983
4	10	11.881954837231	1.645497879678
4	41	19.837557312099	7.223972398667
4	48	21.670527916775	6.326343503254
4	53	21.715180471041	6.355478544792
4	60	23.928464892313	7.908000757395
4	65	24.014161449555	5.445301248806
4	70	24.226919444605	2.92911613586
4	80	26.524731465649	3.508044927274
4	85	30.740621632666	5.950271743609
4	91	31.186665037291	4.821319098233
4	105	33.683451388342	1.190362106448
4	115	34.422886984207	0.518017811012
4	124	35.699424902749	1.346440164436
4	139	38.183862159496	2.530793887749
4	149	41.41660934074	4.888833781079
4	162	43.536092129591	2.011800337458
4	185	48.685491272367	0.110043152201
4	206	52.158249994086	0.854360398646
4	225	55.461385817416	3.958271009947
4	237	58.376694342866	6.340245652829
4	244	59.663733510272	7.212301507471
4	258	62.709917263591	8.90246395469
4	265	63.184261247301	7.170682440404
4	275	65.571017625985	7.014055235905
4	290	66.16838705073	5.469883003624
4	295	67.620939043275	6.114276919901
4	303	69.134894882236	7.145166110926
4	309	69.201648074786	5.241705305226
4	315	69.607898092323	3.925773460101
4	322	71.34802786273	5.440816755046
4	328	74.514701408045	8.598697641271
4	341	77.657912452613	8.810848424963
4	346	77.699226379249	6.842867727308
4	351	77.796198513762	2.715944691176
4	356	77.813908724166	0.260684245406
4	362	79.241468776104	1.656800065805
4	396	85.988978216571	4.211391689773
4	427	93.851861987881	3.832631277565
4	434	95.825758445996	5.207642946861
4	439	97.530274619259	6.462543281881
4	444	97.987218982304	5.338666381983
5	34	18.794641994562	7.250546841362
5	100	32.607714016913	16.367925029155
5	157	43.093636822135	6.361882089071
5	169	46.161797429773	8.367501117778
5	174	47.711847325098	9.523923602263
5	178	47.828549986608	6.814022966224
5	194	51.17518176893	1.295335198598
5	368	80.313180584674	26.818043857055
5	375	81.648840911718	28.044425167945
5	380	81.657722541026	27.804549433131
5	390	85.409261587013	30.974441095001
5	403	87.004256458463	30.735718140934
5	408	89.070002741369	32.111269117512
5	421	93.433640127376	33.130314729753

