version 2
run Second-n2-1-20191125-12:36:55-4344
attr configname Second-n2
attr datetime 20191125-12:36:55
attr experiment Second-n2
attr inifile omnetpp.ini
attr iterationvars ""
attr iterationvarsf ""
attr measurement ""
attr network org.omnetpp.queueing.Pizza
attr processid 4344
attr repetition 1
attr replication ""
attr resultdir results_no_transient
attr runnumber 1
attr seedset 1
param **.PS.maxInventoriedPS 2
param **.U1.interArrivalTime exponential(3s)
param **.U2.interArrivalTime exponential(5s)
param **.PS.serviceTimeForInventoryU1 exponential(1.0s)
param **.PS.serviceTimeForInventoryU2 exponential(1.2s)
param **.PS.serviceTimeDirectU1 exponential(1.4s)
param **.PS.serviceTimeDirectU2 exponential(1.4s)
param **.PS.probabilityProducing 0.7
param **.CS.serviceTimeU1 exponential(1.1s)
param **.CS.serviceTimeU2 exponential(1.4s)

vector 0 Pizza.EntryQueueU1 queueLength:vector ETV
attr interpolationmode sample-hold
attr title "queue length, vector"
vector 1 Pizza.CS queueLength:vector ETV
attr interpolationmode sample-hold
attr title "queue length, vector"
vector 2 Pizza.EntryQueueU2 queueLength:vector ETV
attr interpolationmode sample-hold
attr title "queue length, vector"
vector 3 Pizza.sink lifeTime:vector ETV
attr interpolationmode none
attr title "lifetime of arrived jobs, vector"
attr unit s
vector 4 Pizza.sink lifeTimeU1:vector ETV
attr interpolationmode none
attr title "lifetime of arrived jobs, vector"
attr unit s
vector 5 Pizza.sink lifeTimeU2:vector ETV
attr interpolationmode none
attr title "lifetime of arrived jobs, vector"
attr unit s
0	0	0	0
0	7	5.441193194016	1
0	9	5.789900475303	0
0	26	27.804893653441	1
0	27	28.348642089584	0
0	38	30.035362725475	1
0	39	30.663809115488	0
0	58	33.365603681126	1
0	59	33.40716524688	0
0	87	43.855023046995	1
0	89	44.769503381071	0
0	108	53.357399814353	1
0	110	53.412772548351	2
0	112	53.517078948537	3
0	116	57.677694280607	4
0	117	59.972496401872	3
0	122	60.33452940624	2
0	127	60.610837147325	1
0	133	60.919737850644	2
0	135	61.460155939332	1
0	142	61.600135924514	0
0	166	68.097119700216	1
0	168	69.004406449632	2
0	169	70.149782887993	1
0	175	70.988408426235	0
0	187	72.613909450833	1
0	189	72.75312751017	2
0	190	74.514675122123	1
0	199	76.023226934724	2
0	200	76.244050427805	1
0	205	77.100118518879	0
0	214	78.672919569089	1
0	218	81.465088608377	0
0	229	83.614203249841	1
0	231	84.019308981083	2
0	233	84.932488849725	1
0	238	86.865264663682	0
0	247	90.463911795974	1
0	248	91.370713227896	0
1	0	0	0
2	0	0	0
2	34	29.363624304907	1
2	36	29.502472442991	2
2	45	31.335934647597	1
2	50	31.645017151235	0
2	56	33.324763705246	1
2	65	34.703739099678	0
2	103	52.471346513703	1
2	104	52.931538249939	0
2	141	61.469065158697	1
2	146	62.165539688518	2
2	148	62.263324463797	3
2	152	62.699961627411	4
2	153	62.903325318316	3
2	159	64.564613840419	2
2	180	71.735706432295	1
2	196	74.764661917995	2
2	210	77.265098479518	1
2	223	81.935175445255	0
2	244	89.230067312612	1
2	253	92.12902292582	0
3	11	5.789900475303	4.171082995767
3	15	6.016626572663	0.575433378647
3	29	28.348642089584	2.060106033558
3	41	30.663809115488	2.858915462047
3	47	31.335934647597	1.300571922122
3	52	31.645017151235	2.281392846328
3	61	33.40716524688	3.904692803889
3	67	34.703739099678	1.338135418552
3	71	37.631853107612	4.307089402366
3	78	38.440305576516	0.204737817854
3	91	44.769503381071	1.225056390543
3	96	46.064485631082	2.209462584087
3	106	52.931538249939	2.355639108263
3	119	59.972496401872	7.501149888169
3	124	60.33452940624	6.977129591887
3	129	60.610837147325	7.198064598974
3	137	61.460155939332	7.943076990795
3	144	61.600135924514	3.922441643907
3	155	62.903325318316	1.983587467672
3	161	64.564613840419	3.095548681722
3	171	70.149782887993	7.984243199475
3	177	70.988408426235	2.891288726019
3	182	71.735706432295	2.731299982663
3	192	74.514675122123	12.251350658326
3	202	76.244050427805	3.630140976972
3	207	77.100118518879	4.346991008709
3	212	77.265098479518	1.241871544794
3	220	81.465088608377	18.765126980966
3	225	81.935175445255	3.262255876166
3	235	84.932488849725	10.16782693173
3	240	86.865264663682	3.251061413841
3	250	91.370713227896	7.351404246813
3	255	92.12902292582	1.665111129846
3	260	92.299655815497	3.069588502885
3	268	96.951891112813	0.734271662387
4	11	5.789900475303	4.171082995767
4	15	6.016626572663	0.575433378647
4	29	28.348642089584	2.060106033558
4	41	30.663809115488	2.858915462047
4	47	31.335934647597	1.300571922122
4	67	34.703739099678	1.338135418552
4	78	38.440305576516	0.204737817854
4	91	44.769503381071	1.225056390543
4	96	46.064485631082	2.209462584087
4	124	60.33452940624	6.977129591887
4	129	60.610837147325	7.198064598974
4	137	61.460155939332	7.943076990795
4	144	61.600135924514	3.922441643907
4	155	62.903325318316	1.983587467672
4	177	70.988408426235	2.891288726019
4	182	71.735706432295	2.731299982663
4	202	76.244050427805	3.630140976972
4	207	77.100118518879	4.346991008709
4	212	77.265098479518	1.241871544794
4	225	81.935175445255	3.262255876166
4	240	86.865264663682	3.251061413841
4	250	91.370713227896	7.351404246813
4	255	92.12902292582	1.665111129846
5	52	31.645017151235	2.281392846328
5	61	33.40716524688	3.904692803889
5	71	37.631853107612	4.307089402366
5	106	52.931538249939	2.355639108263
5	119	59.972496401872	7.501149888169
5	161	64.564613840419	3.095548681722
5	171	70.149782887993	7.984243199475
5	192	74.514675122123	12.251350658326
5	220	81.465088608377	18.765126980966
5	235	84.932488849725	10.16782693173
5	260	92.299655815497	3.069588502885
5	268	96.951891112813	0.734271662387

