version 2
run Second-n3-14-20191125-12:37:21-10940
attr configname Second-n3
attr datetime 20191125-12:37:21
attr experiment Second-n3
attr inifile omnetpp.ini
attr iterationvars ""
attr iterationvarsf ""
attr measurement ""
attr network org.omnetpp.queueing.Pizza
attr processid 10940
attr repetition 14
attr replication ""
attr resultdir results_no_transient
attr runnumber 14
attr seedset 14
param **.PS.maxInventoriedPS 3
param **.U1.interArrivalTime exponential(3s)
param **.U2.interArrivalTime exponential(5s)
param **.PS.serviceTimeForInventoryU1 exponential(1.0s)
param **.PS.serviceTimeForInventoryU2 exponential(1.2s)
param **.PS.serviceTimeDirectU1 exponential(1.4s)
param **.PS.serviceTimeDirectU2 exponential(1.4s)
param **.PS.probabilityProducing 0.7
param **.CS.serviceTimeU1 exponential(1.1s)
param **.CS.serviceTimeU2 exponential(1.4s)

vector 0 Pizza.EntryQueueU1 queueLength:vector ETV
attr interpolationmode sample-hold
attr title "queue length, vector"
vector 1 Pizza.CS queueLength:vector ETV
attr interpolationmode sample-hold
attr title "queue length, vector"
vector 2 Pizza.EntryQueueU2 queueLength:vector ETV
attr interpolationmode sample-hold
attr title "queue length, vector"
vector 3 Pizza.sink lifeTime:vector ETV
attr interpolationmode none
attr title "lifetime of arrived jobs, vector"
attr unit s
vector 4 Pizza.sink lifeTimeU1:vector ETV
attr interpolationmode none
attr title "lifetime of arrived jobs, vector"
attr unit s
vector 5 Pizza.sink lifeTimeU2:vector ETV
attr interpolationmode none
attr title "lifetime of arrived jobs, vector"
attr unit s
0	0	0	0
0	153	52.193504261431	1
0	154	52.866830127777	0
0	161	53.043163719621	1
0	165	54.870253662017	2
0	166	55.491110662108	1
0	171	55.670104914811	0
0	177	56.083140256511	1
0	179	56.467824393292	2
0	181	56.68447887162	1
0	187	57.301020926081	0
0	245	65.718986998544	1
0	247	66.010538554927	2
0	250	69.807870464088	1
0	258	70.681390802567	0
0	264	71.382766774559	1
0	265	73.313049147624	0
0	275	74.639719399609	1
0	278	76.389063448937	0
0	306	86.383539434441	1
0	308	86.404802171294	2
0	309	87.664809311694	1
0	319	89.77997910032	0
0	326	90.858244623803	1
0	328	91.176736681855	2
0	331	92.164236269652	1
0	336	92.706648918137	0
0	342	94.331669934215	1
0	344	94.553417402093	2
0	345	95.298707872851	1
0	351	95.753191640211	0
0	369	98.490789441725	1
0	370	98.75249734062	0
0	376	98.919229212723	1
0	379	99.340356848264	0
1	0	0	0
2	0	0	0
2	60	28.014844136692	1
2	61	29.766336388955	0
2	103	37.875143720595	1
2	106	38.887647813403	0
2	212	61.645232728045	1
2	213	62.001075749172	0
2	219	62.078849165231	1
2	221	62.380736425795	2
2	222	63.183522685809	1
2	227	63.234459790751	0
2	233	63.677943321945	1
2	234	63.758357260076	0
2	238	64.065913248184	1
2	241	65.450338715209	0
2	257	70.621481138087	1
2	271	74.1531500869	0
2	304	86.057027478452	1
2	316	87.91404420978	2
2	318	89.605873044316	3
2	330	91.40459208861	4
2	356	96.417618937448	3
2	362	96.737936495789	2
2	378	99.305659863459	3
3	7	3.679748173176	1.515457943932
3	17	7.036345118289	0.421457034123
3	26	9.174571011095	1.806619580428
3	35	10.92119323965	1.230087660488
3	42	13.404720374903	0.656314328244
3	50	21.44859874813	1.584309977434
3	63	29.766336388955	3.535524011979
3	67	29.908558657219	1.893714520527
3	74	33.334089109682	1.498035015931
3	81	34.537267135461	0.427570996611
3	88	35.129402841886	0.095731512064
3	96	35.664930644833	0.070816443623
3	108	38.887647813403	3.21202287749
3	112	39.182371290531	1.307227569936
3	122	42.542143992095	0.417646842355
3	129	44.156600704275	0.681469096991
3	137	48.33723581634	1.442167179573
3	145	51.038507093975	0.156325360137
3	156	52.866830127777	1.375488917971
3	168	55.491110662108	3.297606400677
3	173	55.670104914811	2.62694119519
3	183	56.68447887162	1.814225209603
3	189	57.301020926081	1.21788066957
3	194	57.685056421252	1.21723202796
3	204	60.30741938862	1.126484621607
3	215	62.001075749172	0.691773804375
3	224	63.183522685809	1.538289957764
3	229	63.234459790751	1.15561062552
3	236	63.758357260076	1.377620834281
3	243	65.450338715209	1.772395393264
3	252	69.807870464088	5.741957215904
3	260	70.681390802567	4.962403804023
3	267	73.313049147624	7.302510592697
3	273	74.1531500869	2.770383312341
3	280	76.389063448937	5.76758231085
3	284	77.34184929896	2.702129899351
3	295	84.767350529173	0.478493587251
3	311	87.664809311694	1.818642996525
3	321	89.77997910032	3.396439665879
3	333	92.164236269652	5.759434098358
3	338	92.706648918137	1.848404294334
3	347	95.298707872851	4.121971190996
3	353	95.753191640211	1.421521705996
3	358	96.417618937448	1.864201535355
3	364	96.737936495789	10.680909017337
3	372	98.75249734062	10.83845313084
3	381	99.340356848264	0.849567406539
4	7	3.679748173176	1.515457943932
4	17	7.036345118289	0.421457034123
4	26	9.174571011095	1.806619580428
4	35	10.92119323965	1.230087660488
4	50	21.44859874813	1.584309977434
4	81	34.537267135461	0.427570996611
4	88	35.129402841886	0.095731512064
4	96	35.664930644833	0.070816443623
4	108	38.887647813403	3.21202287749
4	122	42.542143992095	0.417646842355
4	129	44.156600704275	0.681469096991
4	137	48.33723581634	1.442167179573
4	145	51.038507093975	0.156325360137
4	156	52.866830127777	1.375488917971
4	168	55.491110662108	3.297606400677
4	173	55.670104914811	2.62694119519
4	183	56.68447887162	1.814225209603
4	189	57.301020926081	1.21788066957
4	194	57.685056421252	1.21723202796
4	204	60.30741938862	1.126484621607
4	215	62.001075749172	0.691773804375
4	260	70.681390802567	4.962403804023
4	267	73.313049147624	7.302510592697
4	273	74.1531500869	2.770383312341
4	284	77.34184929896	2.702129899351
4	311	87.664809311694	1.818642996525
4	321	89.77997910032	3.396439665879
4	333	92.164236269652	5.759434098358
4	338	92.706648918137	1.848404294334
4	347	95.298707872851	4.121971190996
4	353	95.753191640211	1.421521705996
4	358	96.417618937448	1.864201535355
4	381	99.340356848264	0.849567406539
5	42	13.404720374903	0.656314328244
5	63	29.766336388955	3.535524011979
5	67	29.908558657219	1.893714520527
5	74	33.334089109682	1.498035015931
5	112	39.182371290531	1.307227569936
5	224	63.183522685809	1.538289957764
5	229	63.234459790751	1.15561062552
5	236	63.758357260076	1.377620834281
5	243	65.450338715209	1.772395393264
5	252	69.807870464088	5.741957215904
5	280	76.389063448937	5.76758231085
5	295	84.767350529173	0.478493587251
5	364	96.737936495789	10.680909017337
5	372	98.75249734062	10.83845313084

