version 2
run Second-n3-1-20191125-12:37:01-3544
attr configname Second-n3
attr datetime 20191125-12:37:01
attr experiment Second-n3
attr inifile omnetpp.ini
attr iterationvars ""
attr iterationvarsf ""
attr measurement ""
attr network org.omnetpp.queueing.Pizza
attr processid 3544
attr repetition 1
attr replication ""
attr resultdir results_no_transient
attr runnumber 1
attr seedset 1
param **.PS.maxInventoriedPS 3
param **.U1.interArrivalTime exponential(3s)
param **.U2.interArrivalTime exponential(5s)
param **.PS.serviceTimeForInventoryU1 exponential(1.0s)
param **.PS.serviceTimeForInventoryU2 exponential(1.2s)
param **.PS.serviceTimeDirectU1 exponential(1.4s)
param **.PS.serviceTimeDirectU2 exponential(1.4s)
param **.PS.probabilityProducing 0.7
param **.CS.serviceTimeU1 exponential(1.1s)
param **.CS.serviceTimeU2 exponential(1.4s)

vector 0 Pizza.EntryQueueU1 queueLength:vector ETV
attr interpolationmode sample-hold
attr title "queue length, vector"
vector 1 Pizza.CS queueLength:vector ETV
attr interpolationmode sample-hold
attr title "queue length, vector"
vector 2 Pizza.EntryQueueU2 queueLength:vector ETV
attr interpolationmode sample-hold
attr title "queue length, vector"
vector 3 Pizza.sink lifeTime:vector ETV
attr interpolationmode none
attr title "lifetime of arrived jobs, vector"
attr unit s
vector 4 Pizza.sink lifeTimeU1:vector ETV
attr interpolationmode none
attr title "lifetime of arrived jobs, vector"
attr unit s
vector 5 Pizza.sink lifeTimeU2:vector ETV
attr interpolationmode none
attr title "lifetime of arrived jobs, vector"
attr unit s
0	0	0	0
0	7	5.441193194016	1
0	9	5.789900475303	0
0	36	29.756175187849	1
0	38	31.376448337215	2
0	39	32.797777377217	1
0	44	32.964177586656	0
0	52	33.20951797024	1
0	54	34.621693610548	0
0	114	53.342400378952	1
0	120	56.584443948989	2
0	121	58.185135713955	1
0	126	58.268949821319	0
0	142	61.256109563874	1
0	146	61.518091862042	2
0	147	61.942281997079	1
0	152	62.281773686254	0
0	178	68.979828046204	1
0	181	71.176719783062	0
0	190	72.536264262441	1
0	193	73.474516070178	0
0	203	74.839206745509	1
0	207	76.656905256994	0
0	229	81.279169726169	1
0	231	81.684275457411	2
0	234	83.276016922393	1
0	239	83.756564566326	0
0	270	94.523403567581	1
0	274	96.096842844124	2
0	276	96.908440654449	3
0	277	97.088321936704	2
0	284	98.026142161117	1
0	289	99.082250767754	0
1	0	0	0
2	0	0	0
2	50	33.185915567162	1
2	59	35.035336095204	0
2	116	54.312712602098	1
2	134	60.900656499495	0
2	140	61.207631407812	1
2	144	61.305416183091	2
2	158	63.247580121588	1
2	163	63.46972873129	0
2	180	70.796360053447	1
2	186	71.233088518433	0
2	199	74.193169171904	1
2	201	74.344441397137	2
2	212	77.178467126479	1
2	217	77.431514086265	0
2	221	78.760595787745	1
2	225	80.095336551238	0
2	272	95.479820493958	1
2	283	97.868413380317	2
2	297	99.661515416738	3
3	11	5.789900475303	4.171082995767
3	15	6.016626572663	0.575433378647
3	29	26.933139866988	0.644603810962
3	41	32.797777377217	3.43415307231
3	46	32.964177586656	3.208002398807
3	56	34.621693610548	3.245245273333
3	61	35.035336095204	1.825818124964
3	65	36.057514882393	2.871599315231
3	76	38.93213865545	1.946589051684
3	83	42.01704819238	0.765294168922
3	91	43.977812740596	0.242095529188
3	99	47.017681864226	0.2146076861
3	106	49.257641476729	0.744723216238
3	123	58.185135713955	4.947041735189
3	128	58.268949821319	4.926549442367
3	136	60.900656499495	4.316212550506
3	149	61.942281997079	7.629569394981
3	154	62.281773686254	1.02566412238
3	160	63.247580121588	1.729488259546
3	165	63.46972873129	2.262097323478
3	169	63.893129214351	2.58771303126
3	183	71.176719783062	4.192293994349
3	188	71.233088518433	2.253260472229
3	195	73.474516070178	2.678156016731
3	209	76.656905256994	4.120640994553
3	214	77.178467126479	2.33926038097
3	219	77.431514086265	3.238344914361
3	227	80.095336551238	5.750895154101
3	236	83.276016922393	4.515421134648
3	241	83.756564566326	2.477394840157
3	245	84.102637737785	2.418362280374
3	256	89.326759892964	1.197881620662
3	263	91.974727468244	0.092696429834
3	279	97.088321936704	4.596887720878
3	286	98.026142161117	3.502738593536
3	291	99.082250767754	2.98540792363
4	11	5.789900475303	4.171082995767
4	15	6.016626572663	0.575433378647
4	29	26.933139866988	0.644603810962
4	46	32.964177586656	3.208002398807
4	56	34.621693610548	3.245245273333
4	61	35.035336095204	1.825818124964
4	76	38.93213865545	1.946589051684
4	91	43.977812740596	0.242095529188
4	123	58.185135713955	4.947041735189
4	128	58.268949821319	4.926549442367
4	136	60.900656499495	4.316212550506
4	154	62.281773686254	1.02566412238
4	160	63.247580121588	1.729488259546
4	188	71.233088518433	2.253260472229
4	209	76.656905256994	4.120640994553
4	214	77.178467126479	2.33926038097
4	241	83.756564566326	2.477394840157
4	245	84.102637737785	2.418362280374
4	256	89.326759892964	1.197881620662
4	286	98.026142161117	3.502738593536
4	291	99.082250767754	2.98540792363
5	41	32.797777377217	3.43415307231
5	65	36.057514882393	2.871599315231
5	83	42.01704819238	0.765294168922
5	99	47.017681864226	0.2146076861
5	106	49.257641476729	0.744723216238
5	149	61.942281997079	7.629569394981
5	165	63.46972873129	2.262097323478
5	169	63.893129214351	2.58771303126
5	183	71.176719783062	4.192293994349
5	195	73.474516070178	2.678156016731
5	219	77.431514086265	3.238344914361
5	227	80.095336551238	5.750895154101
5	236	83.276016922393	4.515421134648
5	263	91.974727468244	0.092696429834
5	279	97.088321936704	4.596887720878

