version 2
run Second-n3-13-20191125-12:37:18-6744
attr configname Second-n3
attr datetime 20191125-12:37:18
attr experiment Second-n3
attr inifile omnetpp.ini
attr iterationvars ""
attr iterationvarsf ""
attr measurement ""
attr network org.omnetpp.queueing.Pizza
attr processid 6744
attr repetition 13
attr replication ""
attr resultdir results_no_transient
attr runnumber 13
attr seedset 13
param **.PS.maxInventoriedPS 3
param **.U1.interArrivalTime exponential(3s)
param **.U2.interArrivalTime exponential(5s)
param **.PS.serviceTimeForInventoryU1 exponential(1.0s)
param **.PS.serviceTimeForInventoryU2 exponential(1.2s)
param **.PS.serviceTimeDirectU1 exponential(1.4s)
param **.PS.serviceTimeDirectU2 exponential(1.4s)
param **.PS.probabilityProducing 0.7
param **.CS.serviceTimeU1 exponential(1.1s)
param **.CS.serviceTimeU2 exponential(1.4s)

vector 0 Pizza.EntryQueueU1 queueLength:vector ETV
attr interpolationmode sample-hold
attr title "queue length, vector"
vector 1 Pizza.CS queueLength:vector ETV
attr interpolationmode sample-hold
attr title "queue length, vector"
vector 2 Pizza.EntryQueueU2 queueLength:vector ETV
attr interpolationmode sample-hold
attr title "queue length, vector"
vector 3 Pizza.sink lifeTime:vector ETV
attr interpolationmode none
attr title "lifetime of arrived jobs, vector"
attr unit s
vector 4 Pizza.sink lifeTimeU1:vector ETV
attr interpolationmode none
attr title "lifetime of arrived jobs, vector"
attr unit s
vector 5 Pizza.sink lifeTimeU2:vector ETV
attr interpolationmode none
attr title "lifetime of arrived jobs, vector"
attr unit s
0	0	0	0
0	7	5.324835378102	1
0	14	11.215102530395	0
0	22	12.029129270795	1
0	24	12.623322247706	0
0	85	27.504002440506	1
0	94	31.130127449923	0
0	100	31.622090967814	1
0	101	31.913157289133	0
0	109	33.423746972988	1
0	111	34.274732290081	2
0	113	34.629483218715	3
0	116	35.338484298821	2
0	122	35.695259412213	1
0	129	38.366292289673	2
0	130	38.4538254908	1
0	137	39.207322304357	2
0	139	39.486719829327	3
0	140	39.52954607635	2
0	145	39.605512431233	1
0	150	39.682879773835	0
0	159	40.917602939373	1
0	162	41.802866484155	0
0	171	43.864304816244	1
0	182	51.675151759758	2
0	183	51.711396057193	1
0	188	52.475361270697	0
0	192	52.641991669643	1
0	196	53.436027940841	0
0	202	54.297225157905	1
0	206	55.165509358073	0
0	276	66.884057975252	1
0	279	67.986272753556	0
0	285	68.31088494853	1
0	286	68.331527787962	0
0	318	80.476628815662	1
0	320	81.60123132173	2
0	322	81.999291870291	3
0	323	82.502521147083	2
0	329	82.704223276856	3
0	330	82.863050247323	2
0	335	83.185971661866	1
0	340	83.251662503749	0
0	346	84.036587494724	1
0	348	84.805193585455	2
0	352	85.393661989455	3
0	356	87.925819407975	2
0	364	91.839437925259	1
0	369	91.863824284818	0
0	399	99.669144822037	1
1	0	0	0
2	0	0	0
2	5	4.674072849705	1
2	30	13.368348247509	2
2	31	14.763192860941	1
2	37	16.357735810388	0
2	43	16.557783745195	1
2	44	17.416482521209	0
2	51	18.693126807299	1
2	52	18.750815558563	0
2	65	19.687252254253	1
2	67	21.856203864546	0
2	71	22.862944375131	1
2	73	23.199440216182	2
2	76	23.704303243379	1
2	81	26.614550227522	0
2	89	29.051778002231	1
2	91	30.147732448004	2
2	93	30.541419756263	3
2	115	35.063279196635	4
2	155	40.54479167008	3
2	167	43.738233686149	2
2	173	44.122534873347	3
2	175	45.100904283804	4
2	179	50.799716736458	5
2	205	55.006621681434	6
2	211	55.289723961903	5
2	216	55.49219759469	4
2	221	56.170127302237	3
2	228	59.30859959823	2
2	233	60.508954357568	1
2	240	61.897176003492	2
2	243	63.023117175138	3
2	244	63.456182897338	2
2	250	63.989401969447	3
2	252	64.500957634789	2
2	257	64.717044548185	1
2	264	66.06895536004	2
2	265	66.432080028774	1
2	270	66.561430692046	0
2	274	66.647720977529	1
2	292	69.20203648218	0
2	344	83.623107727205	1
2	355	86.748352347603	2
2	363	89.089938357632	3
2	375	92.556718405651	2
2	383	95.276451405675	1
2	389	95.998459677211	2
2	390	96.426401543267	1
2	397	97.332643601242	2
3	16	11.215102530395	6.703887629331
3	26	12.623322247706	7.298486869604
3	33	14.763192860941	2.734063590146
3	39	16.357735810388	11.683662960683
3	46	17.416482521209	4.0481342737
3	54	18.750815558563	2.193031813368
3	58	19.094895517793	0.401768710494
3	69	21.856203864546	2.748090474977
3	78	23.704303243379	4.017050989126
3	83	26.614550227522	3.751605852391
3	96	31.130127449923	7.930687233741
3	103	31.913157289133	4.409154848627
3	118	35.338484298821	3.716393331007
3	124	35.695259412213	2.271512439225
3	132	38.4538254908	4.179093200719
3	142	39.52954607635	4.900062857635
3	147	39.605512431233	1.23922014156
3	152	39.682879773835	0.475557469478
3	157	40.54479167008	1.058071840753
3	164	41.802866484155	12.751088481924
3	169	43.738233686149	2.820630746776
3	185	51.711396057193	21.563663609189
3	190	52.475361270697	8.611056454453
3	198	53.436027940841	1.760876181083
3	208	55.165509358073	2.52351768843
3	213	55.289723961903	0.992498803998
3	218	55.49219759469	24.950777838427
3	223	56.170127302237	21.106848105602
3	230	59.30859959823	15.186064724883
3	235	60.508954357568	15.408050073764
3	246	63.456182897338	12.65646616088
3	254	64.500957634789	9.494335953355
3	259	64.717044548185	2.819868544693
3	267	66.432080028774	3.408962853636
3	272	66.561430692046	2.572028722599
3	281	67.986272753556	1.917317393516
3	288	68.331527787962	1.44746981271
3	294	69.20203648218	0.89115153365
3	298	70.882519247096	4.234798269567
3	306	72.85200708734	0.279264256297
3	325	82.502521147083	2.708846441043
3	332	82.863050247323	2.386421431661
3	337	83.185971661866	1.584740340136
3	342	83.251662503749	1.252370633458
3	358	87.925819407975	5.221596131119
3	366	91.839437925259	7.802850430535
3	371	91.863824284818	7.058630699363
3	377	92.556718405651	7.163056416196
3	385	95.276451405675	11.65334367847
3	392	96.426401543267	9.678049195664
4	16	11.215102530395	6.703887629331
4	26	12.623322247706	7.298486869604
4	33	14.763192860941	2.734063590146
4	69	21.856203864546	2.748090474977
4	103	31.913157289133	4.409154848627
4	118	35.338484298821	3.716393331007
4	124	35.695259412213	2.271512439225
4	132	38.4538254908	4.179093200719
4	142	39.52954607635	4.900062857635
4	147	39.605512431233	1.23922014156
4	152	39.682879773835	0.475557469478
4	157	40.54479167008	1.058071840753
4	169	43.738233686149	2.820630746776
4	190	52.475361270697	8.611056454453
4	198	53.436027940841	1.760876181083
4	208	55.165509358073	2.52351768843
4	213	55.289723961903	0.992498803998
4	288	68.331527787962	1.44746981271
4	294	69.20203648218	0.89115153365
4	306	72.85200708734	0.279264256297
4	325	82.502521147083	2.708846441043
4	332	82.863050247323	2.386421431661
4	337	83.185971661866	1.584740340136
4	342	83.251662503749	1.252370633458
4	358	87.925819407975	5.221596131119
4	366	91.839437925259	7.802850430535
4	371	91.863824284818	7.058630699363
4	377	92.556718405651	7.163056416196
5	39	16.357735810388	11.683662960683
5	46	17.416482521209	4.0481342737
5	54	18.750815558563	2.193031813368
5	58	19.094895517793	0.401768710494
5	78	23.704303243379	4.017050989126
5	83	26.614550227522	3.751605852391
5	96	31.130127449923	7.930687233741
5	164	41.802866484155	12.751088481924
5	185	51.711396057193	21.563663609189
5	218	55.49219759469	24.950777838427
5	223	56.170127302237	21.106848105602
5	230	59.30859959823	15.186064724883
5	235	60.508954357568	15.408050073764
5	246	63.456182897338	12.65646616088
5	254	64.500957634789	9.494335953355
5	259	64.717044548185	2.819868544693
5	267	66.432080028774	3.408962853636
5	272	66.561430692046	2.572028722599
5	281	67.986272753556	1.917317393516
5	298	70.882519247096	4.234798269567
5	385	95.276451405675	11.65334367847
5	392	96.426401543267	9.678049195664

