version 2
run Second-n4-14-20191125-12:37:29-7932
attr configname Second-n4
attr datetime 20191125-12:37:29
attr experiment Second-n4
attr inifile omnetpp.ini
attr iterationvars ""
attr iterationvarsf ""
attr measurement ""
attr network org.omnetpp.queueing.Pizza
attr processid 7932
attr repetition 14
attr replication ""
attr resultdir results_no_transient
attr runnumber 14
attr seedset 14
param **.PS.maxInventoriedPS 4
param **.U1.interArrivalTime exponential(3s)
param **.U2.interArrivalTime exponential(5s)
param **.PS.serviceTimeForInventoryU1 exponential(1.0s)
param **.PS.serviceTimeForInventoryU2 exponential(1.2s)
param **.PS.serviceTimeDirectU1 exponential(1.4s)
param **.PS.serviceTimeDirectU2 exponential(1.4s)
param **.PS.probabilityProducing 0.7
param **.CS.serviceTimeU1 exponential(1.1s)
param **.CS.serviceTimeU2 exponential(1.4s)

vector 0 Pizza.EntryQueueU1 queueLength:vector ETV
attr interpolationmode sample-hold
attr title "queue length, vector"
vector 1 Pizza.CS queueLength:vector ETV
attr interpolationmode sample-hold
attr title "queue length, vector"
vector 2 Pizza.EntryQueueU2 queueLength:vector ETV
attr interpolationmode sample-hold
attr title "queue length, vector"
vector 3 Pizza.sink lifeTime:vector ETV
attr interpolationmode none
attr title "lifetime of arrived jobs, vector"
attr unit s
vector 4 Pizza.sink lifeTimeU1:vector ETV
attr interpolationmode none
attr title "lifetime of arrived jobs, vector"
attr unit s
vector 5 Pizza.sink lifeTimeU2:vector ETV
attr interpolationmode none
attr title "lifetime of arrived jobs, vector"
attr unit s
0	0	0	0
0	59	19.864288770696	1
0	61	20.169050774118	2
0	62	20.581764436503	1
0	67	20.920555339859	0
0	92	35.983041989678	1
0	96	39.49640373689	2
0	99	41.43327059078	1
0	106	41.664839037095	0
0	204	69.112487225126	1
0	205	70.435432264934	0
0	217	71.629987460519	1
0	221	73.251665670825	2
0	227	74.297740961881	1
0	232	74.337762972907	0
0	243	75.138321500938	1
0	247	76.108224477643	2
0	248	76.584955707979	1
0	253	77.211456720023	0
0	266	81.480452697275	1
0	268	81.718127908114	2
0	269	82.574408852462	1
0	275	83.029600278712	2
0	277	83.756851143003	1
0	284	85.531615887331	0
0	297	87.511451122105	1
0	299	88.048824241377	2
0	301	88.101857021131	3
0	302	88.590575398626	2
0	308	88.63613471783	3
0	310	88.657397454683	4
0	312	88.999119079518	3
0	320	91.858763868682	2
0	329	93.110839907192	3
0	330	93.596998779149	2
0	335	93.678306184038	1
0	340	93.765546771978	0
0	349	94.590147130332	1
0	352	95.176621137392	2
0	353	95.330571902173	1
0	360	96.454840274394	2
0	361	96.913441137397	1
0	372	99.036208612713	0
0	378	99.949020463297	1
1	0	0	0
2	0	0	0
2	47	16.15121956157	1
2	51	17.046240424524	0
2	94	37.39817790805	1
2	98	40.406830728831	2
2	105	41.459686182046	3
2	111	42.160071671528	2
2	117	42.691622198162	1
2	123	44.552664100205	0
2	131	47.732713664564	1
2	133	48.926674039924	2
2	134	50.095348871512	1
2	139	50.445148550448	0
2	152	51.937209814601	1
2	153	52.012128059547	0
2	157	52.520177523755	1
2	162	56.009169873454	2
2	163	57.187863919767	1
2	168	59.720789934395	0
2	174	60.859520505086	1
2	176	61.239622201047	0
2	182	61.500660733055	1
2	183	64.351945834405	0
2	189	64.491469290988	1
2	190	65.731075965262	0
2	211	71.10641622832	1
2	213	71.555003286902	0
2	219	72.281747763271	1
2	225	73.620546971822	2
2	237	74.749396698806	1
2	258	77.227632402365	0
2	262	77.843571745525	1
2	289	86.080264523674	0
2	326	92.773151605467	1
2	347	94.330414923926	2
2	368	96.99155593257	3
3	7	3.679748173176	1.515457943932
3	17	7.036345118289	0.421457034123
3	26	9.174571011095	1.806619580428
3	35	10.92119323965	1.230087660488
3	42	14.702830085183	1.954424038524
3	53	17.046240424524	2.179716761762
3	64	20.581764436503	4.430544874933
3	69	20.920555339859	1.056266569163
3	73	21.34812633647	1.179075562352
3	83	25.302413439143	1.509908888918
3	101	41.43327059078	6.655624922086
3	108	41.664839037095	5.681797047417
3	113	42.160071671528	2.663667934638
3	119	42.691622198162	5.293444290112
3	125	44.552664100205	4.145833371374
3	136	50.095348871512	8.635662689466
3	141	50.445148550448	2.712434885884
3	145	51.414960955093	2.488286915169
3	155	52.012128059547	0.219116777024
3	165	57.187863919767	5.250654105166
3	170	59.720789934395	7.20061241064
3	178	61.239622201047	5.230452327593
3	185	64.351945834405	3.492425329319
3	192	65.731075965262	4.230415232207
3	196	67.53759853208	3.046129241092
3	207	70.435432264934	2.303402442061
3	215	71.555003286902	2.442516061776
3	229	74.297740961881	3.191324733561
3	234	74.337762972907	2.707775512388
3	239	74.749396698806	1.497731027981
3	250	76.584955707979	4.303207944708
3	255	77.211456720023	2.073135219085
3	260	77.227632402365	1.119407924722
3	271	82.574408852462	8.95386188064
3	279	83.756851143003	2.276398445728
3	286	85.531615887331	3.813487979217
3	291	86.080264523674	3.050664244962
3	304	88.590575398626	10.747003653101
3	314	88.999119079518	1.487667957413
3	322	91.858763868682	3.809939627305
3	332	93.596998779149	5.495141758018
3	337	93.678306184038	5.042171466208
3	342	93.765546771978	5.108149317295
3	355	95.330571902173	2.219731994981
3	363	96.913441137397	2.323294007065
3	374	99.036208612713	3.859587475321
4	7	3.679748173176	1.515457943932
4	17	7.036345118289	0.421457034123
4	26	9.174571011095	1.806619580428
4	35	10.92119323965	1.230087660488
4	69	20.920555339859	1.056266569163
4	73	21.34812633647	1.179075562352
4	83	25.302413439143	1.509908888918
4	108	41.664839037095	5.681797047417
4	113	42.160071671528	2.663667934638
4	155	52.012128059547	0.219116777024
4	207	70.435432264934	2.303402442061
4	215	71.555003286902	2.442516061776
4	234	74.337762972907	2.707775512388
4	239	74.749396698806	1.497731027981
4	255	77.211456720023	2.073135219085
4	260	77.227632402365	1.119407924722
4	279	83.756851143003	2.276398445728
4	286	85.531615887331	3.813487979217
4	291	86.080264523674	3.050664244962
4	314	88.999119079518	1.487667957413
4	322	91.858763868682	3.809939627305
4	332	93.596998779149	5.495141758018
4	337	93.678306184038	5.042171466208
4	342	93.765546771978	5.108149317295
4	355	95.330571902173	2.219731994981
4	363	96.913441137397	2.323294007065
4	374	99.036208612713	3.859587475321
5	42	14.702830085183	1.954424038524
5	53	17.046240424524	2.179716761762
5	64	20.581764436503	4.430544874933
5	101	41.43327059078	6.655624922086
5	119	42.691622198162	5.293444290112
5	125	44.552664100205	4.145833371374
5	136	50.095348871512	8.635662689466
5	141	50.445148550448	2.712434885884
5	145	51.414960955093	2.488286915169
5	165	57.187863919767	5.250654105166
5	170	59.720789934395	7.20061241064
5	178	61.239622201047	5.230452327593
5	185	64.351945834405	3.492425329319
5	192	65.731075965262	4.230415232207
5	196	67.53759853208	3.046129241092
5	229	74.297740961881	3.191324733561
5	250	76.584955707979	4.303207944708
5	271	82.574408852462	8.95386188064
5	304	88.590575398626	10.747003653101

