version 2
run Second-n2-15-20191125-12:37:15-9748
attr configname Second-n2
attr datetime 20191125-12:37:15
attr experiment Second-n2
attr inifile omnetpp.ini
attr iterationvars ""
attr iterationvarsf ""
attr measurement ""
attr network org.omnetpp.queueing.Pizza
attr processid 9748
attr repetition 15
attr replication ""
attr resultdir results_no_transient
attr runnumber 15
attr seedset 15
param **.PS.maxInventoriedPS 2
param **.U1.interArrivalTime exponential(3s)
param **.U2.interArrivalTime exponential(5s)
param **.PS.serviceTimeForInventoryU1 exponential(1.0s)
param **.PS.serviceTimeForInventoryU2 exponential(1.2s)
param **.PS.serviceTimeDirectU1 exponential(1.4s)
param **.PS.serviceTimeDirectU2 exponential(1.4s)
param **.PS.probabilityProducing 0.7
param **.CS.serviceTimeU1 exponential(1.1s)
param **.CS.serviceTimeU2 exponential(1.4s)

vector 0 Pizza.EntryQueueU1 queueLength:vector ETV
attr interpolationmode sample-hold
attr title "queue length, vector"
vector 1 Pizza.CS queueLength:vector ETV
attr interpolationmode sample-hold
attr title "queue length, vector"
vector 2 Pizza.EntryQueueU2 queueLength:vector ETV
attr interpolationmode sample-hold
attr title "queue length, vector"
vector 3 Pizza.sink lifeTime:vector ETV
attr interpolationmode none
attr title "lifetime of arrived jobs, vector"
attr unit s
vector 4 Pizza.sink lifeTimeU1:vector ETV
attr interpolationmode none
attr title "lifetime of arrived jobs, vector"
attr unit s
vector 5 Pizza.sink lifeTimeU2:vector ETV
attr interpolationmode none
attr title "lifetime of arrived jobs, vector"
attr unit s
0	0	0	0
0	5	6.259122747316	1
0	7	6.426812955062	2
0	9	6.779740928897	3
0	15	8.125822386251	4
0	20	9.215084584741	5
0	21	9.794334791656	4
0	27	9.930270606506	5
0	29	10.02937631436	6
0	31	10.949550430024	7
0	33	12.54052083982	6
0	39	13.04111979938	7
0	40	14.350545539141	6
0	45	14.551860311256	5
0	49	14.687692485238	6
0	53	14.831189487564	7
0	55	14.951850747968	8
0	57	15.323779173934	9
0	59	15.994075506328	10
0	62	16.778425113882	9
0	69	17.350161979774	10
0	70	17.903974303591	9
0	75	18.636299551569	8
0	80	19.266017428703	7
0	86	19.488469120032	8
0	89	20.554205542036	9
0	90	20.913126504	8
0	95	21.411507715087	7
0	101	23.252931624439	8
0	104	24.735719901123	7
0	108	25.918823930418	8
0	111	26.554977109207	7
0	118	27.34901121032	6
0	122	27.467556933123	7
0	124	27.712263989115	8
0	127	29.230483489991	7
0	132	30.312038455176	6
0	136	30.379084433301	7
0	138	30.47279999242	8
0	140	31.366869561875	9
0	143	32.506842712763	8
0	147	34.427571590107	9
0	149	35.674123438348	10
0	153	36.874508277098	11
0	155	37.526830890458	12
0	161	40.510467657212	11
0	166	40.632915004419	10
0	171	41.798798677309	9
0	175	41.890237461237	10
0	177	41.962821780858	11
0	179	42.697878731479	12
0	183	44.090337377679	13
0	187	44.398864704597	14
0	188	45.027774029315	13
0	194	46.244338179576	14
0	196	47.233905979448	15
0	199	48.622857361088	14
0	207	50.695352329259	15
0	208	50.800751005934	14
0	213	52.057631294396	13
0	219	52.499087631704	14
0	222	52.535336116596	15
0	223	53.450071718708	14
0	230	54.563445684114	13
0	236	55.932156570597	12
0	241	56.22415074401	11
0	246	56.475081733901	10
0	251	57.891131290561	9
0	256	59.168870953243	8
0	262	60.036301001416	9
0	264	60.900517074047	8
0	269	60.955033065283	7
0	276	62.211300534595	8
0	277	62.238273897171	7
0	283	64.045777791443	6
0	290	64.28425333183	7
0	292	66.072463577506	6
0	297	66.089093217121	5
0	302	68.618942413227	4
0	310	72.361256618832	5
0	311	73.902954300545	4
0	317	75.145391043791	3
0	322	76.393196009043	2
0	328	77.550308165154	1
0	333	77.981166394475	0
0	350	80.620201191475	1
0	352	80.87096877547	0
0	360	81.327351986928	1
0	363	82.221636994652	0
0	375	83.640448365373	1
0	376	83.841241062512	0
0	382	84.368204978913	1
0	388	85.754260161431	2
0	393	87.717274515014	3
0	395	89.597953053016	4
0	396	89.608433900222	3
0	400	90.949692389195	4
0	405	91.535663086844	5
0	407	92.581767500624	4
0	420	93.863932396544	5
0	425	95.899856684829	4
0	430	96.147466101972	3
0	435	97.197576437842	2
0	440	97.6853835162	1
0	444	97.968567685655	2
1	0	0	0
2	0	0	0
2	17	8.398777523668	1
2	51	14.762268602085	2
2	99	22.212677449151	3
2	115	27.090474810954	4
2	151	36.369173839105	5
2	157	37.577727197151	6
2	181	43.338523745153	7
2	192	45.19216148718	8
2	203	48.867181673458	9
2	229	54.283787092081	10
2	338	78.549469775152	9
2	344	80.56452820528	8
2	358	81.007166590231	9
2	368	82.332912644584	8
2	384	85.465223806074	9
2	386	85.626219871548	10
2	391	86.921449883413	11
2	413	92.794733949605	12
2	415	93.407766685139	13
2	417	93.410708034679	14
2	422	94.279712316253	15
2	424	95.893430850513	16
2	446	99.089962641073	17
3	23	9.794334791656	4.126528272437
3	35	12.54052083982	6.281398092504
3	42	14.350545539141	7.923732584079
3	47	14.551860311256	7.772119382359
3	64	16.778425113882	8.652602727631
3	72	17.903974303591	8.68888971885
3	77	18.636299551569	8.706028945063
3	82	19.266017428703	9.236641114343
3	92	20.913126504	9.963576073976
3	97	21.411507715087	8.370387915707
3	106	24.735719901123	10.048027415885
3	113	26.554977109207	11.723787621643
3	120	27.34901121032	12.397160462352
3	129	29.230483489991	13.906704316057
3	134	30.312038455176	14.317962948848
3	145	32.506842712763	15.156680732989
3	163	40.510467657212	21.02199853718
3	168	40.632915004419	20.078709462383
3	173	41.798798677309	18.54586705287
3	190	45.027774029315	19.108950098897
3	201	48.622857361088	21.155300427965
3	210	50.800751005934	23.088487016819
3	215	52.057631294396	21.678546861095
3	225	53.450071718708	22.977271726288
3	232	54.563445684114	23.196576122239
3	238	55.932156570597	21.50458498049
3	243	56.22415074401	20.550027305662
3	248	56.475081733901	19.600573456803
3	253	57.891131290561	20.364300400103
3	258	59.168870953243	17.278633492006
3	266	60.900517074047	18.937695293189
3	271	60.955033065283	18.257154333804
3	279	62.238273897171	18.147936519492
3	285	64.045777791443	19.646913086846
3	294	66.072463577506	19.82812539793
3	299	66.089093217121	18.855187237673
3	304	68.618942413227	17.923590083968
3	313	73.902954300545	21.403866668841
3	319	75.145391043791	22.610054927195
3	324	76.393196009043	16.356895007627
3	330	77.550308165154	15.339007630559
3	335	77.981166394475	13.696913062645
3	340	78.549469775152	6.18821315632
3	346	80.56452820528	72.165750681612
3	354	80.87096877547	66.108700173385
3	365	82.221636994652	1.601435803177
3	370	82.332912644584	1.005560657656
3	378	83.841241062512	61.628563613361
3	398	89.608433900222	5.967985534849
3	409	92.581767500624	8.213562521711
3	427	95.899856684829	10.145596523398
3	432	96.147466101972	8.430191586958
3	437	97.197576437842	7.599623384826
3	442	97.6853835162	6.735691127005
4	23	9.794334791656	4.126528272437
4	35	12.54052083982	6.281398092504
4	42	14.350545539141	7.923732584079
4	47	14.551860311256	7.772119382359
4	64	16.778425113882	8.652602727631
4	72	17.903974303591	8.68888971885
4	77	18.636299551569	8.706028945063
4	82	19.266017428703	9.236641114343
4	92	20.913126504	9.963576073976
4	97	21.411507715087	8.370387915707
4	106	24.735719901123	10.048027415885
4	113	26.554977109207	11.723787621643
4	120	27.34901121032	12.397160462352
4	129	29.230483489991	13.906704316057
4	134	30.312038455176	14.317962948848
4	145	32.506842712763	15.156680732989
4	163	40.510467657212	21.02199853718
4	168	40.632915004419	20.078709462383
4	173	41.798798677309	18.54586705287
4	190	45.027774029315	19.108950098897
4	201	48.622857361088	21.155300427965
4	210	50.800751005934	23.088487016819
4	215	52.057631294396	21.678546861095
4	225	53.450071718708	22.977271726288
4	232	54.563445684114	23.196576122239
4	238	55.932156570597	21.50458498049
4	243	56.22415074401	20.550027305662
4	248	56.475081733901	19.600573456803
4	253	57.891131290561	20.364300400103
4	258	59.168870953243	17.278633492006
4	266	60.900517074047	18.937695293189
4	271	60.955033065283	18.257154333804
4	279	62.238273897171	18.147936519492
4	285	64.045777791443	19.646913086846
4	294	66.072463577506	19.82812539793
4	299	66.089093217121	18.855187237673
4	304	68.618942413227	17.923590083968
4	313	73.902954300545	21.403866668841
4	319	75.145391043791	22.610054927195
4	324	76.393196009043	16.356895007627
4	330	77.550308165154	15.339007630559
4	335	77.981166394475	13.696913062645
4	340	78.549469775152	6.18821315632
4	365	82.221636994652	1.601435803177
4	370	82.332912644584	1.005560657656
4	398	89.608433900222	5.967985534849
4	409	92.581767500624	8.213562521711
4	427	95.899856684829	10.145596523398
4	432	96.147466101972	8.430191586958
4	437	97.197576437842	7.599623384826
4	442	97.6853835162	6.735691127005
5	346	80.56452820528	72.165750681612
5	354	80.87096877547	66.108700173385
5	378	83.841241062512	61.628563613361

