version 2
run Second-n3-8-20191125-12:37:12-4772
attr configname Second-n3
attr datetime 20191125-12:37:12
attr experiment Second-n3
attr inifile omnetpp.ini
attr iterationvars ""
attr iterationvarsf ""
attr measurement ""
attr network org.omnetpp.queueing.Pizza
attr processid 4772
attr repetition 8
attr replication ""
attr resultdir results_no_transient
attr runnumber 8
attr seedset 8
param **.PS.maxInventoriedPS 3
param **.U1.interArrivalTime exponential(3s)
param **.U2.interArrivalTime exponential(5s)
param **.PS.serviceTimeForInventoryU1 exponential(1.0s)
param **.PS.serviceTimeForInventoryU2 exponential(1.2s)
param **.PS.serviceTimeDirectU1 exponential(1.4s)
param **.PS.serviceTimeDirectU2 exponential(1.4s)
param **.PS.probabilityProducing 0.7
param **.CS.serviceTimeU1 exponential(1.1s)
param **.CS.serviceTimeU2 exponential(1.4s)

vector 0 Pizza.EntryQueueU1 queueLength:vector ETV
attr interpolationmode sample-hold
attr title "queue length, vector"
vector 1 Pizza.CS queueLength:vector ETV
attr interpolationmode sample-hold
attr title "queue length, vector"
vector 2 Pizza.EntryQueueU2 queueLength:vector ETV
attr interpolationmode sample-hold
attr title "queue length, vector"
vector 3 Pizza.sink lifeTime:vector ETV
attr interpolationmode none
attr title "lifetime of arrived jobs, vector"
attr unit s
vector 4 Pizza.sink lifeTimeU2:vector ETV
attr interpolationmode none
attr title "lifetime of arrived jobs, vector"
attr unit s
vector 5 Pizza.sink lifeTimeU1:vector ETV
attr interpolationmode none
attr title "lifetime of arrived jobs, vector"
attr unit s
0	0	0	0
0	27	8.628696714091	1
0	29	9.727321125765	0
0	35	10.174590397189	1
0	37	10.239123504879	2
0	38	10.790743694833	1
0	44	11.51456524912	0
0	50	11.904980843317	1
0	51	11.961304285623	0
0	55	12.070918998277	1
0	61	13.00367749584	2
0	64	13.60893493195	3
0	66	15.349614271456	4
0	68	16.113400603584	5
0	69	16.780651126043	4
0	77	18.38479242826	5
0	78	19.271886733258	4
0	83	19.414640022062	3
0	89	19.656267555429	4
0	91	19.891356031963	3
0	97	20.618762960614	4
0	100	21.078437249214	3
0	105	21.750632918563	2
0	110	22.263973317392	1
0	117	24.70544073662	0
0	146	28.999778983897	1
0	148	29.628738815922	0
0	157	30.405985945836	1
0	159	30.896968589955	2
0	162	32.637392284633	1
0	169	36.503627228312	2
0	170	36.542576357354	1
0	175	37.871003886584	0
0	179	38.58148431867	1
0	182	40.089745621899	0
0	194	41.458740624777	1
0	197	42.075696697018	2
0	200	42.449836763885	3
0	201	43.120067089728	2
0	209	44.630703333514	1
0	214	44.667121907502	0
0	222	46.278655173353	1
0	223	46.616673480416	0
0	255	54.249210077223	1
0	256	54.315546638957	0
0	287	68.481209060734	1
0	288	68.585576981791	0
0	305	76.047136319651	1
0	306	76.965307334916	0
0	351	86.531722849554	1
0	355	87.493336985732	0
0	381	91.910885885985	1
0	382	92.204864356771	0
0	388	93.586849644748	1
0	389	93.605501875218	0
1	0	0	0
2	0	0	0
2	75	17.351180921554	1
2	99	20.955086185138	2
2	114	22.612077082475	3
2	123	25.87477034477	4
2	125	26.037428458964	5
2	126	26.190858142097	4
2	132	26.204897266071	5
2	134	27.488468600633	6
2	135	28.376915740789	5
2	140	28.800842861063	4
2	153	29.895462943926	3
2	188	40.979564141349	2
2	228	47.006715947632	1
2	235	49.366516760759	0
2	241	49.857652611457	1
2	242	51.758980118833	0
2	343	84.981780694917	1
2	345	86.071307851515	0
2	354	87.206259454519	1
2	361	87.530623397949	2
2	362	88.245335716004	1
2	368	88.853644891984	0
3	10	1.498645717792	1.442762393099
3	20	7.092395775306	0.891530623353
3	31	9.727321125765	1.573940378681
3	40	10.790743694833	2.162046980742
3	46	11.51456524912	1.339974851931
3	53	11.961304285623	1.722180780744
3	71	16.780651126043	4.875670282726
3	80	19.271886733258	7.200967734981
3	85	19.414640022062	6.410962526222
3	93	19.891356031963	6.282421100013
3	102	21.078437249214	5.728822977758
3	107	21.750632918563	5.637232314979
3	112	22.263973317392	3.879180889132
3	119	24.70544073662	5.049173181191
3	128	26.190858142097	5.572095181483
3	137	28.376915740789	11.025734819235
3	142	28.800842861063	7.845756675925
3	150	29.628738815922	7.016661733447
3	155	29.895462943926	0.895683960029
3	164	32.637392284633	6.762621939863
3	172	36.542576357354	6.136590411518
3	177	37.871003886584	6.974035296629
3	184	40.089745621899	3.586118393587
3	190	40.979564141349	2.398079822679
3	203	43.120067089728	17.082638630764
3	211	44.630703333514	3.171962708737
3	216	44.667121907502	2.591425210484
3	225	46.616673480416	4.166836716531
3	230	47.006715947632	0.728060774279
3	237	49.366516760759	23.161619494688
3	244	51.758980118833	24.2705115182
3	248	53.056422408255	3.198769796798
3	258	54.315546638957	0.707372480529
3	263	55.224348573029	0.975138495806
3	270	56.954800455783	0.583842318944
3	279	60.704346982233	0.009177396334
3	290	68.585576981791	0.976234854622
3	297	73.137058025676	4.655848964942
3	308	76.965307334916	1.586344968877
3	313	78.411982858563	2.364846538912
3	320	80.752230835385	0.195426566549
3	328	81.038385107165	0.180036128986
3	335	83.60334254552	0.883294866151
3	347	86.071307851515	2.3139885982
3	357	87.493336985732	2.511556290815
3	364	88.245335716004	1.71361286645
3	370	88.853644891984	1.647385437465
3	374	91.000060622965	3.469437225016
3	384	92.204864356771	1.172246446703
3	391	93.605501875218	1.694615989233
3	397	94.22301845503	0.636168810282
3	405	96.423591519553	0.895046574013
3	412	97.972051121614	0.059263916089
4	10	1.498645717792	1.442762393099
4	137	28.376915740789	11.025734819235
4	142	28.800842861063	7.845756675925
4	150	29.628738815922	7.016661733447
4	164	32.637392284633	6.762621939863
4	203	43.120067089728	17.082638630764
4	237	49.366516760759	23.161619494688
4	244	51.758980118833	24.2705115182
4	248	53.056422408255	3.198769796798
4	258	54.315546638957	0.707372480529
4	290	68.585576981791	0.976234854622
4	308	76.965307334916	1.586344968877
4	347	86.071307851515	2.3139885982
4	357	87.493336985732	2.511556290815
4	370	88.853644891984	1.647385437465
4	374	91.000060622965	3.469437225016
4	384	92.204864356771	1.172246446703
5	20	7.092395775306	0.891530623353
5	31	9.727321125765	1.573940378681
5	40	10.790743694833	2.162046980742
5	46	11.51456524912	1.339974851931
5	53	11.961304285623	1.722180780744
5	71	16.780651126043	4.875670282726
5	80	19.271886733258	7.200967734981
5	85	19.414640022062	6.410962526222
5	93	19.891356031963	6.282421100013
5	102	21.078437249214	5.728822977758
5	107	21.750632918563	5.637232314979
5	112	22.263973317392	3.879180889132
5	119	24.70544073662	5.049173181191
5	128	26.190858142097	5.572095181483
5	155	29.895462943926	0.895683960029
5	172	36.542576357354	6.136590411518
5	177	37.871003886584	6.974035296629
5	184	40.089745621899	3.586118393587
5	190	40.979564141349	2.398079822679
5	211	44.630703333514	3.171962708737
5	216	44.667121907502	2.591425210484
5	225	46.616673480416	4.166836716531
5	230	47.006715947632	0.728060774279
5	263	55.224348573029	0.975138495806
5	270	56.954800455783	0.583842318944
5	279	60.704346982233	0.009177396334
5	297	73.137058025676	4.655848964942
5	313	78.411982858563	2.364846538912
5	320	80.752230835385	0.195426566549
5	328	81.038385107165	0.180036128986
5	335	83.60334254552	0.883294866151
5	364	88.245335716004	1.71361286645
5	391	93.605501875218	1.694615989233
5	397	94.22301845503	0.636168810282
5	405	96.423591519553	0.895046574013
5	412	97.972051121614	0.059263916089

