version 2
run Second-n4-5-20191125-12:37:18-5164
attr configname Second-n4
attr datetime 20191125-12:37:18
attr experiment Second-n4
attr inifile omnetpp.ini
attr iterationvars ""
attr iterationvarsf ""
attr measurement ""
attr network org.omnetpp.queueing.Pizza
attr processid 5164
attr repetition 5
attr replication ""
attr resultdir results_no_transient
attr runnumber 5
attr seedset 5
param **.PS.maxInventoriedPS 4
param **.U1.interArrivalTime exponential(3s)
param **.U2.interArrivalTime exponential(5s)
param **.PS.serviceTimeForInventoryU1 exponential(1.0s)
param **.PS.serviceTimeForInventoryU2 exponential(1.2s)
param **.PS.serviceTimeDirectU1 exponential(1.4s)
param **.PS.serviceTimeDirectU2 exponential(1.4s)
param **.PS.probabilityProducing 0.7
param **.CS.serviceTimeU1 exponential(1.1s)
param **.CS.serviceTimeU2 exponential(1.4s)

vector 0 Pizza.EntryQueueU1 queueLength:vector ETV
attr interpolationmode sample-hold
attr title "queue length, vector"
vector 1 Pizza.CS queueLength:vector ETV
attr interpolationmode sample-hold
attr title "queue length, vector"
vector 2 Pizza.EntryQueueU2 queueLength:vector ETV
attr interpolationmode sample-hold
attr title "queue length, vector"
vector 3 Pizza.sink lifeTime:vector ETV
attr interpolationmode none
attr title "lifetime of arrived jobs, vector"
attr unit s
vector 4 Pizza.sink lifeTimeU2:vector ETV
attr interpolationmode none
attr title "lifetime of arrived jobs, vector"
attr unit s
vector 5 Pizza.sink lifeTimeU1:vector ETV
attr interpolationmode none
attr title "lifetime of arrived jobs, vector"
attr unit s
0	0	0	0
0	5	0.753059933076	1
0	7	1.447793824209	2
0	11	2.804223168235	3
0	13	3.086565267221	4
0	14	3.713850244484	3
0	20	5.225158783124	2
0	24	5.92483528698	3
0	26	6.548570327485	4
0	32	11.503754629997	5
0	35	12.097883854806	4
0	40	12.468465603316	3
0	45	13.056406209051	2
0	50	14.363753905328	1
0	54	15.527032728862	2
0	57	15.917614004192	1
0	65	16.259902939981	0
0	76	17.559657457948	1
0	77	17.612700222004	0
0	110	27.2333374427	1
0	113	32.048704521728	0
0	125	33.365168955247	1
0	127	33.565213473477	2
0	129	35.092419009026	3
0	131	35.677713561396	4
0	138	40.17504022329	3
0	143	40.317594223085	2
0	148	40.417144247152	1
0	156	40.719427577396	2
0	158	41.124505944377	1
0	163	41.645520598896	0
0	175	43.716538013315	1
0	176	45.349592499072	0
0	199	48.942202791148	1
0	200	49.236224832856	0
0	206	49.374648012343	1
0	208	49.713637045031	0
0	215	50.526645158426	1
0	216	50.677092062066	0
0	234	58.617741383418	1
0	236	58.725112609752	2
0	240	60.118430605264	3
0	242	60.155770250825	4
0	245	60.937160917794	3
0	252	61.320253151054	4
0	253	61.427535234494	3
0	258	62.222908116867	2
0	267	64.908250699955	3
0	269	65.072927006611	4
0	270	66.107890791268	3
0	276	66.662868846324	4
0	277	67.659205369822	3
0	283	69.175475690674	2
0	290	70.510686622625	1
0	299	71.512279528652	2
0	300	73.309396528811	1
0	306	75.826634050934	0
0	318	76.831955654352	1
0	322	79.717322016763	0
0	343	83.536294700519	1
0	347	84.755759568892	2
0	349	87.86204250661	3
0	350	88.02518073522	2
0	357	88.683934068524	3
0	358	90.06985751043	2
0	363	90.138033000793	1
0	369	90.953477537031	0
0	400	97.100285996994	1
0	401	97.966984945918	0
1	0	0	0
2	0	0	0
2	28	10.513154157866	1
2	30	10.93409246129	2
2	64	16.175478758693	3
2	70	16.459066499838	2
2	82	17.772647097882	1
2	88	20.365998514317	0
2	105	25.167818582338	1
2	106	26.924013347894	0
2	133	37.612010499763	1
2	137	39.701169930736	2
2	169	43.483394301682	1
2	183	46.617617388123	0
2	191	47.068151542271	1
2	193	48.844086617291	0
2	238	59.961955407676	1
2	244	60.790240039992	2
2	296	70.610347169346	3
2	311	75.921633073171	2
2	321	78.224696343887	3
2	327	80.739943161636	2
2	332	82.473204032354	1
2	337	82.896712872505	0
3	16	3.713850244484	3.430045376378
3	22	5.225158783124	4.472098850048
3	37	12.097883854806	10.650090030597
3	42	12.468465603316	9.664242435081
3	47	13.056406209051	9.96984094183
3	52	14.363753905328	8.438918618348
3	59	15.917614004192	9.369043676707
3	67	16.259902939981	4.756148309984
3	72	16.459066499838	0.932033770976
3	79	17.612700222004	7.099546064138
3	84	17.772647097882	0.212989639934
3	90	20.365998514317	9.431906053027
3	96	22.913143453583	6.73766469489
3	108	26.924013347894	1.784952613102
3	115	32.048704521728	6.88088593939
3	120	32.99100853581	5.75767109311
3	140	40.17504022329	6.897216976114
3	145	40.317594223085	6.952425267838
3	150	40.417144247152	6.851930773675
3	160	41.124505944377	6.032086935351
3	165	41.645520598896	5.9678070375
3	171	43.483394301682	2.763966724286
3	178	45.349592499072	7.737581999309
3	185	46.617617388123	2.901079374808
3	195	48.844086617291	9.142916686555
3	202	49.236224832856	2.168073290585
3	210	49.713637045031	0.771434253883
3	218	50.677092062066	1.302444049723
3	223	50.807373010946	0.28072785252
3	247	60.937160917794	4.545576613506
3	255	61.427535234494	2.809793851076
3	260	62.222908116867	3.497795507115
3	272	66.107890791268	5.989460186004
3	279	67.659205369822	7.503435118997
3	285	69.175475690674	7.85522253962
3	292	70.510686622625	5.60243592267
3	302	73.309396528811	8.2364695222
3	308	75.826634050934	9.16376520461
3	313	75.921633073171	4.409353544519
3	324	79.717322016763	19.755366609087
3	329	80.739943161636	3.907987507284
3	334	82.473204032354	21.682963992362
3	339	82.896712872505	12.286365703159
3	352	88.02518073522	9.800484391333
3	360	90.06985751043	6.533562809911
3	365	90.138033000793	5.382273431901
3	371	90.953477537031	3.091435030421
3	375	91.025527571294	2.34159350277
3	385	91.858303533991	0.205294014578
3	392	94.799980279104	2.844110530065
3	403	97.966984945918	2.957694887376
4	16	3.713850244484	3.430045376378
4	79	17.612700222004	7.099546064138
4	90	20.365998514317	9.431906053027
4	96	22.913143453583	6.73766469489
4	108	26.924013347894	1.784952613102
4	115	32.048704521728	6.88088593939
4	140	40.17504022329	6.897216976114
4	178	45.349592499072	7.737581999309
4	195	48.844086617291	9.142916686555
4	202	49.236224832856	2.168073290585
4	247	60.937160917794	4.545576613506
4	324	79.717322016763	19.755366609087
4	334	82.473204032354	21.682963992362
4	339	82.896712872505	12.286365703159
4	352	88.02518073522	9.800484391333
4	403	97.966984945918	2.957694887376
5	22	5.225158783124	4.472098850048
5	37	12.097883854806	10.650090030597
5	42	12.468465603316	9.664242435081
5	47	13.056406209051	9.96984094183
5	52	14.363753905328	8.438918618348
5	59	15.917614004192	9.369043676707
5	67	16.259902939981	4.756148309984
5	72	16.459066499838	0.932033770976
5	84	17.772647097882	0.212989639934
5	120	32.99100853581	5.75767109311
5	145	40.317594223085	6.952425267838
5	150	40.417144247152	6.851930773675
5	160	41.124505944377	6.032086935351
5	165	41.645520598896	5.9678070375
5	171	43.483394301682	2.763966724286
5	185	46.617617388123	2.901079374808
5	210	49.713637045031	0.771434253883
5	218	50.677092062066	1.302444049723
5	223	50.807373010946	0.28072785252
5	255	61.427535234494	2.809793851076
5	260	62.222908116867	3.497795507115
5	272	66.107890791268	5.989460186004
5	279	67.659205369822	7.503435118997
5	285	69.175475690674	7.85522253962
5	292	70.510686622625	5.60243592267
5	302	73.309396528811	8.2364695222
5	308	75.826634050934	9.16376520461
5	313	75.921633073171	4.409353544519
5	329	80.739943161636	3.907987507284
5	360	90.06985751043	6.533562809911
5	365	90.138033000793	5.382273431901
5	371	90.953477537031	3.091435030421
5	375	91.025527571294	2.34159350277
5	385	91.858303533991	0.205294014578
5	392	94.799980279104	2.844110530065

