version 2
run Second-n2-13-20191125-12:37:12-1316
attr configname Second-n2
attr datetime 20191125-12:37:12
attr experiment Second-n2
attr inifile omnetpp.ini
attr iterationvars ""
attr iterationvarsf ""
attr measurement ""
attr network org.omnetpp.queueing.Pizza
attr processid 1316
attr repetition 13
attr replication ""
attr resultdir results_no_transient
attr runnumber 13
attr seedset 13
param **.PS.maxInventoriedPS 2
param **.U1.interArrivalTime exponential(3s)
param **.U2.interArrivalTime exponential(5s)
param **.PS.serviceTimeForInventoryU1 exponential(1.0s)
param **.PS.serviceTimeForInventoryU2 exponential(1.2s)
param **.PS.serviceTimeDirectU1 exponential(1.4s)
param **.PS.serviceTimeDirectU2 exponential(1.4s)
param **.PS.probabilityProducing 0.7
param **.CS.serviceTimeU1 exponential(1.1s)
param **.CS.serviceTimeU2 exponential(1.4s)

vector 0 Pizza.EntryQueueU1 queueLength:vector ETV
attr interpolationmode sample-hold
attr title "queue length, vector"
vector 1 Pizza.CS queueLength:vector ETV
attr interpolationmode sample-hold
attr title "queue length, vector"
vector 2 Pizza.EntryQueueU2 queueLength:vector ETV
attr interpolationmode sample-hold
attr title "queue length, vector"
vector 3 Pizza.sink lifeTime:vector ETV
attr interpolationmode none
attr title "lifetime of arrived jobs, vector"
attr unit s
vector 4 Pizza.sink lifeTimeU1:vector ETV
attr interpolationmode none
attr title "lifetime of arrived jobs, vector"
attr unit s
vector 5 Pizza.sink lifeTimeU2:vector ETV
attr interpolationmode none
attr title "lifetime of arrived jobs, vector"
attr unit s
0	0	0	0
0	7	5.324835378102	1
0	12	11.215102530395	0
0	16	12.029129270795	1
0	21	14.26790241258	0
0	25	14.833588375069	1
0	29	16.148327423016	0
0	44	18.674187604099	1
0	45	19.115697713847	0
0	61	20.942930555857	1
0	63	21.680244754207	2
0	71	27.070914884434	1
0	76	28.164084126892	0
0	90	30.076133805144	1
0	92	30.733706472608	2
0	94	30.969918857563	3
0	100	32.467647219198	2
0	105	32.467660461125	1
0	114	33.683034521786	2
0	115	34.014177527024	1
0	120	35.290400857717	0
0	143	37.249749732446	1
0	146	38.516911748237	0
0	173	44.484824830474	1
0	175	44.770552931614	2
0	178	45.382426401878	1
0	183	46.040666031128	0
0	256	61.797466226326	1
0	257	62.459129395702	0
0	273	65.143228895721	1
0	274	65.891689010767	0
0	288	67.511660508288	1
0	290	67.606707951854	2
0	291	67.725270493634	1
0	296	68.687770836131	0
0	302	69.980822572449	1
0	304	70.956856134614	2
0	308	74.966349963557	3
0	309	75.362601911012	2
0	314	76.161274488361	1
0	320	76.725541508529	0
0	362	86.421907760573	1
0	364	88.762016642735	2
0	367	90.253750347658	1
0	372	92.198496778668	0
1	0	0	0
2	0	0	0
2	5	4.674072849705	1
2	20	13.368348247509	2
2	36	18.288198036251	1
2	42	18.499062442813	2
2	50	19.126100796794	1
2	55	19.404455921941	0
2	59	19.979515372478	1
2	68	26.395833485691	2
2	70	26.557951877093	3
2	81	28.223796106083	2
2	86	29.280757644895	1
2	96	31.454537628936	2
2	127	35.964313241417	1
2	133	36.796728402532	2
2	134	37.044225394975	1
2	139	37.239377373592	0
2	166	42.413611252399	1
2	169	44.098767433031	0
2	300	69.848445206943	1
2	325	76.984532969907	0
2	347	80.360385138313	1
2	350	80.658979874146	2
2	351	80.797371537841	1
2	357	81.939990025365	2
2	358	83.052602894076	1
2	377	92.222883138227	0
2	397	98.777638975082	1
3	14	11.215102530395	6.703887629331
3	23	14.26790241258	8.943067034478
3	31	16.148327423016	4.119198152221
3	38	18.288198036251	3.454609661182
3	47	19.115697713847	14.441624864142
3	52	19.126100796794	0.451913192695
3	57	19.404455921941	6.036107674432
3	73	27.070914884434	8.571852441621
3	78	28.164084126892	7.221153571035
3	83	28.223796106083	6.543551351876
3	88	29.280757644895	9.301242272417
3	102	32.467647219198	6.071813733507
3	107	32.467660461125	2.391526655981
3	117	34.014177527024	3.280471054416
3	122	35.290400857717	4.320482000154
3	129	35.964313241417	2.281278719631
3	136	37.044225394975	10.486273517882
3	141	37.239377373592	5.784839744656
3	148	38.516911748237	1.720183345705
3	153	39.272577820759	2.022828088313
3	160	40.906734958451	0.181085405716
3	171	44.098767433031	2.663525591089
3	180	45.382426401878	2.968815149479
3	185	46.040666031128	1.555841200654
3	189	46.212819258961	1.442266327347
3	200	48.940100173348	1.729481417232
3	208	49.465791496624	0.231371215476
3	216	51.590754960528	0.282637552991
3	224	52.038643211443	0.296653733647
3	232	53.29873984353	0.030206774889
3	240	57.409900768001	1.651561042684
3	247	57.782154719006	0.212582654748
3	259	62.459129395702	2.385719037313
3	265	64.506764024365	2.709297798039
3	276	65.891689010767	1.095719485539
3	281	65.985682933629	0.842454037908
3	293	67.725270493634	1.155214624635
3	298	68.687770836131	1.176110327843
3	311	75.362601911012	7.755893959158
3	316	76.161274488361	6.180451915912
3	322	76.725541508529	5.768685373915
3	327	76.984532969907	2.01818300635
3	331	77.170294559236	7.321849352293
3	340	78.769786183285	0.048169682426
3	353	80.797371537841	1.215717856684
3	360	83.052602894076	2.692217755763
3	369	90.253750347658	9.594770473512
3	374	92.198496778668	5.776589018095
3	379	92.222883138227	3.460866495492
3	384	93.07302790727	11.133037881905
3	392	97.045706641205	2.939053190402
4	14	11.215102530395	6.703887629331
4	23	14.26790241258	8.943067034478
4	31	16.148327423016	4.119198152221
4	38	18.288198036251	3.454609661182
4	52	19.126100796794	0.451913192695
4	78	28.164084126892	7.221153571035
4	83	28.223796106083	6.543551351876
4	107	32.467660461125	2.391526655981
4	117	34.014177527024	3.280471054416
4	122	35.290400857717	4.320482000154
4	129	35.964313241417	2.281278719631
4	153	39.272577820759	2.022828088313
4	160	40.906734958451	0.181085405716
4	185	46.040666031128	1.555841200654
4	189	46.212819258961	1.442266327347
4	200	48.940100173348	1.729481417232
4	208	49.465791496624	0.231371215476
4	216	51.590754960528	0.282637552991
4	224	52.038643211443	0.296653733647
4	232	53.29873984353	0.030206774889
4	240	57.409900768001	1.651561042684
4	247	57.782154719006	0.212582654748
4	259	62.459129395702	2.385719037313
4	265	64.506764024365	2.709297798039
4	276	65.891689010767	1.095719485539
4	281	65.985682933629	0.842454037908
4	293	67.725270493634	1.155214624635
4	298	68.687770836131	1.176110327843
4	311	75.362601911012	7.755893959158
4	316	76.161274488361	6.180451915912
4	322	76.725541508529	5.768685373915
4	327	76.984532969907	2.01818300635
4	353	80.797371537841	1.215717856684
4	374	92.198496778668	5.776589018095
4	379	92.222883138227	3.460866495492
5	47	19.115697713847	14.441624864142
5	57	19.404455921941	6.036107674432
5	73	27.070914884434	8.571852441621
5	88	29.280757644895	9.301242272417
5	102	32.467647219198	6.071813733507
5	136	37.044225394975	10.486273517882
5	141	37.239377373592	5.784839744656
5	148	38.516911748237	1.720183345705
5	171	44.098767433031	2.663525591089
5	180	45.382426401878	2.968815149479
5	331	77.170294559236	7.321849352293
5	340	78.769786183285	0.048169682426
5	360	83.052602894076	2.692217755763
5	369	90.253750347658	9.594770473512
5	384	93.07302790727	11.133037881905
5	392	97.045706641205	2.939053190402

