version 2
run Second-n4-0-20191125-12:37:12-10012
attr configname Second-n4
attr datetime 20191125-12:37:12
attr experiment Second-n4
attr inifile omnetpp.ini
attr iterationvars ""
attr iterationvarsf ""
attr measurement ""
attr network org.omnetpp.queueing.Pizza
attr processid 10012
attr repetition 0
attr replication ""
attr resultdir results_no_transient
attr runnumber 0
attr seedset 0
param **.PS.maxInventoriedPS 4
param **.U1.interArrivalTime exponential(3s)
param **.U2.interArrivalTime exponential(5s)
param **.PS.serviceTimeForInventoryU1 exponential(1.0s)
param **.PS.serviceTimeForInventoryU2 exponential(1.2s)
param **.PS.serviceTimeDirectU1 exponential(1.4s)
param **.PS.serviceTimeDirectU2 exponential(1.4s)
param **.PS.probabilityProducing 0.7
param **.CS.serviceTimeU1 exponential(1.1s)
param **.CS.serviceTimeU2 exponential(1.4s)

vector 0 Pizza.EntryQueueU1 queueLength:vector ETV
attr interpolationmode sample-hold
attr title "queue length, vector"
vector 1 Pizza.CS queueLength:vector ETV
attr interpolationmode sample-hold
attr title "queue length, vector"
vector 2 Pizza.EntryQueueU2 queueLength:vector ETV
attr interpolationmode sample-hold
attr title "queue length, vector"
vector 3 Pizza.sink lifeTime:vector ETV
attr interpolationmode none
attr title "lifetime of arrived jobs, vector"
attr unit s
vector 4 Pizza.sink lifeTimeU1:vector ETV
attr interpolationmode none
attr title "lifetime of arrived jobs, vector"
attr unit s
vector 5 Pizza.sink lifeTimeU2:vector ETV
attr interpolationmode none
attr title "lifetime of arrived jobs, vector"
attr unit s
0	0	0	0
0	10	6.155415787839	1
0	12	7.057929870225	0
0	32	9.269893689831	1
0	38	12.746473319963	0
0	51	14.695001482656	1
0	58	19.510720153841	2
0	59	19.997869816394	1
0	64	20.168072464944	0
0	97	24.068548732722	1
0	98	24.141821484227	0
0	143	34.915418104064	1
0	145	35.238323428532	2
0	151	38.411802668589	3
0	153	38.820380685587	2
0	159	38.939543304866	3
0	161	39.408951830379	2
0	166	39.59939203214	1
0	174	40.823368047839	2
0	175	40.834877163827	1
0	180	41.340892517341	0
0	198	45.343274047657	1
0	199	46.155565006348	0
0	220	47.481024827657	1
0	225	48.534553095801	2
0	226	49.613381008232	1
0	234	49.882216001122	0
0	240	50.139206223072	1
0	243	50.664588732061	0
0	256	52.361483074413	1
0	257	52.666476558695	0
0	299	59.398361908637	1
0	302	62.817185799236	2
0	303	63.092667701233	1
0	312	64.415130125204	0
0	318	64.606323982225	1
0	319	64.998924871482	0
0	333	66.121380225489	1
0	336	68.303839025136	0
0	349	69.997108031891	1
0	352	70.161744935792	0
0	362	71.0738896795	1
0	365	74.83635624797	0
0	372	75.22282729911	1
0	373	75.22600279344	0
0	388	77.754492716883	1
0	389	77.846503736683	0
0	401	79.448324220245	1
0	411	84.371016954025	2
0	412	84.448402426719	1
0	420	85.674053921856	2
0	422	85.78890266051	3
0	424	86.320879385945	4
0	428	88.450633167617	5
0	429	91.89033199865	4
0	435	92.980103534445	5
0	436	94.092517143729	4
0	441	94.258387254942	3
0	447	94.337230177686	2
0	453	95.001959156718	1
0	458	95.502362185989	0
0	482	97.920260838426	1
0	483	99.575759706209	0
1	0	0	0
2	0	0	0
2	5	4.49280194242	1
2	17	7.122153006227	0
2	37	12.37833043588	1
2	43	14.402836004464	0
2	49	14.674571122156	1
2	55	17.883116985547	2
2	69	21.731573613047	1
2	76	22.481365621366	0
2	147	37.236876940745	1
2	149	38.408384534623	2
2	185	41.355923553615	1
2	190	43.066666499806	0
2	196	43.448480761724	1
2	206	46.610163743703	2
2	208	46.711114384434	3
2	210	46.910995879725	4
2	211	47.17689135294	3
2	216	47.356170824376	2
2	233	49.82538782406	3
2	249	51.207983642844	2
2	263	53.702712528114	1
2	271	54.005875483911	2
2	273	56.174750029492	1
2	278	56.651235463021	0
2	292	58.221290644653	1
2	293	58.819473381595	0
2	309	63.314584294747	1
2	311	63.932217531558	2
2	324	65.315076395159	1
2	331	65.697318197929	2
2	341	68.856380903223	1
2	351	70.136625250113	2
2	358	70.53860452296	1
2	378	76.108809977774	0
2	382	76.431842836432	1
2	384	76.602859928222	2
2	394	78.014026724463	1
2	405	81.897906855128	2
2	407	82.425970073272	3
2	409	82.950379251274	4
2	463	95.52080672858	3
2	468	95.537303253266	2
2	474	95.54678990169	3
3	14	7.057929870225	4.670306356528
3	19	7.122153006227	0.966737218388
3	24	7.799195953155	3.306394010735
3	40	12.746473319963	3.637555720189
3	45	14.402836004464	5.132942314633
3	61	19.997869816394	7.619539380514
3	66	20.168072464944	5.473070982288
3	71	21.731573613047	2.220853459206
3	78	22.481365621366	7.80679449921
3	82	23.334081013822	5.450964028275
3	89	23.357268686633	0.020865426121
3	100	24.141821484227	0.579009790129
3	104	26.703626195863	2.635077463141
3	112	27.991636706673	1.044444041846
3	119	30.054579560083	1.684863170656
3	127	30.642436905618	0.259827376691
3	136	33.602213395444	0.043101472054
3	155	38.820380685587	4.470125298875
3	163	39.408951830379	4.493533726315
3	168	39.59939203214	4.361068603608
3	177	40.834877163827	2.423074495238
3	182	41.340892517341	2.401349212475
3	187	41.355923553615	0.532555505776
3	192	43.066666499806	5.829789559061
3	201	46.155565006348	7.747180471725
3	213	47.17689135294	1.833617305283
3	218	47.356170824376	3.907690062652
3	228	49.613381008232	3.003217264529
3	236	49.882216001122	2.401191173465
3	245	50.664588732061	2.13003563626
3	251	51.207983642844	1.068777419772
3	259	52.666476558695	5.955362174261
3	265	53.702712528114	1.341229453701
3	275	56.174750029492	9.263754149767
3	280	56.651235463021	6.825847638961
3	284	57.051664824532	3.045789340621
3	295	58.819473381595	0.934142892721
3	305	63.092667701233	4.87137705658
3	314	64.415130125204	5.016768216567
3	321	64.998924871482	2.181739072246
3	326	65.315076395159	0.708752412934
3	338	68.303839025136	4.989254730389
3	343	68.856380903223	2.735000677734
3	354	70.161744935792	6.229527404234
3	360	70.53860452296	0.541496491069
3	367	74.83635624797	9.139038050041
3	375	75.22600279344	4.15211311394
3	380	76.108809977774	0.885982678664
3	391	77.846503736683	7.70987848657
3	396	78.014026724463	0.25953400758
3	414	84.448402426719	8.016559590287
3	431	91.89033199865	12.442007778405
3	438	94.092517143729	9.721500189704
3	443	94.258387254942	8.584333333086
3	449	94.337230177686	8.548327517176
3	455	95.001959156718	8.681079770773
3	460	95.502362185989	7.051729018372
3	465	95.52080672858	2.540703194135
3	470	95.537303253266	18.934443325044
3	485	99.575759706209	17.677852851081
4	14	7.057929870225	4.670306356528
4	19	7.122153006227	0.966737218388
4	45	14.402836004464	5.132942314633
4	66	20.168072464944	5.473070982288
4	71	21.731573613047	2.220853459206
4	89	23.357268686633	0.020865426121
4	104	26.703626195863	2.635077463141
4	112	27.991636706673	1.044444041846
4	127	30.642436905618	0.259827376691
4	136	33.602213395444	0.043101472054
4	163	39.408951830379	4.493533726315
4	168	39.59939203214	4.361068603608
4	177	40.834877163827	2.423074495238
4	182	41.340892517341	2.401349212475
4	187	41.355923553615	0.532555505776
4	213	47.17689135294	1.833617305283
4	236	49.882216001122	2.401191173465
4	245	50.664588732061	2.13003563626
4	251	51.207983642844	1.068777419772
4	265	53.702712528114	1.341229453701
4	295	58.819473381595	0.934142892721
4	314	64.415130125204	5.016768216567
4	321	64.998924871482	2.181739072246
4	326	65.315076395159	0.708752412934
4	343	68.856380903223	2.735000677734
4	360	70.53860452296	0.541496491069
4	375	75.22600279344	4.15211311394
4	380	76.108809977774	0.885982678664
4	396	78.014026724463	0.25953400758
4	431	91.89033199865	12.442007778405
4	438	94.092517143729	9.721500189704
4	443	94.258387254942	8.584333333086
4	449	94.337230177686	8.548327517176
4	455	95.001959156718	8.681079770773
4	460	95.502362185989	7.051729018372
4	465	95.52080672858	2.540703194135
5	24	7.799195953155	3.306394010735
5	40	12.746473319963	3.637555720189
5	61	19.997869816394	7.619539380514
5	78	22.481365621366	7.80679449921
5	82	23.334081013822	5.450964028275
5	100	24.141821484227	0.579009790129
5	119	30.054579560083	1.684863170656
5	155	38.820380685587	4.470125298875
5	192	43.066666499806	5.829789559061
5	201	46.155565006348	7.747180471725
5	218	47.356170824376	3.907690062652
5	228	49.613381008232	3.003217264529
5	259	52.666476558695	5.955362174261
5	275	56.174750029492	9.263754149767
5	280	56.651235463021	6.825847638961
5	284	57.051664824532	3.045789340621
5	305	63.092667701233	4.87137705658
5	338	68.303839025136	4.989254730389
5	354	70.161744935792	6.229527404234
5	367	74.83635624797	9.139038050041
5	391	77.846503736683	7.70987848657
5	414	84.448402426719	8.016559590287
5	470	95.537303253266	18.934443325044
5	485	99.575759706209	17.677852851081

