version 2
run Second-n5-7-20191125-12:37:30-3740
attr configname Second-n5
attr datetime 20191125-12:37:30
attr experiment Second-n5
attr inifile omnetpp.ini
attr iterationvars ""
attr iterationvarsf ""
attr measurement ""
attr network org.omnetpp.queueing.Pizza
attr processid 3740
attr repetition 7
attr replication ""
attr resultdir results_no_transient
attr runnumber 7
attr seedset 7
param **.PS.maxInventoriedPS 5
param **.U1.interArrivalTime exponential(3s)
param **.U2.interArrivalTime exponential(5s)
param **.PS.serviceTimeForInventoryU1 exponential(1.0s)
param **.PS.serviceTimeForInventoryU2 exponential(1.2s)
param **.PS.serviceTimeDirectU1 exponential(1.4s)
param **.PS.serviceTimeDirectU2 exponential(1.4s)
param **.PS.probabilityProducing 0.7
param **.CS.serviceTimeU1 exponential(1.1s)
param **.CS.serviceTimeU2 exponential(1.4s)

vector 0 Pizza.EntryQueueU1 queueLength:vector ETV
attr interpolationmode sample-hold
attr title "queue length, vector"
vector 1 Pizza.CS queueLength:vector ETV
attr interpolationmode sample-hold
attr title "queue length, vector"
vector 2 Pizza.EntryQueueU2 queueLength:vector ETV
attr interpolationmode sample-hold
attr title "queue length, vector"
vector 3 Pizza.sink lifeTime:vector ETV
attr interpolationmode none
attr title "lifetime of arrived jobs, vector"
attr unit s
vector 4 Pizza.sink lifeTimeU1:vector ETV
attr interpolationmode none
attr title "lifetime of arrived jobs, vector"
attr unit s
vector 5 Pizza.sink lifeTimeU2:vector ETV
attr interpolationmode none
attr title "lifetime of arrived jobs, vector"
attr unit s
0	0	0	0
0	14	4.779406805032	1
0	18	7.09919964411	2
0	25	8.293738667358	1
0	30	8.735642724385	0
0	39	9.185371518969	1
0	41	10.205017169046	2
0	44	10.71731878631	1
0	52	13.552145425386	2
0	54	13.627788794119	3
0	56	14.25607095439	2
0	61	14.544004970507	1
0	70	17.449857264656	0
0	76	17.795838593344	1
0	80	18.440455724807	2
0	81	18.666101870032	1
0	90	20.464998013627	2
0	94	21.989219658012	1
0	100	22.652540963007	0
0	112	24.856436365824	1
0	114	26.699959986847	2
0	115	27.384366087854	1
0	120	27.970354280638	0
0	126	28.403958846478	1
0	130	29.000964398542	2
0	131	29.705927573377	1
0	137	30.47712538884	0
0	161	33.055123330507	1
0	164	34.08505873735	0
0	179	36.628889980846	1
0	188	41.11764004596	0
0	243	55.752083194683	1
0	245	55.876599285303	2
0	246	57.248995320074	1
0	252	57.275078464533	2
0	253	57.605111425537	1
0	260	58.071238417124	2
0	262	59.357821113086	1
0	267	60.484026658442	0
0	282	63.599695319668	1
0	284	65.439535442758	0
0	298	67.507334401815	1
0	299	67.77496506851	0
0	322	72.181093436837	1
0	323	72.687604843048	0
0	357	84.548861965555	1
0	360	86.213646973251	0
0	366	86.796654792084	1
0	367	87.287944309514	0
0	373	87.456848012467	1
0	375	89.936353253336	0
0	392	91.267529247258	1
0	394	91.376055175792	2
0	396	92.961022014693	1
0	402	93.240694400451	2
0	404	93.378092034757	3
0	405	93.787884485826	2
0	410	94.281582422239	1
0	416	95.39513898348	0
0	437	98.550785786852	1
0	439	98.670057914324	2
1	0	0	0
2	0	0	0
2	7	1.289574873422	1
2	8	2.18990419039	0
2	12	4.329791302035	1
2	16	6.170730166792	2
2	24	7.702478603867	3
2	35	8.810674482697	2
2	50	13.387633074881	3
2	67	14.910647028529	4
2	106	23.830850113955	3
2	128	28.783948391683	4
2	143	30.886627151187	5
2	144	31.291171766266	4
2	149	31.293170823856	3
2	155	32.10367054816	2
2	159	32.386316632967	3
2	169	34.145110036912	2
2	175	35.635934171502	1
2	181	38.156343133219	2
2	185	38.931595302726	3
2	193	41.523793143645	2
2	198	41.664467547514	1
2	203	44.281092731037	0
2	207	44.314381593678	1
2	210	45.036238559819	0
2	235	53.125034365644	1
2	236	53.330803294012	0
2	290	66.355934458562	1
2	291	67.011726947047	0
2	313	69.95750902321	1
2	314	70.345362428351	0
2	355	84.177655145238	1
2	359	85.103890705468	2
2	381	90.134574460275	1
2	386	91.251596127734	0
2	422	95.569602623557	1
2	424	96.213374897322	0
2	441	99.332008765131	1
3	10	2.18990419039	1.951773455984
3	27	8.293738667358	7.004163793936
3	32	8.735642724385	3.956235919353
3	37	8.810674482697	1.711474838587
3	46	10.71731878631	6.387527484275
3	58	14.25607095439	5.070699435421
3	63	14.544004970507	4.338987801461
3	72	17.449857264656	3.89771183927
3	83	18.666101870032	5.038313075913
3	96	21.989219658012	4.193381064668
3	102	22.652540963007	4.2120852382
3	108	23.830850113955	3.365852100328
3	117	27.384366087854	21.213635921062
3	122	27.970354280638	3.113917914814
3	133	29.705927573377	3.00596758653
3	139	30.47712538884	2.073166542362
3	146	31.291171766266	2.290207367724
3	151	31.293170823856	23.590692219989
3	157	32.10367054816	18.716037473279
3	166	34.08505873735	19.174411708821
3	171	34.145110036912	1.089986706405
3	177	35.635934171502	6.851985779819
3	190	41.11764004596	10.231012894773
3	195	41.523793143645	4.894903162799
3	200	41.664467547514	9.278150914547
3	205	44.281092731037	6.124749597818
3	212	45.036238559819	6.104643257093
3	216	45.998118660809	1.683737067131
3	224	47.337495762619	0.653868427279
3	238	53.330803294012	3.280790957012
3	248	57.248995320074	4.12396095443
3	255	57.605111425537	1.853028230854
3	264	59.357821113086	3.481221827783
3	269	60.484026658442	3.208948193909
3	273	60.969919097766	2.898680680642
3	286	65.439535442758	1.874102938105
3	293	67.011726947047	3.412031627379
3	301	67.77496506851	1.419030609948
3	306	68.038330997189	0.530996595374
3	316	70.345362428351	0.971995393751
3	325	72.687604843048	2.730095819838
3	329	72.966679350165	0.785585913328
3	336	74.162250870811	0.204331511133
3	346	76.589621090888	0.274125277937
3	362	86.213646973251	4.063930577385
3	369	87.287944309514	2.739082343959
3	377	89.936353253336	3.139698461252
3	383	90.134574460275	2.677726447808
3	388	91.251596127734	7.073940982496
3	398	92.961022014693	7.857131309225
3	407	93.787884485826	2.520355238568
3	412	94.281582422239	2.905527246447
3	418	95.39513898348	2.154444583029
3	426	96.213374897322	2.835282862565
3	430	96.415715940856	0.846113317299
4	10	2.18990419039	1.951773455984
4	32	8.735642724385	3.956235919353
4	37	8.810674482697	1.711474838587
4	58	14.25607095439	5.070699435421
4	63	14.544004970507	4.338987801461
4	72	17.449857264656	3.89771183927
4	83	18.666101870032	5.038313075913
4	96	21.989219658012	4.193381064668
4	102	22.652540963007	4.2120852382
4	108	23.830850113955	3.365852100328
4	122	27.970354280638	3.113917914814
4	133	29.705927573377	3.00596758653
4	139	30.47712538884	2.073166542362
4	146	31.291171766266	2.290207367724
4	171	34.145110036912	1.089986706405
4	195	41.523793143645	4.894903162799
4	224	47.337495762619	0.653868427279
4	255	57.605111425537	1.853028230854
4	264	59.357821113086	3.481221827783
4	269	60.484026658442	3.208948193909
4	273	60.969919097766	2.898680680642
4	293	67.011726947047	3.412031627379
4	306	68.038330997189	0.530996595374
4	316	70.345362428351	0.971995393751
4	329	72.966679350165	0.785585913328
4	336	74.162250870811	0.204331511133
4	346	76.589621090888	0.274125277937
4	362	86.213646973251	4.063930577385
4	369	87.287944309514	2.739082343959
4	377	89.936353253336	3.139698461252
4	383	90.134574460275	2.677726447808
4	407	93.787884485826	2.520355238568
4	412	94.281582422239	2.905527246447
4	418	95.39513898348	2.154444583029
4	426	96.213374897322	2.835282862565
5	27	8.293738667358	7.004163793936
5	46	10.71731878631	6.387527484275
5	117	27.384366087854	21.213635921062
5	151	31.293170823856	23.590692219989
5	157	32.10367054816	18.716037473279
5	166	34.08505873735	19.174411708821
5	177	35.635934171502	6.851985779819
5	190	41.11764004596	10.231012894773
5	200	41.664467547514	9.278150914547
5	205	44.281092731037	6.124749597818
5	212	45.036238559819	6.104643257093
5	216	45.998118660809	1.683737067131
5	238	53.330803294012	3.280790957012
5	248	57.248995320074	4.12396095443
5	286	65.439535442758	1.874102938105
5	301	67.77496506851	1.419030609948
5	325	72.687604843048	2.730095819838
5	388	91.251596127734	7.073940982496
5	398	92.961022014693	7.857131309225
5	430	96.415715940856	0.846113317299

