version 2
run Second-n2-2-20191125-12:36:56-4964
attr configname Second-n2
attr datetime 20191125-12:36:56
attr experiment Second-n2
attr inifile omnetpp.ini
attr iterationvars ""
attr iterationvarsf ""
attr measurement ""
attr network org.omnetpp.queueing.Pizza
attr processid 4964
attr repetition 2
attr replication ""
attr resultdir results_no_transient
attr runnumber 2
attr seedset 2
param **.PS.maxInventoriedPS 2
param **.U1.interArrivalTime exponential(3s)
param **.U2.interArrivalTime exponential(5s)
param **.PS.serviceTimeForInventoryU1 exponential(1.0s)
param **.PS.serviceTimeForInventoryU2 exponential(1.2s)
param **.PS.serviceTimeDirectU1 exponential(1.4s)
param **.PS.serviceTimeDirectU2 exponential(1.4s)
param **.PS.probabilityProducing 0.7
param **.CS.serviceTimeU1 exponential(1.1s)
param **.CS.serviceTimeU2 exponential(1.4s)

vector 0 Pizza.EntryQueueU1 queueLength:vector ETV
attr interpolationmode sample-hold
attr title "queue length, vector"
vector 1 Pizza.CS queueLength:vector ETV
attr interpolationmode sample-hold
attr title "queue length, vector"
vector 2 Pizza.EntryQueueU2 queueLength:vector ETV
attr interpolationmode sample-hold
attr title "queue length, vector"
vector 3 Pizza.sink lifeTime:vector ETV
attr interpolationmode none
attr title "lifetime of arrived jobs, vector"
attr unit s
vector 4 Pizza.sink lifeTimeU2:vector ETV
attr interpolationmode none
attr title "lifetime of arrived jobs, vector"
attr unit s
vector 5 Pizza.sink lifeTimeU1:vector ETV
attr interpolationmode none
attr title "lifetime of arrived jobs, vector"
attr unit s
0	0	0	0
0	7	1.718075968882	1
0	13	5.540971110126	0
0	38	10.572109086914	1
0	41	11.469341677053	2
0	44	12.338075893448	1
0	49	12.429371851505	0
0	68	13.922410977845	1
0	70	14.431988715574	0
0	76	14.691007718191	1
0	81	15.379211545418	0
0	89	15.982554813814	1
0	90	16.105043778541	0
0	96	18.093582354327	1
0	99	19.36397459778	0
0	148	41.803652574952	1
0	151	42.70057259335	0
0	213	68.250404589931	1
0	215	69.654989136039	0
0	253	83.362558696773	1
0	254	83.837933701524	0
0	267	86.123582349768	1
0	270	86.251671433843	2
0	272	89.375178882221	1
0	277	89.661803278209	0
0	299	95.750925176386	1
0	301	97.391000596943	2
0	302	98.392434048705	1
0	307	98.516393188406	0
1	0	0	0
2	0	0	0
2	5	1.154680605615	1
2	11	5.143470225116	2
2	18	6.603205211783	1
2	24	7.075728570225	2
2	25	7.216616805748	1
2	32	10.183927683578	0
2	43	12.084123848813	1
2	54	12.81703880589	0
2	78	14.699524474949	1
2	87	15.618076966186	2
2	106	21.467662648418	1
2	112	23.495427570238	2
2	113	24.551752475253	1
2	118	25.082031614965	0
2	246	82.103786022901	1
2	247	83.095097620524	0
3	15	5.540971110126	4.517631688744
3	20	6.603205211783	4.885129242901
3	27	7.216616805748	6.061936200133
3	34	10.183927683578	5.040457458462
3	46	12.338075893448	5.262347323223
3	51	12.429371851505	1.857262764591
3	56	12.81703880589	1.347697128837
3	60	13.084483814139	1.000359965326
3	72	14.431988715574	0.917586688609
3	83	15.379211545418	1.456800567573
3	92	16.105043778541	1.41403606035
3	101	19.36397459778	3.381419783966
3	108	21.467662648418	3.374080294091
3	115	24.551752475253	9.852228000304
3	120	25.082031614965	9.463954648779
3	124	27.035274232419	3.539846662181
3	132	33.824710952473	1.648469595744
3	139	38.905969449947	1.760528108068
3	153	42.70057259335	3.254077183402
3	157	42.777027901622	0.97337532667
3	165	47.246370296285	3.878700388672
3	172	49.787755543339	1.289181429065
3	181	56.511973609959	4.517449990858
3	190	59.127689415497	0.485129042676
3	198	60.254601751366	1.020083215551
3	205	60.638892004306	0.330836244039
3	217	69.654989136039	2.872216719967
3	221	69.669402222714	1.418997632783
3	230	72.748730429167	0.494405949134
3	238	78.237800729896	1.193837986583
3	249	83.095097620524	3.442534527956
3	256	83.837933701524	1.734147678623
3	260	84.298191321621	0.935632624848
3	274	89.375178882221	3.610570637393
3	279	89.661803278209	3.538220928441
3	283	90.797421970191	4.545750536348
3	290	91.119538439136	0.261666441979
3	304	98.392434048705	3.046034942993
3	309	98.516393188406	2.76546801202
3	313	98.790882996544	1.399882399601
4	15	5.540971110126	4.517631688744
4	27	7.216616805748	6.061936200133
4	34	10.183927683578	5.040457458462
4	46	12.338075893448	5.262347323223
4	60	13.084483814139	1.000359965326
4	115	24.551752475253	9.852228000304
4	120	25.082031614965	9.463954648779
4	124	27.035274232419	3.539846662181
4	172	49.787755543339	1.289181429065
4	181	56.511973609959	4.517449990858
4	198	60.254601751366	1.020083215551
4	249	83.095097620524	3.442534527956
4	256	83.837933701524	1.734147678623
4	290	91.119538439136	0.261666441979
4	304	98.392434048705	3.046034942993
5	20	6.603205211783	4.885129242901
5	51	12.429371851505	1.857262764591
5	56	12.81703880589	1.347697128837
5	72	14.431988715574	0.917586688609
5	83	15.379211545418	1.456800567573
5	92	16.105043778541	1.41403606035
5	101	19.36397459778	3.381419783966
5	108	21.467662648418	3.374080294091
5	132	33.824710952473	1.648469595744
5	139	38.905969449947	1.760528108068
5	153	42.70057259335	3.254077183402
5	157	42.777027901622	0.97337532667
5	165	47.246370296285	3.878700388672
5	190	59.127689415497	0.485129042676
5	205	60.638892004306	0.330836244039
5	217	69.654989136039	2.872216719967
5	221	69.669402222714	1.418997632783
5	230	72.748730429167	0.494405949134
5	238	78.237800729896	1.193837986583
5	260	84.298191321621	0.935632624848
5	274	89.375178882221	3.610570637393
5	279	89.661803278209	3.538220928441
5	283	90.797421970191	4.545750536348
5	309	98.516393188406	2.76546801202
5	313	98.790882996544	1.399882399601

