version 2
run Second-n2-9-20191125-12:37:05-11252
attr configname Second-n2
attr datetime 20191125-12:37:05
attr experiment Second-n2
attr inifile omnetpp.ini
attr iterationvars ""
attr iterationvarsf ""
attr measurement ""
attr network org.omnetpp.queueing.Pizza
attr processid 11252
attr repetition 9
attr replication ""
attr resultdir results_no_transient
attr runnumber 9
attr seedset 9
param **.PS.maxInventoriedPS 2
param **.U1.interArrivalTime exponential(3s)
param **.U2.interArrivalTime exponential(5s)
param **.PS.serviceTimeForInventoryU1 exponential(1.0s)
param **.PS.serviceTimeForInventoryU2 exponential(1.2s)
param **.PS.serviceTimeDirectU1 exponential(1.4s)
param **.PS.serviceTimeDirectU2 exponential(1.4s)
param **.PS.probabilityProducing 0.7
param **.CS.serviceTimeU1 exponential(1.1s)
param **.CS.serviceTimeU2 exponential(1.4s)

vector 0 Pizza.EntryQueueU1 queueLength:vector ETV
attr interpolationmode sample-hold
attr title "queue length, vector"
vector 1 Pizza.CS queueLength:vector ETV
attr interpolationmode sample-hold
attr title "queue length, vector"
vector 2 Pizza.EntryQueueU2 queueLength:vector ETV
attr interpolationmode sample-hold
attr title "queue length, vector"
vector 3 Pizza.sink lifeTime:vector ETV
attr interpolationmode none
attr title "lifetime of arrived jobs, vector"
attr unit s
vector 4 Pizza.sink lifeTimeU1:vector ETV
attr interpolationmode none
attr title "lifetime of arrived jobs, vector"
attr unit s
vector 5 Pizza.sink lifeTimeU2:vector ETV
attr interpolationmode none
attr title "lifetime of arrived jobs, vector"
attr unit s
0	0	0	0
0	23	2.861840918845	1
0	25	3.087072314741	0
0	36	4.90937977838	1
0	38	5.02793697888	2
0	41	6.740179602571	1
0	46	6.90098924945	0
0	64	18.406373776418	1
0	65	18.44942417583	0
0	84	23.291315180788	1
0	85	23.900289308085	0
0	96	26.436845281121	1
0	97	26.752865371641	0
0	117	32.637033427462	1
0	120	34.025578450136	0
0	127	34.349231314053	1
0	128	34.654682907926	0
0	188	50.469086621813	1
0	191	51.050619354849	0
0	208	55.000733513723	1
0	211	56.272871065314	0
0	222	56.60581351276	1
0	226	58.422234675542	0
0	232	58.794917399309	1
0	234	58.819452587175	2
0	235	59.172307151004	1
0	242	60.11265604425	0
0	249	60.506055731572	1
0	252	62.947089956126	2
0	255	64.202452552117	1
0	261	65.126348368397	0
0	290	72.832059622086	1
0	291	72.87801874287	0
0	315	75.524178079093	1
0	316	76.240537132319	0
0	326	77.893646232343	1
0	330	79.290648372103	0
0	354	82.853974802309	1
0	358	84.309433529206	0
0	379	88.119497416476	1
0	380	88.201723899388	0
0	384	89.163915725434	1
0	386	89.719062156661	2
0	389	90.431929476566	1
0	397	93.344711040755	2
0	401	94.343692858261	3
0	402	95.610695487227	2
0	407	97.0977060988	1
1	0	0	0
2	0	0	0
2	16	2.26640931194	1
2	17	2.2847416343	0
2	71	18.768182610907	1
2	73	19.319813165513	2
2	75	20.249270349993	3
2	77	20.662462373157	4
2	78	22.954915056826	3
2	91	24.343620138783	4
2	102	29.357021504491	3
2	107	30.572389945522	2
2	113	31.444244749951	1
2	133	35.934761777864	0
2	179	47.988041411009	1
2	180	48.756902272066	0
2	184	50.174727966748	1
2	186	50.351735267205	2
2	198	51.903244355068	3
2	200	53.619993204667	2
2	204	54.002118641672	3
2	210	55.229560304572	4
2	216	56.541449878796	3
2	224	57.156073609756	4
2	241	59.844648785742	5
2	254	63.906740908129	6
2	266	65.979515459536	5
2	272	66.442219311026	4
2	279	68.678423704897	5
2	281	68.830071016364	6
2	282	69.729989751356	5
2	288	72.29688621499	6
2	298	73.212618654659	5
2	304	74.232787379705	4
2	309	74.399940856158	3
2	322	77.812127923173	2
2	335	79.337467804731	1
2	340	79.739857938182	0
2	344	80.131610328965	1
2	348	82.09808872572	0
2	356	83.816973001827	1
2	365	85.760200511493	0
2	393	90.894208100169	1
2	395	91.26105714636	2
2	411	97.566403089821	3
3	8	1.15729912632	1.126014091859
3	19	2.2847416343	0.162746348173
3	27	3.087072314741	0.820663002801
3	31	3.602231932286	0.740391013441
3	43	6.740179602571	3.048002774506
3	48	6.90098924945	1.99160947107
3	52	9.32587586036	4.29793888148
3	67	18.44942417583	3.10440827587
3	80	22.954915056826	4.548541280408
3	87	23.900289308085	5.132106697178
3	99	26.752865371641	3.461550190853
3	104	29.357021504491	2.92017622337
3	109	30.572389945522	11.252576780009
3	115	31.444244749951	11.194974399958
3	122	34.025578450136	13.363116076979
3	130	34.654682907926	2.017649480464
3	135	35.934761777864	1.585530463811
3	142	40.263287952561	15.919667813778
3	149	42.886505921558	0.867068871185
3	156	45.94239495979	0.043267924339
3	164	47.098399867265	0.21489445501
3	171	47.202465937242	0.101727774449
3	182	48.756902272066	1.316101322218
3	193	51.050619354849	3.06257794384
3	202	53.619993204667	3.150906582854
3	213	56.272871065314	6.098143098566
3	218	56.541449878796	1.540716365073
3	228	58.422234675542	8.070499408337
3	237	59.172307151004	2.566493638244
3	244	60.11265604425	1.317738644941
3	257	64.202452552117	5.382999964942
3	263	65.126348368397	4.620292636825
3	268	65.979515459536	3.03242550341
3	274	66.442219311026	14.538974955958
3	284	69.729989751356	15.727871109684
3	293	72.87801874287	17.648458438298
3	300	73.212618654659	0.380559032573
3	306	74.232787379705	17.076713769949
3	311	74.399940856158	14.555292070416
3	318	76.240537132319	12.33379622419
3	324	77.812127923173	2.28794984408
3	332	79.290648372103	10.612224667206
3	337	79.337467804731	1.443821572388
3	342	79.739857938182	10.909786921818
3	350	82.09808872572	9.80120251073
3	360	84.309433529206	4.177823200241
3	367	85.760200511493	2.906225709184
3	372	86.910164030999	3.093191029172
3	382	88.201723899388	0.455218483436
3	391	90.431929476566	2.31243206009
3	404	95.610695487227	6.446779761793
3	409	97.0977060988	7.378643942139
4	8	1.15729912632	1.126014091859
4	19	2.2847416343	0.162746348173
4	31	3.602231932286	0.740391013441
4	48	6.90098924945	1.99160947107
4	52	9.32587586036	4.29793888148
4	67	18.44942417583	3.10440827587
4	80	22.954915056826	4.548541280408
4	99	26.752865371641	3.461550190853
4	104	29.357021504491	2.92017622337
4	130	34.654682907926	2.017649480464
4	135	35.934761777864	1.585530463811
4	156	45.94239495979	0.043267924339
4	164	47.098399867265	0.21489445501
4	182	48.756902272066	1.316101322218
4	202	53.619993204667	3.150906582854
4	218	56.541449878796	1.540716365073
4	237	59.172307151004	2.566493638244
4	244	60.11265604425	1.317738644941
4	257	64.202452552117	5.382999964942
4	263	65.126348368397	4.620292636825
4	268	65.979515459536	3.03242550341
4	300	73.212618654659	0.380559032573
4	324	77.812127923173	2.28794984408
4	337	79.337467804731	1.443821572388
4	367	85.760200511493	2.906225709184
4	382	88.201723899388	0.455218483436
4	391	90.431929476566	2.31243206009
4	404	95.610695487227	6.446779761793
4	409	97.0977060988	7.378643942139
5	27	3.087072314741	0.820663002801
5	43	6.740179602571	3.048002774506
5	87	23.900289308085	5.132106697178
5	109	30.572389945522	11.252576780009
5	115	31.444244749951	11.194974399958
5	122	34.025578450136	13.363116076979
5	142	40.263287952561	15.919667813778
5	149	42.886505921558	0.867068871185
5	171	47.202465937242	0.101727774449
5	193	51.050619354849	3.06257794384
5	213	56.272871065314	6.098143098566
5	228	58.422234675542	8.070499408337
5	274	66.442219311026	14.538974955958
5	284	69.729989751356	15.727871109684
5	293	72.87801874287	17.648458438298
5	306	74.232787379705	17.076713769949
5	311	74.399940856158	14.555292070416
5	318	76.240537132319	12.33379622419
5	332	79.290648372103	10.612224667206
5	342	79.739857938182	10.909786921818
5	350	82.09808872572	9.80120251073
5	360	84.309433529206	4.177823200241
5	372	86.910164030999	3.093191029172

