version 2
run Second-n3-4-20191125-12:37:05-1732
attr configname Second-n3
attr datetime 20191125-12:37:05
attr experiment Second-n3
attr inifile omnetpp.ini
attr iterationvars ""
attr iterationvarsf ""
attr measurement ""
attr network org.omnetpp.queueing.Pizza
attr processid 1732
attr repetition 4
attr replication ""
attr resultdir results_no_transient
attr runnumber 4
attr seedset 4
param **.PS.maxInventoriedPS 3
param **.U1.interArrivalTime exponential(3s)
param **.U2.interArrivalTime exponential(5s)
param **.PS.serviceTimeForInventoryU1 exponential(1.0s)
param **.PS.serviceTimeForInventoryU2 exponential(1.2s)
param **.PS.serviceTimeDirectU1 exponential(1.4s)
param **.PS.serviceTimeDirectU2 exponential(1.4s)
param **.PS.probabilityProducing 0.7
param **.CS.serviceTimeU1 exponential(1.1s)
param **.CS.serviceTimeU2 exponential(1.4s)

vector 0 Pizza.EntryQueueU1 queueLength:vector ETV
attr interpolationmode sample-hold
attr title "queue length, vector"
vector 1 Pizza.CS queueLength:vector ETV
attr interpolationmode sample-hold
attr title "queue length, vector"
vector 2 Pizza.EntryQueueU2 queueLength:vector ETV
attr interpolationmode sample-hold
attr title "queue length, vector"
vector 3 Pizza.sink lifeTime:vector ETV
attr interpolationmode none
attr title "lifetime of arrived jobs, vector"
attr unit s
vector 4 Pizza.sink lifeTimeU1:vector ETV
attr interpolationmode none
attr title "lifetime of arrived jobs, vector"
attr unit s
vector 5 Pizza.sink lifeTimeU2:vector ETV
attr interpolationmode none
attr title "lifetime of arrived jobs, vector"
attr unit s
0	0	0	0
0	12	12.613584913432	1
0	20	15.344184413521	2
0	27	18.794641994562	1
0	35	19.878164744247	2
0	39	22.607107852243	3
0	41	22.634187991139	4
0	42	23.302874458529	3
0	47	23.352555738562	2
0	52	25.185526343238	1
0	59	25.478502493514	2
0	63	28.458559605061	1
0	68	28.671317600111	0
0	97	34.179978498327	1
0	99	34.777968793954	2
0	101	35.015323665884	1
0	107	36.169515671948	0
0	117	37.823073750286	1
0	119	38.271189315404	2
0	121	38.8627904835	3
0	126	40.264608649205	2
0	131	40.753406206972	1
0	138	41.443918285699	2
0	140	41.589616163103	3
0	143	41.643414930367	2
0	150	42.759792001446	1
0	156	44.032548869296	0
0	170	48.365354136049	1
0	171	49.27211574764	0
0	177	49.782186231824	1
0	179	51.326031923685	0
0	199	54.048784565261	1
0	201	54.366134470223	2
0	207	56.224194233857	1
0	214	57.141852752933	2
0	215	57.209990540751	1
0	220	57.234031924305	0
0	231	58.497874059033	1
0	238	59.868906295392	0
0	244	60.666551893642	1
0	245	61.155945462798	0
0	251	62.808093550668	1
0	255	63.616251626936	2
0	256	63.836797482933	1
0	265	64.945939069843	0
0	277	65.586465625186	1
0	279	66.298376588592	0
0	296	66.97784417162	1
0	297	67.021437306875	0
0	360	85.114540143633	1
0	361	85.345489835868	0
0	373	88.409402751351	1
0	375	90.325198281987	2
0	376	90.579723393578	1
0	382	91.324264864333	0
0	390	94.234031112698	1
0	391	94.346201064956	0
1	0	0	0
2	0	0	0
2	7	11.5440951532	1
2	8	11.881954837231	0
2	22	16.239788987758	1
2	24	16.265651508972	2
2	26	17.366921856754	3
2	37	21.614248633139	4
2	74	29.969425783578	5
2	75	30.125442223401	4
2	80	31.176258623434	3
2	85	33.700972169972	2
2	90	33.861280529378	1
2	113	37.245253043377	0
2	123	39.243820569783	1
2	142	41.598446983475	2
2	163	45.982919170284	1
2	184	51.423339529066	0
2	203	54.852543980383	1
2	206	55.184586000432	2
2	225	57.361994348811	1
2	234	59.068042357914	2
2	237	59.758237664242	3
2	253	63.102829438008	4
2	260	63.907940517901	5
2	271	65.49469171935	4
2	285	66.895746013337	3
2	290	66.899849254246	2
2	303	68.270305346269	1
2	308	68.275805391886	0
2	333	77.494817499315	1
2	335	77.547224551881	2
2	336	77.899451275083	1
2	341	77.952032636256	0
2	358	84.535420912712	1
2	367	86.394937235688	0
2	404	95.885616204549	1
2	406	97.217116333702	0
3	10	11.881954837231	1.645497879678
3	29	18.794641994562	7.250546841362
3	44	23.302874458529	10.689289545097
3	49	23.352555738562	8.008371325041
3	54	25.185526343238	5.307361598991
3	65	28.458559605061	5.851451752818
3	70	28.671317600111	6.037129608972
3	77	30.125442223401	4.646939729887
3	82	31.176258623434	14.936469635676
3	87	33.700972169972	17.435320661
3	92	33.861280529378	16.494358672624
3	103	35.015323665884	13.401075032745
3	109	36.169515671948	1.989537173621
3	115	37.245253043377	2.467284249423
3	128	40.264608649205	10.295182865627
3	133	40.753406206972	2.930332456686
3	145	41.643414930367	3.372225614963
3	152	42.759792001446	3.897001517946
3	158	44.032548869296	2.588630583597
3	165	45.982919170284	4.393303007181
3	173	49.27211574764	10.028295177857
3	181	51.326031923685	2.960677787636
3	186	51.423339529066	1.641153297242
3	190	51.487284865697	9.888837882222
3	209	56.224194233857	2.475527356417
3	217	57.209990540751	3.16120597549
3	222	57.234031924305	2.867897454082
3	227	57.361994348811	0.220141595878
3	240	59.868906295392	5.016362315009
3	247	61.155945462798	2.658071403765
3	258	63.836797482933	3.170245589291
3	267	64.945939069843	2.137845519175
3	273	65.49469171935	1.878440092414
3	281	66.298376588592	11.11379058816
3	287	66.895746013337	1.309280388151
3	292	66.899849254246	7.831806896332
3	299	67.021437306875	7.263199642633
3	305	68.270305346269	1.292461174649
3	310	68.275805391886	5.172975953878
3	314	68.580836566727	4.672896048826
3	325	75.488101043304	0.209983343807
3	338	77.899451275083	0.87696592864
3	343	77.952032636256	0.457215136941
3	347	78.009316320513	0.462091768632
3	363	85.345489835868	2.58207174195
3	369	86.394937235688	1.280397092055
3	378	90.579723393578	6.044302480866
3	384	91.324264864333	2.914862112982
3	393	94.346201064956	4.021002782969
3	397	94.827100261463	0.593069148765
3	408	97.217116333702	1.402039867663
3	413	97.954832923075	2.069216718526
3	420	98.074828980596	0.084156281931
4	10	11.881954837231	1.645497879678
4	44	23.302874458529	10.689289545097
4	49	23.352555738562	8.008371325041
4	54	25.185526343238	5.307361598991
4	65	28.458559605061	5.851451752818
4	70	28.671317600111	6.037129608972
4	77	30.125442223401	4.646939729887
4	109	36.169515671948	1.989537173621
4	115	37.245253043377	2.467284249423
4	133	40.753406206972	2.930332456686
4	145	41.643414930367	3.372225614963
4	152	42.759792001446	3.897001517946
4	158	44.032548869296	2.588630583597
4	165	45.982919170284	4.393303007181
4	181	51.326031923685	2.960677787636
4	186	51.423339529066	1.641153297242
4	209	56.224194233857	2.475527356417
4	217	57.209990540751	3.16120597549
4	222	57.234031924305	2.867897454082
4	227	57.361994348811	0.220141595878
4	247	61.155945462798	2.658071403765
4	258	63.836797482933	3.170245589291
4	267	64.945939069843	2.137845519175
4	273	65.49469171935	1.878440092414
4	287	66.895746013337	1.309280388151
4	305	68.270305346269	1.292461174649
4	325	75.488101043304	0.209983343807
4	363	85.345489835868	2.58207174195
4	369	86.394937235688	1.280397092055
4	384	91.324264864333	2.914862112982
4	393	94.346201064956	4.021002782969
4	397	94.827100261463	0.593069148765
4	408	97.217116333702	1.402039867663
4	420	98.074828980596	0.084156281931
5	29	18.794641994562	7.250546841362
5	82	31.176258623434	14.936469635676
5	87	33.700972169972	17.435320661
5	92	33.861280529378	16.494358672624
5	103	35.015323665884	13.401075032745
5	128	40.264608649205	10.295182865627
5	173	49.27211574764	10.028295177857
5	190	51.487284865697	9.888837882222
5	240	59.868906295392	5.016362315009
5	281	66.298376588592	11.11379058816
5	292	66.899849254246	7.831806896332
5	299	67.021437306875	7.263199642633
5	310	68.275805391886	5.172975953878
5	314	68.580836566727	4.672896048826
5	338	77.899451275083	0.87696592864
5	343	77.952032636256	0.457215136941
5	347	78.009316320513	0.462091768632
5	378	90.579723393578	6.044302480866
5	413	97.954832923075	2.069216718526

