version 2
run Second-n2-18-20191125-12:37:18-9236
attr configname Second-n2
attr datetime 20191125-12:37:18
attr experiment Second-n2
attr inifile omnetpp.ini
attr iterationvars ""
attr iterationvarsf ""
attr measurement ""
attr network org.omnetpp.queueing.Pizza
attr processid 9236
attr repetition 18
attr replication ""
attr resultdir results_no_transient
attr runnumber 18
attr seedset 18
param **.PS.maxInventoriedPS 2
param **.U1.interArrivalTime exponential(3s)
param **.U2.interArrivalTime exponential(5s)
param **.PS.serviceTimeForInventoryU1 exponential(1.0s)
param **.PS.serviceTimeForInventoryU2 exponential(1.2s)
param **.PS.serviceTimeDirectU1 exponential(1.4s)
param **.PS.serviceTimeDirectU2 exponential(1.4s)
param **.PS.probabilityProducing 0.7
param **.CS.serviceTimeU1 exponential(1.1s)
param **.CS.serviceTimeU2 exponential(1.4s)

vector 0 Pizza.EntryQueueU1 queueLength:vector ETV
attr interpolationmode sample-hold
attr title "queue length, vector"
vector 1 Pizza.CS queueLength:vector ETV
attr interpolationmode sample-hold
attr title "queue length, vector"
vector 2 Pizza.EntryQueueU2 queueLength:vector ETV
attr interpolationmode sample-hold
attr title "queue length, vector"
vector 3 Pizza.sink lifeTime:vector ETV
attr interpolationmode none
attr title "lifetime of arrived jobs, vector"
attr unit s
vector 4 Pizza.sink lifeTimeU2:vector ETV
attr interpolationmode none
attr title "lifetime of arrived jobs, vector"
attr unit s
vector 5 Pizza.sink lifeTimeU1:vector ETV
attr interpolationmode none
attr title "lifetime of arrived jobs, vector"
attr unit s
0	0	0	0
0	13	3.837040156412	1
0	15	3.871760488338	2
0	20	5.420969847661	1
0	28	7.162516673358	2
0	31	8.963422107919	1
0	35	10.192006838088	2
0	38	10.959047461217	1
0	45	12.89859860685	2
0	46	13.649753956257	1
0	52	14.82738764571	0
0	64	15.818306844759	1
0	66	16.478082862819	2
0	68	17.400586069353	3
0	69	17.507689119492	2
0	74	19.489603358491	1
0	82	21.597352341496	0
0	101	26.355277481156	1
0	102	26.406581148549	0
0	119	35.055901450747	1
0	122	35.368617335424	0
0	157	40.108578606386	1
0	159	40.279690711686	2
0	161	40.312924183022	3
0	163	44.512544460194	4
0	164	46.185594241416	3
0	170	47.806357925033	2
0	176	48.246924036232	1
0	181	48.860568217023	0
0	187	49.122539608445	1
0	190	49.559698148602	2
0	194	52.899555177373	3
0	197	53.706279683122	2
0	203	53.806836883428	3
0	205	53.853246123441	4
0	208	54.984448526741	3
0	213	55.255340487202	2
0	218	55.966111829493	1
0	222	57.086636037328	2
0	226	57.523912012713	3
0	230	58.708216165136	4
0	231	59.119830273023	3
0	238	59.934651419326	2
0	243	61.227635409248	1
0	249	63.475441595726	2
0	250	64.534050370177	1
0	257	65.360327558588	0
0	272	67.567644365154	1
0	274	67.713655928078	2
0	275	69.392454698721	1
0	280	69.633035234491	0
0	301	75.596212805299	1
0	302	75.81772945808	0
0	334	85.623749209258	1
0	337	86.826595109689	0
0	350	87.995572847604	1
0	353	90.11722074262	0
1	0	0	0
2	0	0	0
2	17	3.915843542956	1
2	24	6.699244472579	2
2	26	6.84281575701	3
2	58	15.637022807143	2
2	88	23.532932142424	1
2	93	24.16036791411	0
2	99	26.161953829631	1
2	108	27.244629994158	0
2	145	38.366381801588	1
2	148	39.596600103921	2
2	150	39.777951048298	3
2	151	39.934281153629	2
2	196	53.414496066586	3
2	237	59.30518430726	4
2	256	64.667544634124	5
2	262	65.936076862108	4
2	270	67.049070039215	5
2	286	69.698340677333	6
2	288	70.395323695309	5
2	293	71.591319145371	4
2	308	76.554679592538	3
2	314	78.670880726789	4
2	315	78.859736186499	3
2	320	81.338197138352	2
2	325	83.174530060419	1
2	330	85.582374844847	0
2	364	93.565256829124	1
2	367	95.757639593046	0
3	7	1.469680944072	1.074406638259
3	22	5.420969847661	2.268293956501
3	33	8.963422107919	5.126381951507
3	40	10.959047461217	7.087286972879
3	48	13.649753956257	6.487237282899
3	54	14.82738764571	4.635380807622
3	60	15.637022807143	2.738424200293
3	71	17.507689119492	13.591845576536
3	76	19.489603358491	3.671296513732
3	84	21.597352341496	5.119269478677
3	90	23.532932142424	6.132346073071
3	95	24.16036791411	17.461123441531
3	104	26.406581148549	19.563765391539
3	110	27.244629994158	0.889352513002
3	114	29.421668567226	3.259714737595
3	124	35.368617335424	2.943355753803
3	129	36.13040951979	1.074508069043
3	138	37.483716737121	0.132859506754
3	153	39.934281153629	1.816421200212
3	166	46.185594241416	7.819212439828
3	172	47.806357925033	7.697779318647
3	178	48.246924036232	7.967233324546
3	183	48.860568217023	8.547644034001
3	199	53.706279683122	9.193735222928
3	210	54.984448526741	5.861908918296
3	215	55.255340487202	5.6956423386
3	220	55.966111829493	3.06655665212
3	233	59.119830273023	5.312993389595
3	240	59.934651419326	6.081405295885
3	245	61.227635409248	4.14099937192
3	252	64.534050370177	7.010138357464
3	259	65.360327558588	6.652111393452
3	264	65.936076862108	2.460635266382
3	277	69.392454698721	29.7958545948
3	282	69.633035234491	2.065390869337
3	290	70.395323695309	2.681667767231
3	295	71.591319145371	31.813368097073
3	304	75.81772945808	22.403233391494
3	310	76.554679592538	0.958466787239
3	317	78.859736186499	19.554551879239
3	322	81.338197138352	16.670652504228
3	327	83.174530060419	16.125460021204
3	332	85.582374844847	15.884034167514
3	339	86.826595109689	8.1557143829
3	343	87.675768052851	2.052018843593
3	355	90.11722074262	2.15680044769
3	359	90.137384896291	2.141812048687
3	369	95.757639593046	4.513257584099
3	373	96.400066689241	2.834809860117
4	7	1.469680944072	1.074406638259
4	71	17.507689119492	13.591845576536
4	95	24.16036791411	17.461123441531
4	104	26.406581148549	19.563765391539
4	114	29.421668567226	3.259714737595
4	124	35.368617335424	2.943355753803
4	166	46.185594241416	7.819212439828
4	277	69.392454698721	29.7958545948
4	295	71.591319145371	31.813368097073
4	304	75.81772945808	22.403233391494
4	317	78.859736186499	19.554551879239
4	322	81.338197138352	16.670652504228
4	327	83.174530060419	16.125460021204
4	332	85.582374844847	15.884034167514
4	339	86.826595109689	8.1557143829
4	369	95.757639593046	4.513257584099
4	373	96.400066689241	2.834809860117
5	22	5.420969847661	2.268293956501
5	33	8.963422107919	5.126381951507
5	40	10.959047461217	7.087286972879
5	48	13.649753956257	6.487237282899
5	54	14.82738764571	4.635380807622
5	60	15.637022807143	2.738424200293
5	76	19.489603358491	3.671296513732
5	84	21.597352341496	5.119269478677
5	90	23.532932142424	6.132346073071
5	110	27.244629994158	0.889352513002
5	129	36.13040951979	1.074508069043
5	138	37.483716737121	0.132859506754
5	153	39.934281153629	1.816421200212
5	172	47.806357925033	7.697779318647
5	178	48.246924036232	7.967233324546
5	183	48.860568217023	8.547644034001
5	199	53.706279683122	9.193735222928
5	210	54.984448526741	5.861908918296
5	215	55.255340487202	5.6956423386
5	220	55.966111829493	3.06655665212
5	233	59.119830273023	5.312993389595
5	240	59.934651419326	6.081405295885
5	245	61.227635409248	4.14099937192
5	252	64.534050370177	7.010138357464
5	259	65.360327558588	6.652111393452
5	264	65.936076862108	2.460635266382
5	282	69.633035234491	2.065390869337
5	290	70.395323695309	2.681667767231
5	310	76.554679592538	0.958466787239
5	343	87.675768052851	2.052018843593
5	355	90.11722074262	2.15680044769
5	359	90.137384896291	2.141812048687

