version 2
run Second-n2-14-20191125-12:37:13-6704
attr configname Second-n2
attr datetime 20191125-12:37:13
attr experiment Second-n2
attr inifile omnetpp.ini
attr iterationvars ""
attr iterationvarsf ""
attr measurement ""
attr network org.omnetpp.queueing.Pizza
attr processid 6704
attr repetition 14
attr replication ""
attr resultdir results_no_transient
attr runnumber 14
attr seedset 14
param **.PS.maxInventoriedPS 2
param **.U1.interArrivalTime exponential(3s)
param **.U2.interArrivalTime exponential(5s)
param **.PS.serviceTimeForInventoryU1 exponential(1.0s)
param **.PS.serviceTimeForInventoryU2 exponential(1.2s)
param **.PS.serviceTimeDirectU1 exponential(1.4s)
param **.PS.serviceTimeDirectU2 exponential(1.4s)
param **.PS.probabilityProducing 0.7
param **.CS.serviceTimeU1 exponential(1.1s)
param **.CS.serviceTimeU2 exponential(1.4s)

vector 0 Pizza.EntryQueueU1 queueLength:vector ETV
attr interpolationmode sample-hold
attr title "queue length, vector"
vector 1 Pizza.CS queueLength:vector ETV
attr interpolationmode sample-hold
attr title "queue length, vector"
vector 2 Pizza.EntryQueueU2 queueLength:vector ETV
attr interpolationmode sample-hold
attr title "queue length, vector"
vector 3 Pizza.sink lifeTime:vector ETV
attr interpolationmode none
attr title "lifetime of arrived jobs, vector"
attr unit s
vector 4 Pizza.sink lifeTimeU1:vector ETV
attr interpolationmode none
attr title "lifetime of arrived jobs, vector"
attr unit s
vector 5 Pizza.sink lifeTimeU2:vector ETV
attr interpolationmode none
attr title "lifetime of arrived jobs, vector"
attr unit s
0	0	0	0
0	49	13.060027492749	1
0	50	13.108120898325	0
0	69	17.380872885752	1
0	71	18.274443617111	2
0	76	18.579205620533	3
0	78	19.909896968044	2
0	91	22.38170036376	3
0	93	22.574836119096	4
0	94	24.379760695843	3
0	99	25.872218320829	2
0	105	27.18474967561	1
0	110	27.416377875317	0
0	118	29.979017102208	1
0	121	30.763638623054	0
0	129	31.305880716025	1
0	131	32.324511942302	2
0	133	36.312458875252	3
0	137	38.165850322084	2
0	143	38.171010957956	3
0	145	38.749591153637	4
0	147	39.358750629605	5
0	148	39.608017501657	4
0	154	39.882860106536	3
0	160	40.075126854821	4
0	161	40.194401907872	3
0	166	40.48377979395	2
0	170	40.672718064888	3
0	173	42.403498906027	2
0	178	43.148506902827	1
0	184	44.60645189251	2
0	187	45.386111317092	1
0	193	47.372926320172	2
0	195	47.655520175039	3
0	199	49.336998505387	4
0	200	49.533810043493	3
0	204	49.566253897615	4
0	211	50.546711299868	5
0	213	52.325984933953	4
0	222	53.618942086069	5
0	223	53.94286945366	4
0	230	54.48099310715	3
0	239	55.505597916182	4
0	241	55.738379871925	5
0	242	56.314446224715	4
0	247	56.670077316173	3
0	252	56.776979553514	2
0	258	57.268791692877	3
0	262	60.157539727821	2
0	270	65.211520664879	3
0	271	65.996810384057	2
0	276	66.743871211072	1
0	282	68.468473289929	2
0	284	71.44063227118	3
0	285	72.357828298375	2
0	293	73.348282482598	3
0	296	76.309814318253	2
0	302	76.69881183629	1
0	307	76.889740867324	0
0	336	82.068568543167	1
0	338	82.387060601219	2
0	339	82.871558632325	1
0	345	84.087199492534	0
0	353	85.541993853579	1
0	355	85.971334965575	2
0	357	86.209263841775	3
0	359	86.402506629608	4
0	361	87.095573670778	5
0	364	87.971634638617	4
0	369	88.714002858812	3
0	373	91.363824025855	4
0	383	92.957924094897	5
0	384	93.227120337836	4
0	389	94.185123974899	3
0	395	94.561177297563	4
0	397	95.010542673066	3
0	403	95.344718751055	2
0	410	97.424435457357	1
0	415	99.603619701569	0
1	0	0	0
2	0	0	0
2	64	15.675679522628	1
2	65	17.341923164137	0
2	84	21.263687595069	1
2	86	21.698830831722	2
2	88	21.834682056227	3
2	114	28.69790427858	4
2	127	30.864345869416	5
2	136	36.564240918554	6
2	182	43.209429413672	7
2	191	47.073353520138	8
2	208	50.064162078071	9
2	220	53.611440707711	10
2	237	54.950239916262	11
2	256	56.82130230671	12
2	268	60.532457428264	13
2	289	72.494540814887	14
2	313	77.085642689447	13
2	318	77.095565299978	12
2	323	77.314568142202	11
2	328	80.480314492305	10
2	332	80.561653289104	11
2	349	85.015428130273	12
2	351	85.385007243403	13
2	377	91.947293976123	14
2	379	92.66136026112	15
2	381	92.709053909595	16
3	7	3.679748173176	1.515457943932
3	17	7.036345118289	0.421457034123
3	26	9.174571011095	1.806619580428
3	34	9.871718543153	0.180612963991
3	42	12.479439893211	0.465985875543
3	52	13.108120898325	0.359714851666
3	56	13.238549847988	0.178522355239
3	67	17.341923164137	2.249537373748
3	80	19.909896968044	4.234217445416
3	96	24.379760695843	6.998887810091
3	101	25.872218320829	7.597774703718
3	107	27.18474967561	8.605544055077
3	112	27.416377875317	5.034677511557
3	123	30.763638623054	8.188802503958
3	139	38.165850322084	8.186833219876
3	150	39.608017501657	8.302136785632
3	156	39.882860106536	7.558348164234
3	163	40.194401907872	3.88194303262
3	168	40.48377979395	2.312768835994
3	175	42.403498906027	3.65390775239
3	180	43.148506902827	3.789756273222
3	189	45.386111317092	5.310984462271
3	202	49.533810043493	8.861091978605
3	215	52.325984933953	7.719533041443
3	225	53.94286945366	6.569943133488
3	232	54.48099310715	6.825472932111
3	244	56.314446224715	6.977447719328
3	249	56.670077316173	7.103823418558
3	254	56.776979553514	6.230268253646
3	264	60.157539727821	6.538597641752
3	273	65.996810384057	10.491212467875
3	278	66.743871211072	11.005491339147
3	287	72.357828298375	15.089036605498
3	298	76.309814318253	11.098293653374
3	304	76.69881183629	8.230338546361
3	309	76.889740867324	5.449108596144
3	315	77.085642689447	3.737360206849
3	320	77.095565299978	55.831877704909
3	325	77.314568142202	55.61573731048
3	330	80.480314492305	58.645632436078
3	341	82.871558632325	54.173654353745
3	347	84.087199492534	2.018630949367
3	366	87.971634638617	5.584574037398
3	371	88.714002858812	3.172009005233
3	386	93.227120337836	7.255785372261
3	391	94.185123974899	7.975860133124
3	399	95.010542673066	8.608036043458
3	405	95.344718751055	8.249145080277
3	412	97.424435457357	6.060611431502
3	417	99.603619701569	6.645695606672
4	7	3.679748173176	1.515457943932
4	17	7.036345118289	0.421457034123
4	26	9.174571011095	1.806619580428
4	34	9.871718543153	0.180612963991
4	42	12.479439893211	0.465985875543
4	56	13.238549847988	0.178522355239
4	96	24.379760695843	6.998887810091
4	101	25.872218320829	7.597774703718
4	107	27.18474967561	8.605544055077
4	112	27.416377875317	5.034677511557
4	123	30.763638623054	8.188802503958
4	139	38.165850322084	8.186833219876
4	150	39.608017501657	8.302136785632
4	156	39.882860106536	7.558348164234
4	163	40.194401907872	3.88194303262
4	168	40.48377979395	2.312768835994
4	175	42.403498906027	3.65390775239
4	180	43.148506902827	3.789756273222
4	189	45.386111317092	5.310984462271
4	202	49.533810043493	8.861091978605
4	215	52.325984933953	7.719533041443
4	225	53.94286945366	6.569943133488
4	232	54.48099310715	6.825472932111
4	244	56.314446224715	6.977447719328
4	249	56.670077316173	7.103823418558
4	254	56.776979553514	6.230268253646
4	264	60.157539727821	6.538597641752
4	273	65.996810384057	10.491212467875
4	278	66.743871211072	11.005491339147
4	287	72.357828298375	15.089036605498
4	298	76.309814318253	11.098293653374
4	304	76.69881183629	8.230338546361
4	309	76.889740867324	5.449108596144
4	315	77.085642689447	3.737360206849
4	347	84.087199492534	2.018630949367
4	366	87.971634638617	5.584574037398
4	371	88.714002858812	3.172009005233
4	386	93.227120337836	7.255785372261
4	391	94.185123974899	7.975860133124
4	399	95.010542673066	8.608036043458
4	405	95.344718751055	8.249145080277
4	412	97.424435457357	6.060611431502
4	417	99.603619701569	6.645695606672
5	52	13.108120898325	0.359714851666
5	67	17.341923164137	2.249537373748
5	80	19.909896968044	4.234217445416
5	320	77.095565299978	55.831877704909
5	325	77.314568142202	55.61573731048
5	330	80.480314492305	58.645632436078
5	341	82.871558632325	54.173654353745

