version 2
run Second-n3-0-20191125-12:37:00-7828
attr configname Second-n3
attr datetime 20191125-12:37:00
attr experiment Second-n3
attr inifile omnetpp.ini
attr iterationvars ""
attr iterationvarsf ""
attr measurement ""
attr network org.omnetpp.queueing.Pizza
attr processid 7828
attr repetition 0
attr replication ""
attr resultdir results_no_transient
attr runnumber 0
attr seedset 0
param **.PS.maxInventoriedPS 3
param **.U1.interArrivalTime exponential(3s)
param **.U2.interArrivalTime exponential(5s)
param **.PS.serviceTimeForInventoryU1 exponential(1.0s)
param **.PS.serviceTimeForInventoryU2 exponential(1.2s)
param **.PS.serviceTimeDirectU1 exponential(1.4s)
param **.PS.serviceTimeDirectU2 exponential(1.4s)
param **.PS.probabilityProducing 0.7
param **.CS.serviceTimeU1 exponential(1.1s)
param **.CS.serviceTimeU2 exponential(1.4s)

vector 0 Pizza.EntryQueueU1 queueLength:vector ETV
attr interpolationmode sample-hold
attr title "queue length, vector"
vector 1 Pizza.CS queueLength:vector ETV
attr interpolationmode sample-hold
attr title "queue length, vector"
vector 2 Pizza.EntryQueueU2 queueLength:vector ETV
attr interpolationmode sample-hold
attr title "queue length, vector"
vector 3 Pizza.sink lifeTime:vector ETV
attr interpolationmode none
attr title "lifetime of arrived jobs, vector"
attr unit s
vector 4 Pizza.sink lifeTimeU1:vector ETV
attr interpolationmode none
attr title "lifetime of arrived jobs, vector"
attr unit s
vector 5 Pizza.sink lifeTimeU2:vector ETV
attr interpolationmode none
attr title "lifetime of arrived jobs, vector"
attr unit s
0	0	0	0
0	10	6.155415787839	1
0	12	7.057929870225	0
0	32	9.269893689831	1
0	37	12.746473319963	0
0	44	14.695001482656	1
0	45	14.712709749746	0
0	51	15.148694043651	1
0	53	17.073821561685	2
0	58	18.942453805802	1
0	63	20.066028867586	0
0	84	21.88954023287	1
0	85	22.00540688725	0
0	103	24.410544349707	1
0	104	24.44612999607	0
0	126	31.39728447235	1
0	127	31.437964020016	0
0	133	31.811370537635	1
0	135	32.467631735765	0
0	142	33.167676718309	1
0	144	33.490582042777	2
0	145	33.574089841448	1
0	150	33.767594741416	0
0	168	37.183443651272	1
0	169	37.899546414521	0
0	191	42.006453977017	1
0	193	43.903463766204	2
0	194	44.019203081961	1
0	206	45.040529428553	0
0	218	46.041214546204	1
0	219	46.099296668504	0
0	227	47.189317392789	1
0	232	48.853599629898	0
0	254	49.6976099887	1
0	258	51.079070860022	0
0	280	58.774634636266	1
0	281	59.130584419608	0
0	311	65.30857069221	1
0	312	65.377503152146	0
0	325	66.367631092032	1
0	326	66.438487131838	0
0	335	68.979238571011	1
0	337	70.139294630194	0
0	367	75.989873775212	1
0	369	76.315515070697	2
0	371	77.378187467433	3
0	372	77.408547519267	2
0	378	77.668955731164	3
0	380	78.391649505403	2
0	389	80.07661168844	3
0	391	81.770443191802	4
0	392	82.211438532614	3
0	399	82.520687676735	4
0	400	82.715428704968	3
0	408	84.520416040687	2
0	415	84.998196262225	1
0	420	87.02190232581	0
0	453	94.934116958266	1
0	455	96.335934657496	2
0	457	98.148831873039	3
0	462	99.783403257473	4
1	0	0	0
2	0	0	0
2	5	4.49280194242	1
2	17	7.122153006227	0
2	36	12.37833043588	1
2	56	17.60139297742	2
2	69	20.9139469919	1
2	76	21.276215083369	2
2	78	21.663739000219	1
2	92	22.307231493521	2
2	93	22.436354778994	1
2	97	23.117913940751	2
2	101	24.375123601125	3
2	109	24.936200340626	2
2	114	27.940043676761	1
2	119	29.624906847417	0
2	201	44.196045611904	1
2	203	44.296996252635	2
2	205	44.496877747926	3
2	211	45.181391870395	2
2	229	47.411269692261	3
2	237	48.962114969158	2
2	242	49.083593644433	1
2	248	49.620577944171	0
2	303	63.072992328079	1
2	305	65.204565845839	0
2	332	68.561206204113	1
2	344	71.275371341904	0
2	386	79.269996151191	1
2	414	84.54924419449	2
2	425	89.250402024624	1
2	432	90.244287122738	0
2	438	90.812281819048	1
2	439	92.549693864596	0
2	451	93.820673131295	1
2	464	99.797865962706	2
2	466	99.881704792667	3
3	14	7.057929870225	4.670306356528
3	19	7.122153006227	0.966737218388
3	24	7.799195953155	3.306394010735
3	39	12.746473319963	3.637555720189
3	47	14.712709749746	5.442816059915
3	60	18.942453805802	4.247452323146
3	65	20.066028867586	4.917334823935
3	71	20.9139469919	3.840125430215
3	80	21.663739000219	9.285408564339
3	87	22.00540688725	4.40401390983
3	95	22.436354778994	0.546814546124
3	106	24.44612999607	3.169914912701
3	111	24.936200340626	0.525655990919
3	116	27.940043676761	5.63281218324
3	121	29.624906847417	6.506992906666
3	129	31.437964020016	7.062840418891
3	137	32.467631735765	1.070347263415
3	147	33.574089841448	1.762719303813
3	152	33.767594741416	0.599918023107
3	156	34.726702180404	1.236120137627
3	171	37.899546414521	1.235485131687
3	175	38.405561768035	1.222118116763
3	183	38.907701541648	0.143002834135
3	196	44.019203081961	2.315853430871
3	208	45.040529428553	3.034075451536
3	213	45.181391870395	1.277928104191
3	221	46.099296668504	1.9032510566
3	234	48.853599629898	2.812385083694
3	239	48.962114969158	1.772797576369
3	244	49.083593644433	4.786597391798
3	250	49.620577944171	5.123700196245
3	260	51.079070860022	3.667801167761
3	264	51.101414564697	1.403804575997
3	273	53.651587075881	0.174175656854
3	283	59.130584419608	1.703112114811
3	287	59.755278988436	0.98064435217
3	294	62.348968794762	0.706081329223
3	307	65.204565845839	2.443657588322
3	314	65.377503152146	2.304510824067
3	318	65.961297898424	0.652727206214
3	328	66.438487131838	0.402374666498
3	339	70.139294630194	3.771663538162
3	346	71.275371341904	2.296132770893
3	351	72.164550143787	3.603343939674
3	359	72.589602810588	0.376859587168
3	374	77.408547519267	2.950426646931
3	382	78.391649505403	2.401775730191
3	394	82.211438532614	5.895923461917
3	402	82.715428704968	5.337241237535
3	410	84.520416040687	6.851460309523
3	417	84.998196262225	4.921584573785
3	422	87.02190232581	5.251459134008
3	427	89.250402024624	6.729714347889
3	434	90.244287122738	10.974290971547
3	441	92.549693864596	8.000449670106
3	446	93.28171190672	2.469430087672
4	14	7.057929870225	4.670306356528
4	19	7.122153006227	0.966737218388
4	47	14.712709749746	5.442816059915
4	60	18.942453805802	4.247452323146
4	65	20.066028867586	4.917334823935
4	71	20.9139469919	3.840125430215
4	95	22.436354778994	0.546814546124
4	111	24.936200340626	0.525655990919
4	137	32.467631735765	1.070347263415
4	147	33.574089841448	1.762719303813
4	152	33.767594741416	0.599918023107
4	156	34.726702180404	1.236120137627
4	171	37.899546414521	1.235485131687
4	175	38.405561768035	1.222118116763
4	196	44.019203081961	2.315853430871
4	208	45.040529428553	3.034075451536
4	213	45.181391870395	1.277928104191
4	234	48.853599629898	2.812385083694
4	239	48.962114969158	1.772797576369
4	264	51.101414564697	1.403804575997
4	273	53.651587075881	0.174175656854
4	287	59.755278988436	0.98064435217
4	307	65.204565845839	2.443657588322
4	318	65.961297898424	0.652727206214
4	339	70.139294630194	3.771663538162
4	346	71.275371341904	2.296132770893
4	359	72.589602810588	0.376859587168
4	382	78.391649505403	2.401775730191
4	394	82.211438532614	5.895923461917
4	402	82.715428704968	5.337241237535
4	410	84.520416040687	6.851460309523
4	417	84.998196262225	4.921584573785
4	422	87.02190232581	5.251459134008
4	427	89.250402024624	6.729714347889
5	24	7.799195953155	3.306394010735
5	39	12.746473319963	3.637555720189
5	80	21.663739000219	9.285408564339
5	87	22.00540688725	4.40401390983
5	106	24.44612999607	3.169914912701
5	116	27.940043676761	5.63281218324
5	121	29.624906847417	6.506992906666
5	129	31.437964020016	7.062840418891
5	183	38.907701541648	0.143002834135
5	221	46.099296668504	1.9032510566
5	244	49.083593644433	4.786597391798
5	250	49.620577944171	5.123700196245
5	260	51.079070860022	3.667801167761
5	283	59.130584419608	1.703112114811
5	294	62.348968794762	0.706081329223
5	314	65.377503152146	2.304510824067
5	328	66.438487131838	0.402374666498
5	351	72.164550143787	3.603343939674
5	374	77.408547519267	2.950426646931
5	434	90.244287122738	10.974290971547
5	441	92.549693864596	8.000449670106
5	446	93.28171190672	2.469430087672

