version 2
run Second-n3-19-20191125-12:37:26-3856
attr configname Second-n3
attr datetime 20191125-12:37:26
attr experiment Second-n3
attr inifile omnetpp.ini
attr iterationvars ""
attr iterationvarsf ""
attr measurement ""
attr network org.omnetpp.queueing.Pizza
attr processid 3856
attr repetition 19
attr replication ""
attr resultdir results_no_transient
attr runnumber 19
attr seedset 19
param **.PS.maxInventoriedPS 3
param **.U1.interArrivalTime exponential(3s)
param **.U2.interArrivalTime exponential(5s)
param **.PS.serviceTimeForInventoryU1 exponential(1.0s)
param **.PS.serviceTimeForInventoryU2 exponential(1.2s)
param **.PS.serviceTimeDirectU1 exponential(1.4s)
param **.PS.serviceTimeDirectU2 exponential(1.4s)
param **.PS.probabilityProducing 0.7
param **.CS.serviceTimeU1 exponential(1.1s)
param **.CS.serviceTimeU2 exponential(1.4s)

vector 0 Pizza.EntryQueueU1 queueLength:vector ETV
attr interpolationmode sample-hold
attr title "queue length, vector"
vector 1 Pizza.CS queueLength:vector ETV
attr interpolationmode sample-hold
attr title "queue length, vector"
vector 2 Pizza.EntryQueueU2 queueLength:vector ETV
attr interpolationmode sample-hold
attr title "queue length, vector"
vector 3 Pizza.sink lifeTime:vector ETV
attr interpolationmode none
attr title "lifetime of arrived jobs, vector"
attr unit s
vector 4 Pizza.sink lifeTimeU1:vector ETV
attr interpolationmode none
attr title "lifetime of arrived jobs, vector"
attr unit s
vector 5 Pizza.sink lifeTimeU2:vector ETV
attr interpolationmode none
attr title "lifetime of arrived jobs, vector"
attr unit s
0	0	0	0
0	19	4.604882837312	1
0	21	5.334627953654	2
0	24	8.673019194465	1
0	29	8.731497529496	0
0	57	13.288610720826	1
0	59	14.472872058135	0
0	73	17.059756833073	1
0	78	18.073865262797	2
0	80	18.274807441876	3
0	82	18.779862647211	2
0	87	18.875154209308	1
0	92	19.343156428823	0
0	114	23.365271205599	1
0	116	23.682577973954	2
0	117	23.788448355569	1
0	125	26.742537888001	0
0	153	39.186984041176	1
0	156	39.66764497921	2
0	157	41.952114941776	1
0	163	42.769212492045	0
0	213	56.023943422818	1
0	219	57.434047289654	2
0	220	61.747842718383	1
0	227	63.142751094243	0
0	234	66.387482003494	1
0	235	66.625748052621	0
0	264	70.022002006293	1
0	265	70.836774998224	0
0	313	89.78419928694	1
0	314	89.947969000063	0
1	0	0	0
2	0	0	0
2	23	8.388062523436	1
2	34	8.864299366584	0
2	76	17.514796514328	1
2	98	19.776898637983	0
2	124	25.063523173022	1
2	132	28.935828483555	0
2	201	55.119232446443	1
2	203	55.129349807316	2
2	204	55.485666775101	1
2	211	55.828669063877	2
2	217	57.39436526202	3
2	241	67.377709383665	2
2	246	67.62267912268	1
2	252	67.776012465836	2
2	253	68.153329629009	1
2	258	68.780664829395	0
2	280	75.630347463329	1
2	281	76.77871168489	0
3	7	1.216599224106	0.908727748351
3	26	8.673019194465	5.85831565925
3	31	8.731497529496	4.126614692184
3	36	8.864299366584	3.52967141293
3	41	10.138230491055	1.750167967619
3	48	11.226682726085	0.220334136508
3	61	14.472872058135	2.103065706586
3	65	14.643128357092	1.354517636266
3	84	18.779862647211	2.658012358519
3	89	18.875154209308	1.815397376235
3	94	19.343156428823	1.269291166026
3	100	19.776898637983	1.502091196107
3	106	22.221523734575	4.706727220247
3	119	23.788448355569	0.558694051782
3	127	26.742537888001	3.377266682402
3	134	28.935828483555	5.253250509601
3	138	29.139932825989	4.076409652967
3	146	35.361587786873	3.552713521925
3	159	41.952114941776	3.855063013693
3	165	42.769212492045	3.582228450869
3	170	43.832309001734	4.164664022524
3	177	44.172574123694	0.201213503913
3	184	45.209355896442	0.63337646286
3	194	48.553107831911	2.423915304597
3	206	55.485666775101	0.642275900146
3	222	61.747842718383	6.62861027194
3	229	63.142751094243	7.118807671425
3	237	66.625748052621	9.191700762967
3	243	67.377709383665	0.990227380171
3	248	67.62267912268	12.493329315364
3	255	68.153329629009	12.324660565132
3	260	68.780664829395	11.386299567375
3	267	70.836774998224	3.060762532388
3	272	71.790523474763	1.76852146847
3	283	76.77871168489	2.250260109721
3	287	77.351935651479	1.72158818815
3	294	81.096922450057	0.099188333991
3	304	86.606073684509	0.199502007982
3	316	89.947969000063	2.768366346861
3	321	90.512863162757	0.728663875817
3	329	93.032361109561	0.251870068406
3	337	94.085629603671	0.692035164812
4	7	1.216599224106	0.908727748351
4	31	8.731497529496	4.126614692184
4	36	8.864299366584	3.52967141293
4	48	11.226682726085	0.220334136508
4	65	14.643128357092	1.354517636266
4	84	18.779862647211	2.658012358519
4	89	18.875154209308	1.815397376235
4	94	19.343156428823	1.269291166026
4	100	19.776898637983	1.502091196107
4	119	23.788448355569	0.558694051782
4	127	26.742537888001	3.377266682402
4	134	28.935828483555	5.253250509601
4	165	42.769212492045	3.582228450869
4	170	43.832309001734	4.164664022524
4	177	44.172574123694	0.201213503913
4	184	45.209355896442	0.63337646286
4	206	55.485666775101	0.642275900146
4	229	63.142751094243	7.118807671425
4	237	66.625748052621	9.191700762967
4	243	67.377709383665	0.990227380171
4	272	71.790523474763	1.76852146847
4	294	81.096922450057	0.099188333991
4	304	86.606073684509	0.199502007982
4	321	90.512863162757	0.728663875817
4	329	93.032361109561	0.251870068406
4	337	94.085629603671	0.692035164812
5	26	8.673019194465	5.85831565925
5	41	10.138230491055	1.750167967619
5	61	14.472872058135	2.103065706586
5	106	22.221523734575	4.706727220247
5	138	29.139932825989	4.076409652967
5	146	35.361587786873	3.552713521925
5	159	41.952114941776	3.855063013693
5	194	48.553107831911	2.423915304597
5	222	61.747842718383	6.62861027194
5	248	67.62267912268	12.493329315364
5	255	68.153329629009	12.324660565132
5	260	68.780664829395	11.386299567375
5	267	70.836774998224	3.060762532388
5	283	76.77871168489	2.250260109721
5	287	77.351935651479	1.72158818815
5	316	89.947969000063	2.768366346861

