version 2
run Second-n2-17-20191125-12:37:17-10972
attr configname Second-n2
attr datetime 20191125-12:37:17
attr experiment Second-n2
attr inifile omnetpp.ini
attr iterationvars ""
attr iterationvarsf ""
attr measurement ""
attr network org.omnetpp.queueing.Pizza
attr processid 10972
attr repetition 17
attr replication ""
attr resultdir results_no_transient
attr runnumber 17
attr seedset 17
param **.PS.maxInventoriedPS 2
param **.U1.interArrivalTime exponential(3s)
param **.U2.interArrivalTime exponential(5s)
param **.PS.serviceTimeForInventoryU1 exponential(1.0s)
param **.PS.serviceTimeForInventoryU2 exponential(1.2s)
param **.PS.serviceTimeDirectU1 exponential(1.4s)
param **.PS.serviceTimeDirectU2 exponential(1.4s)
param **.PS.probabilityProducing 0.7
param **.CS.serviceTimeU1 exponential(1.1s)
param **.CS.serviceTimeU2 exponential(1.4s)

vector 0 Pizza.EntryQueueU1 queueLength:vector ETV
attr interpolationmode sample-hold
attr title "queue length, vector"
vector 1 Pizza.CS queueLength:vector ETV
attr interpolationmode sample-hold
attr title "queue length, vector"
vector 2 Pizza.EntryQueueU2 queueLength:vector ETV
attr interpolationmode sample-hold
attr title "queue length, vector"
vector 3 Pizza.sink lifeTime:vector ETV
attr interpolationmode none
attr title "lifetime of arrived jobs, vector"
attr unit s
vector 4 Pizza.sink lifeTimeU2:vector ETV
attr interpolationmode none
attr title "lifetime of arrived jobs, vector"
attr unit s
vector 5 Pizza.sink lifeTimeU1:vector ETV
attr interpolationmode none
attr title "lifetime of arrived jobs, vector"
attr unit s
0	0	0	0
0	5	1.047247255701	1
0	7	1.685048182551	2
0	14	5.771218478445	1
0	20	6.86417560558	0
0	31	8.276072354561	1
0	33	8.461841154521	2
0	37	10.996664588065	3
0	41	11.7248412663	4
0	43	12.680114120848	5
0	44	13.92573888514	4
0	51	14.317506457533	3
0	56	14.318743441827	2
0	62	15.087335796086	3
0	63	15.631670751943	2
0	69	16.294599312194	1
0	73	16.60011468518	2
0	78	17.090873285139	3
0	81	17.589398082797	2
0	87	18.379692451846	1
0	94	19.302932502665	0
0	107	21.352279347224	1
0	109	21.488786685629	0
0	140	31.289649284237	1
0	141	31.434302479754	0
0	160	38.96726725403	1
0	162	40.221216666062	2
0	163	40.580058110849	1
0	173	42.258196157986	2
0	174	43.39629176804	1
0	179	44.164793909113	0
0	199	44.855588459216	1
0	202	46.656689158004	2
0	204	49.694997265764	1
0	209	49.991652385596	0
0	226	54.091438845597	1
0	227	54.253272956746	0
0	249	57.633153982868	1
0	255	58.497678463404	2
0	257	58.834393657366	3
0	259	59.16592491107	2
0	265	59.316924427298	3
0	266	60.089858006271	2
0	271	60.109280757478	1
0	277	61.491956317801	2
0	282	66.393947226069	1
0	286	66.858923090006	2
0	292	68.527897028017	1
0	297	68.68965544005	0
0	309	73.003844739778	1
0	311	73.385253749535	2
0	313	74.224476230271	1
0	323	75.806986387451	2
0	324	76.727877406368	1
0	330	76.842540672921	2
0	332	78.408552162034	1
0	340	79.467123601845	2
0	342	79.598848496384	1
0	349	80.003543143462	2
0	351	81.981837210566	3
0	352	83.338961451614	2
0	358	83.453805242217	3
0	360	84.70508210492	2
0	367	85.004205523436	3
0	369	86.738679193703	4
0	371	87.36560317724	5
0	372	90.054869937957	4
0	377	92.772426441959	3
0	382	94.319538025427	2
0	386	95.750659484204	3
0	392	99.804585642332	4
0	393	99.874798578282	3
1	0	0	0
2	0	0	0
2	11	4.78446540537	1
2	25	6.910538912947	0
2	29	7.424521447036	1
2	50	14.209485250057	2
2	80	17.513162281432	3
2	93	19.241959949573	4
2	99	19.907672084928	3
2	114	23.244242618556	2
2	121	23.996577529017	3
2	122	24.10657483549	2
2	127	25.882620510941	1
2	134	29.378954122708	2
2	136	30.0979922942	3
2	138	31.074820830034	4
2	146	33.378965625568	3
2	152	35.8448997818	2
2	158	38.57716843493	3
2	171	42.25363397913	4
2	186	44.406742610794	3
2	191	44.428891565946	2
2	197	44.581063362451	3
2	216	51.890258920447	4
2	217	52.677673816547	3
2	224	53.467603987424	4
2	232	54.695931522598	3
2	237	55.044122206799	2
2	243	56.82153928992	3
2	245	57.230964788207	2
2	251	57.688177305274	3
2	275	61.032180506115	4
2	279	63.302688263045	5
2	290	68.169707752253	6
2	303	70.203087227469	5
2	320	74.75564015049	6
2	338	78.821720669488	7
3	16	5.771218478445	4.768111945177
3	22	6.86417560558	5.816928349879
3	27	6.910538912947	5.225490730396
3	46	13.92573888514	9.14127347977
3	53	14.317506457533	6.041434102972
3	58	14.318743441827	5.856902287306
3	65	15.631670751943	4.635006163878
3	71	16.294599312194	4.569758045894
3	83	17.589398082797	4.909283961949
3	89	18.379692451846	3.29235665576
3	96	19.302932502665	2.702817817485
3	101	19.907672084928	2.816798799789
3	111	21.488786685629	14.064265238593
3	116	23.244242618556	1.891963271332
3	124	24.10657483549	9.897089585433
3	129	25.882620510941	8.369458229509
3	143	31.434302479754	12.192342530181
3	148	33.378965625568	2.089316341331
3	154	35.8448997818	11.848322252783
3	165	40.580058110849	11.201103988141
3	176	43.39629176804	4.42902451401
3	181	44.164793909113	3.943577243051
3	188	44.406742610794	2.148546452808
3	193	44.428891565946	14.330899271746
3	206	49.694997265764	18.62017643573
3	211	49.991652385596	5.13606392638
3	219	52.677673816547	6.020984658543
3	229	54.253272956746	15.676104521816
3	234	54.695931522598	0.604492677001
3	239	55.044122206799	12.790488227669
3	247	57.230964788207	12.649901425756
3	261	59.16592491107	7.275665990623
3	268	60.089858006271	2.456704023403
3	273	60.109280757478	1.611602294074
3	284	66.393947226069	7.559553568703
3	294	68.527897028017	9.210972600719
3	299	68.68965544005	7.197699122249
3	305	70.203087227469	3.344164137463
3	315	74.224476230271	20.756872242847
3	326	76.727877406368	3.72403266659
3	334	78.408552162034	5.023298412499
3	344	79.598848496384	3.791862108933
3	354	83.338961451614	6.496420778693
3	362	84.70508210492	5.237958503075
3	374	90.054869937957	10.051326794495
3	379	92.772426441959	10.790589231393
3	384	94.319538025427	10.86573278321
3	395	99.874798578282	14.870593054846
4	16	5.771218478445	4.768111945177
4	46	13.92573888514	9.14127347977
4	111	21.488786685629	14.064265238593
4	124	24.10657483549	9.897089585433
4	129	25.882620510941	8.369458229509
4	143	31.434302479754	12.192342530181
4	154	35.8448997818	11.848322252783
4	165	40.580058110849	11.201103988141
4	193	44.428891565946	14.330899271746
4	206	49.694997265764	18.62017643573
4	229	54.253272956746	15.676104521816
4	239	55.044122206799	12.790488227669
4	247	57.230964788207	12.649901425756
4	261	59.16592491107	7.275665990623
4	315	74.224476230271	20.756872242847
5	22	6.86417560558	5.816928349879
5	27	6.910538912947	5.225490730396
5	53	14.317506457533	6.041434102972
5	58	14.318743441827	5.856902287306
5	65	15.631670751943	4.635006163878
5	71	16.294599312194	4.569758045894
5	83	17.589398082797	4.909283961949
5	89	18.379692451846	3.29235665576
5	96	19.302932502665	2.702817817485
5	101	19.907672084928	2.816798799789
5	116	23.244242618556	1.891963271332
5	148	33.378965625568	2.089316341331
5	176	43.39629176804	4.42902451401
5	181	44.164793909113	3.943577243051
5	188	44.406742610794	2.148546452808
5	211	49.991652385596	5.13606392638
5	219	52.677673816547	6.020984658543
5	234	54.695931522598	0.604492677001
5	268	60.089858006271	2.456704023403
5	273	60.109280757478	1.611602294074
5	284	66.393947226069	7.559553568703
5	294	68.527897028017	9.210972600719
5	299	68.68965544005	7.197699122249
5	305	70.203087227469	3.344164137463
5	326	76.727877406368	3.72403266659
5	334	78.408552162034	5.023298412499
5	344	79.598848496384	3.791862108933
5	354	83.338961451614	6.496420778693
5	362	84.70508210492	5.237958503075
5	374	90.054869937957	10.051326794495
5	379	92.772426441959	10.790589231393
5	384	94.319538025427	10.86573278321
5	395	99.874798578282	14.870593054846

