version 2
run Second-n5-13-20191125-12:37:35-5216
attr configname Second-n5
attr datetime 20191125-12:37:35
attr experiment Second-n5
attr inifile omnetpp.ini
attr iterationvars ""
attr iterationvarsf ""
attr measurement ""
attr network org.omnetpp.queueing.Pizza
attr processid 5216
attr repetition 13
attr replication ""
attr resultdir results_no_transient
attr runnumber 13
attr seedset 13
param **.PS.maxInventoriedPS 5
param **.U1.interArrivalTime exponential(3s)
param **.U2.interArrivalTime exponential(5s)
param **.PS.serviceTimeForInventoryU1 exponential(1.0s)
param **.PS.serviceTimeForInventoryU2 exponential(1.2s)
param **.PS.serviceTimeDirectU1 exponential(1.4s)
param **.PS.serviceTimeDirectU2 exponential(1.4s)
param **.PS.probabilityProducing 0.7
param **.CS.serviceTimeU1 exponential(1.1s)
param **.CS.serviceTimeU2 exponential(1.4s)

vector 0 Pizza.EntryQueueU1 queueLength:vector ETV
attr interpolationmode sample-hold
attr title "queue length, vector"
vector 1 Pizza.CS queueLength:vector ETV
attr interpolationmode sample-hold
attr title "queue length, vector"
vector 2 Pizza.EntryQueueU2 queueLength:vector ETV
attr interpolationmode sample-hold
attr title "queue length, vector"
vector 3 Pizza.sink lifeTime:vector ETV
attr interpolationmode none
attr title "lifetime of arrived jobs, vector"
attr unit s
vector 4 Pizza.sink lifeTimeU1:vector ETV
attr interpolationmode none
attr title "lifetime of arrived jobs, vector"
attr unit s
vector 5 Pizza.sink lifeTimeU2:vector ETV
attr interpolationmode none
attr title "lifetime of arrived jobs, vector"
attr unit s
0	0	0	0
0	7	5.324835378102	1
0	14	11.215102530395	0
0	25	12.029129270795	1
0	26	12.168995606313	0
0	72	21.590056765483	1
0	73	22.937171706491	0
0	131	32.721168555128	1
0	134	33.166620028117	2
0	135	33.241654581829	1
0	140	33.422739987545	0
0	180	41.076511465357	1
0	182	43.829234705339	0
0	191	45.210844058592	1
0	192	46.517960554765	0
0	209	51.388157970457	1
0	214	52.719422564993	2
0	216	53.133618057694	3
0	217	53.489176260548	2
0	222	53.73688331831	1
0	232	57.637875446833	2
0	233	58.169781102234	1
0	238	58.299757837134	0
0	275	70.586085770817	1
0	276	71.524157665823	0
0	330	91.281722031656	1
0	334	93.369919581252	0
1	0	0	0
2	0	0	0
2	5	4.674072849705	1
2	19	11.672748317768	0
2	48	15.748514754266	1
2	49	15.979583138744	0
2	129	32.422343322923	1
2	145	33.637981257846	0
2	160	37.333513117708	1
2	161	37.820486108173	0
2	176	40.325511432479	1
2	178	40.388169486093	2
2	198	46.718887972029	1
2	203	47.985684256861	0
2	207	50.776844354009	1
2	230	54.926522115136	2
2	246	59.51730897984	1
2	251	59.819765959011	0
2	316	85.022033170637	1
2	317	85.068717404924	0
2	333	92.155929422888	1
2	339	93.384536958162	0
3	16	11.215102530395	6.703887629331
3	21	11.672748317768	6.347912939666
3	28	12.168995606313	7.494922756608
3	32	12.955083286478	0.925954015683
3	39	14.195847925105	0.827499677596
3	51	15.979583138744	0.278355125147
3	55	18.31482716991	2.566312415644
3	62	19.143779435677	0.035666046108
3	75	22.937171706491	1.509965793346
3	79	23.023782914308	1.433726148825
3	88	24.547785020654	0.719072472738
3	96	26.490504259424	0.312027949601
3	106	29.79643630118	0.308377672051
3	113	31.045757419149	0.408352425354
3	122	32.237727382101	0.077367342602
3	137	33.241654581829	0.874113574468
3	142	33.422739987545	0.701571432417
3	147	33.637981257846	0.471361229729
3	151	34.017886960057	1.595543637134
3	163	37.820486108173	0.894690802317
3	167	38.039590216324	0.706077098616
3	184	43.829234705339	4.615172033027
3	194	46.517960554765	5.441449089408
3	200	46.718887972029	1.508043913437
3	205	47.985684256861	7.660172824382
3	219	53.489176260548	13.101006774455
3	224	53.73688331831	2.348725347853
3	235	58.169781102234	5.450358537241
3	240	58.299757837134	5.16613977944
3	248	59.51730897984	1.879433533007
3	253	59.819765959011	9.042921605002
3	257	59.939394588108	5.012872472972
3	264	66.254470529468	0.483770971999
3	278	71.524157665823	3.629440655178
3	283	72.808584919654	2.222499148837
3	291	75.532362270278	0.330972781861
3	298	75.91970826247	0.21840254911
3	308	83.577602280937	0.488533546551
3	319	85.068717404924	1.215717856684
3	323	85.427400247265	0.405367076628
3	336	93.369919581252	2.676665953596
3	341	93.384536958162	2.102814926506
3	345	95.318922927644	3.162993504756
4	16	11.215102530395	6.703887629331
4	21	11.672748317768	6.347912939666
4	32	12.955083286478	0.925954015683
4	62	19.143779435677	0.035666046108
4	75	22.937171706491	1.509965793346
4	79	23.023782914308	1.433726148825
4	88	24.547785020654	0.719072472738
4	96	26.490504259424	0.312027949601
4	106	29.79643630118	0.308377672051
4	122	32.237727382101	0.077367342602
4	137	33.241654581829	0.874113574468
4	142	33.422739987545	0.701571432417
4	147	33.637981257846	0.471361229729
4	163	37.820486108173	0.894690802317
4	184	43.829234705339	4.615172033027
4	194	46.517960554765	5.441449089408
4	200	46.718887972029	1.508043913437
4	224	53.73688331831	2.348725347853
4	235	58.169781102234	5.450358537241
4	240	58.299757837134	5.16613977944
4	248	59.51730897984	1.879433533007
4	278	71.524157665823	3.629440655178
4	283	72.808584919654	2.222499148837
4	291	75.532362270278	0.330972781861
4	298	75.91970826247	0.21840254911
4	308	83.577602280937	0.488533546551
4	319	85.068717404924	1.215717856684
4	336	93.369919581252	2.676665953596
4	341	93.384536958162	2.102814926506
5	28	12.168995606313	7.494922756608
5	39	14.195847925105	0.827499677596
5	51	15.979583138744	0.278355125147
5	55	18.31482716991	2.566312415644
5	113	31.045757419149	0.408352425354
5	151	34.017886960057	1.595543637134
5	167	38.039590216324	0.706077098616
5	205	47.985684256861	7.660172824382
5	219	53.489176260548	13.101006774455
5	253	59.819765959011	9.042921605002
5	257	59.939394588108	5.012872472972
5	264	66.254470529468	0.483770971999
5	323	85.427400247265	0.405367076628
5	345	95.318922927644	3.162993504756

