version 2
run Second-n5-17-20191125-12:37:38-1476
attr configname Second-n5
attr datetime 20191125-12:37:38
attr experiment Second-n5
attr inifile omnetpp.ini
attr iterationvars ""
attr iterationvarsf ""
attr measurement ""
attr network org.omnetpp.queueing.Pizza
attr processid 1476
attr repetition 17
attr replication ""
attr resultdir results_no_transient
attr runnumber 17
attr seedset 17
param **.PS.maxInventoriedPS 5
param **.U1.interArrivalTime exponential(3s)
param **.U2.interArrivalTime exponential(5s)
param **.PS.serviceTimeForInventoryU1 exponential(1.0s)
param **.PS.serviceTimeForInventoryU2 exponential(1.2s)
param **.PS.serviceTimeDirectU1 exponential(1.4s)
param **.PS.serviceTimeDirectU2 exponential(1.4s)
param **.PS.probabilityProducing 0.7
param **.CS.serviceTimeU1 exponential(1.1s)
param **.CS.serviceTimeU2 exponential(1.4s)

vector 0 Pizza.EntryQueueU1 queueLength:vector ETV
attr interpolationmode sample-hold
attr title "queue length, vector"
vector 1 Pizza.CS queueLength:vector ETV
attr interpolationmode sample-hold
attr title "queue length, vector"
vector 2 Pizza.EntryQueueU2 queueLength:vector ETV
attr interpolationmode sample-hold
attr title "queue length, vector"
vector 3 Pizza.sink lifeTime:vector ETV
attr interpolationmode none
attr title "lifetime of arrived jobs, vector"
attr unit s
vector 4 Pizza.sink lifeTimeU2:vector ETV
attr interpolationmode none
attr title "lifetime of arrived jobs, vector"
attr unit s
vector 5 Pizza.sink lifeTimeU1:vector ETV
attr interpolationmode none
attr title "lifetime of arrived jobs, vector"
attr unit s
0	0	0	0
0	5	1.047247255701	1
0	7	1.685048182551	2
0	15	5.771218478445	1
0	20	6.258382831417	0
0	33	8.276072354561	1
0	35	8.380819496546	2
0	42	11.480673859992	1
0	47	11.481910844286	0
0	67	14.674626647659	1
0	69	14.845103984812	2
0	70	15.389760241758	1
0	77	15.770095728749	0
0	86	17.032174435107	1
0	88	17.289958607118	2
0	90	17.486420221813	3
0	93	17.728109229284	2
0	98	17.866817922706	1
0	105	19.848784397119	2
0	110	21.510520232944	1
0	115	21.567010201154	0
0	132	24.636391486921	1
0	133	25.500199534336	0
0	158	30.362829056506	1
0	160	31.282946486525	0
0	174	35.691239931638	1
0	176	36.230962060855	2
0	178	36.278424107608	3
0	179	37.29244545204	2
0	187	37.599177465768	3
0	188	38.900468474799	2
0	193	39.44978042398	1
0	198	39.746435543812	0
0	219	43.767378934271	1
0	221	44.083078006596	0
0	275	63.121885378216	1
0	276	63.308662986789	0
0	298	68.995937869917	1
0	299	69.327970356865	0
0	332	81.031804651445	1
0	335	83.00152401242	0
0	341	83.207468183948	1
0	343	83.320477659208	2
0	346	85.042790899212	1
0	351	86.718517203165	0
1	0	0	0
2	0	0	0
2	11	4.78446540537	1
2	26	7.424521447036	2
2	28	7.734136113635	3
2	29	7.751074868082	2
2	53	11.958841836209	3
2	56	12.388768195075	2
2	61	13.365254367554	1
2	76	15.677585396166	2
2	84	16.648641472685	3
2	109	21.403259052129	4
2	120	23.064028754096	3
2	125	23.399542204965	2
2	138	25.532749094543	1
2	144	28.803575911564	0
2	185	37.597089645746	1
2	206	40.598924143726	2
2	208	42.432456974763	1
2	213	43.472896717473	0
2	329	79.755841997541	1
2	334	82.209122050293	2
2	356	87.854395963681	1
2	361	87.983511226432	0
2	367	88.418761383503	1
2	368	88.42387887054	0
2	374	88.630038477622	1
2	376	90.086492905007	0
3	17	5.771218478445	4.768111945177
3	22	6.258382831417	5.211135575716
3	31	7.751074868082	6.066026685531
3	44	11.480673859992	6.696208454622
3	49	11.481910844286	3.205838489725
3	58	12.388768195075	4.007948698529
3	63	13.365254367554	5.940732920518
3	72	15.389760241758	7.655624128123
3	79	15.770095728749	1.09546908109
3	95	17.728109229284	2.883005244472
3	100	17.866817922706	0.834643487599
3	112	21.510520232944	4.220561625826
3	117	21.567010201154	4.080589979341
3	122	23.064028754096	3.215244356977
3	127	23.399542204965	11.440700368756
3	135	25.500199534336	9.82261413817
3	140	25.532749094543	0.896357607622
3	146	28.803575911564	12.154934438879
3	150	29.58441016061	8.181151108481
3	162	31.282946486525	0.952377177118
3	166	31.350330729799	0.987501673293
3	181	37.29244545204	2.368294785072
3	190	38.900468474799	3.209228543161
3	195	39.44978042398	3.218818363125
3	200	39.746435543812	3.468011436204
3	210	42.432456974763	4.833279508995
3	215	43.472896717473	5.875807071727
3	223	44.083078006596	3.48415386287
3	227	45.512853268961	1.74547433469
3	239	47.659781940428	1.433718010278
3	246	51.478764187559	3.811826123183
3	253	53.848760485813	0.499511706525
3	260	56.166800968381	0.286862340907
3	278	63.308662986789	2.06175758711
3	282	63.717636187742	0.595750809526
3	290	64.835087777696	1.030358130411
3	301	69.327970356865	0.951224614311
3	306	69.827727873899	0.831790003982
3	314	74.898692058767	3.463105877451
3	321	76.21593177112	0.19668716526
3	337	83.00152401242	3.74011295523
3	348	85.042790899212	4.010986247767
3	353	86.718517203165	3.511049019217
3	358	87.854395963681	4.533918304473
3	363	87.983511226432	8.227669228891
3	370	88.42387887054	6.214756820247
3	378	90.086492905007	1.667731521504
3	383	91.319230990032	2.68919251241
3	394	98.419758937318	0.508950824373
4	17	5.771218478445	4.768111945177
4	44	11.480673859992	6.696208454622
4	63	13.365254367554	5.940732920518
4	72	15.389760241758	7.655624128123
4	127	23.399542204965	11.440700368756
4	135	25.500199534336	9.82261413817
4	146	28.803575911564	12.154934438879
4	150	29.58441016061	8.181151108481
4	215	43.472896717473	5.875807071727
4	223	44.083078006596	3.48415386287
4	239	47.659781940428	1.433718010278
4	246	51.478764187559	3.811826123183
4	290	64.835087777696	1.030358130411
4	301	69.327970356865	0.951224614311
4	363	87.983511226432	8.227669228891
4	370	88.42387887054	6.214756820247
4	378	90.086492905007	1.667731521504
4	383	91.319230990032	2.68919251241
5	22	6.258382831417	5.211135575716
5	31	7.751074868082	6.066026685531
5	49	11.481910844286	3.205838489725
5	58	12.388768195075	4.007948698529
5	79	15.770095728749	1.09546908109
5	95	17.728109229284	2.883005244472
5	100	17.866817922706	0.834643487599
5	112	21.510520232944	4.220561625826
5	117	21.567010201154	4.080589979341
5	122	23.064028754096	3.215244356977
5	140	25.532749094543	0.896357607622
5	162	31.282946486525	0.952377177118
5	166	31.350330729799	0.987501673293
5	181	37.29244545204	2.368294785072
5	190	38.900468474799	3.209228543161
5	195	39.44978042398	3.218818363125
5	200	39.746435543812	3.468011436204
5	210	42.432456974763	4.833279508995
5	227	45.512853268961	1.74547433469
5	253	53.848760485813	0.499511706525
5	260	56.166800968381	0.286862340907
5	278	63.308662986789	2.06175758711
5	282	63.717636187742	0.595750809526
5	306	69.827727873899	0.831790003982
5	314	74.898692058767	3.463105877451
5	321	76.21593177112	0.19668716526
5	337	83.00152401242	3.74011295523
5	348	85.042790899212	4.010986247767
5	353	86.718517203165	3.511049019217
5	358	87.854395963681	4.533918304473
5	394	98.419758937318	0.508950824373

