version 2
run Second-n4-7-20191125-12:37:21-4232
attr configname Second-n4
attr datetime 20191125-12:37:21
attr experiment Second-n4
attr inifile omnetpp.ini
attr iterationvars ""
attr iterationvarsf ""
attr measurement ""
attr network org.omnetpp.queueing.Pizza
attr processid 4232
attr repetition 7
attr replication ""
attr resultdir results_no_transient
attr runnumber 7
attr seedset 7
param **.PS.maxInventoriedPS 4
param **.U1.interArrivalTime exponential(3s)
param **.U2.interArrivalTime exponential(5s)
param **.PS.serviceTimeForInventoryU1 exponential(1.0s)
param **.PS.serviceTimeForInventoryU2 exponential(1.2s)
param **.PS.serviceTimeDirectU1 exponential(1.4s)
param **.PS.serviceTimeDirectU2 exponential(1.4s)
param **.PS.probabilityProducing 0.7
param **.CS.serviceTimeU1 exponential(1.1s)
param **.CS.serviceTimeU2 exponential(1.4s)

vector 0 Pizza.EntryQueueU1 queueLength:vector ETV
attr interpolationmode sample-hold
attr title "queue length, vector"
vector 1 Pizza.CS queueLength:vector ETV
attr interpolationmode sample-hold
attr title "queue length, vector"
vector 2 Pizza.EntryQueueU2 queueLength:vector ETV
attr interpolationmode sample-hold
attr title "queue length, vector"
vector 3 Pizza.sink lifeTime:vector ETV
attr interpolationmode none
attr title "lifetime of arrived jobs, vector"
attr unit s
vector 4 Pizza.sink lifeTimeU1:vector ETV
attr interpolationmode none
attr title "lifetime of arrived jobs, vector"
attr unit s
vector 5 Pizza.sink lifeTimeU2:vector ETV
attr interpolationmode none
attr title "lifetime of arrived jobs, vector"
attr unit s
0	0	0	0
0	14	4.779406805032	1
0	18	7.09919964411	2
0	25	8.293738667358	1
0	30	8.735642724385	0
0	39	9.185371518969	1
0	41	10.205017169046	2
0	44	10.71731878631	1
0	52	13.552145425386	2
0	54	13.627788794119	3
0	56	14.25607095439	2
0	61	14.544004970507	1
0	70	17.449857264656	0
0	76	17.795838593344	1
0	80	18.440455724807	2
0	81	18.666101870032	1
0	90	20.464998013627	2
0	93	21.989219658012	1
0	99	22.344554463221	0
0	120	24.856436365824	1
0	121	24.908604107968	0
0	127	26.454585982508	1
0	128	26.644177400707	0
0	137	27.051591534572	1
0	144	29.154858304015	2
0	145	29.214037583974	1
0	154	30.424473387844	0
0	160	30.76270394585	1
0	162	31.892274031542	0
0	187	40.097367640639	1
0	188	40.28189107195	0
0	210	42.825828647104	1
0	211	43.150939240309	0
0	219	43.897649300426	1
0	222	46.476039722068	0
0	261	53.206793985757	1
0	263	53.422094351365	2
0	265	54.746367185522	1
0	270	55.453557564893	0
0	276	55.477732911318	1
0	277	56.461077137946	0
0	295	59.493667778686	1
0	296	59.990448165694	0
0	302	61.044443214793	1
0	305	61.66182385541	2
0	307	62.447596552619	3
0	309	63.11888031254	2
0	315	64.87876005518	1
0	321	65.056157297328	2
0	322	65.474961026119	1
0	328	65.613425054962	2
0	329	66.741387992132	1
0	335	67.015513270069	0
1	0	0	0
2	0	0	0
2	7	1.289574873422	1
2	8	2.18990419039	0
2	12	4.329791302035	1
2	16	6.170730166792	2
2	24	7.702478603867	3
2	35	8.810674482697	2
2	50	13.387633074881	3
2	67	14.910647028529	4
2	104	22.823467562785	3
2	109	23.288671622309	2
2	114	24.148982645453	1
2	133	27.037052808387	0
2	142	28.783948391683	1
2	153	30.283637873463	2
2	168	32.075894451962	1
2	173	32.451146037239	0
2	177	33.998956509575	1
2	180	36.123377587171	0
2	245	50.964378918098	1
2	246	51.43949697337	0
3	10	2.18990419039	1.951773455984
3	27	8.293738667358	7.004163793936
3	32	8.735642724385	3.956235919353
3	37	8.810674482697	1.711474838587
3	46	10.71731878631	6.387527484275
3	58	14.25607095439	5.070699435421
3	63	14.544004970507	4.338987801461
3	72	17.449857264656	3.89771183927
3	83	18.666101870032	5.038313075913
3	95	21.989219658012	4.193381064668
3	101	22.344554463221	3.904098738414
3	106	22.823467562785	2.358469549158
3	111	23.288671622309	17.117941455517
3	116	24.148982645453	16.446504041586
3	123	24.908604107968	11.520971033087
3	130	26.644177400707	1.787741034883
3	135	27.037052808387	0.582466825879
3	147	29.214037583974	14.303390555445
3	156	30.424473387844	3.372881853272
3	164	31.892274031542	2.737415727527
3	170	32.075894451962	1.313190506112
3	175	32.451146037239	3.667197645556
3	182	36.123377587171	5.839739713708
3	190	40.28189107195	6.282934562375
3	194	40.326389825455	0.229022184816
3	202	42.283306848317	1.764320761886
3	213	43.150939240309	0.766701738353
3	224	46.476039722068	3.650211074964
3	231	48.240946889073	4.343297588647
3	238	48.668743840016	0.297457937065
3	248	51.43949697337	0.682644872971
3	252	51.710140840975	0.745761922877
3	267	54.746367185522	2.163278697139
3	272	55.453557564893	2.246763579136
3	279	56.461077137946	3.038982786581
3	286	58.354883156899	2.877150245581
3	298	59.990448165694	1.09153628962
3	311	63.11888031254	3.625212533854
3	317	64.87876005518	3.834316840387
3	324	65.474961026119	3.813137170709
3	331	66.741387992132	4.293791439513
3	337	67.015513270069	1.959355972741
3	341	67.828833387786	2.215408332824
3	349	71.7833767538	0.335731115923
3	357	73.240233811336	0.308090169512
3	366	84.584308059563	2.053215392454
3	374	87.544659228998	1.202885327098
3	384	90.324046082614	1.343120339754
3	391	92.201406072835	0.826862471133
3	398	92.85076594926	0.009075487753
3	405	93.051398072448	0.072309976635
3	412	93.788525991058	0.032848888263
3	422	97.343698447778	1.312321306588
3	430	98.263175238635	0.043733113406
3	440	99.93973665037	1.122438814662
4	10	2.18990419039	1.951773455984
4	32	8.735642724385	3.956235919353
4	37	8.810674482697	1.711474838587
4	58	14.25607095439	5.070699435421
4	63	14.544004970507	4.338987801461
4	72	17.449857264656	3.89771183927
4	83	18.666101870032	5.038313075913
4	95	21.989219658012	4.193381064668
4	101	22.344554463221	3.904098738414
4	106	22.823467562785	2.358469549158
4	130	26.644177400707	1.787741034883
4	135	27.037052808387	0.582466825879
4	156	30.424473387844	3.372881853272
4	164	31.892274031542	2.737415727527
4	170	32.075894451962	1.313190506112
4	194	40.326389825455	0.229022184816
4	202	42.283306848317	1.764320761886
4	213	43.150939240309	0.766701738353
4	224	46.476039722068	3.650211074964
4	231	48.240946889073	4.343297588647
4	238	48.668743840016	0.297457937065
4	272	55.453557564893	2.246763579136
4	279	56.461077137946	3.038982786581
4	286	58.354883156899	2.877150245581
4	311	63.11888031254	3.625212533854
4	317	64.87876005518	3.834316840387
4	324	65.474961026119	3.813137170709
4	331	66.741387992132	4.293791439513
4	337	67.015513270069	1.959355972741
4	341	67.828833387786	2.215408332824
4	349	71.7833767538	0.335731115923
4	366	84.584308059563	2.053215392454
4	374	87.544659228998	1.202885327098
4	384	90.324046082614	1.343120339754
4	391	92.201406072835	0.826862471133
4	398	92.85076594926	0.009075487753
4	405	93.051398072448	0.072309976635
4	422	97.343698447778	1.312321306588
4	430	98.263175238635	0.043733113406
5	27	8.293738667358	7.004163793936
5	46	10.71731878631	6.387527484275
5	111	23.288671622309	17.117941455517
5	116	24.148982645453	16.446504041586
5	123	24.908604107968	11.520971033087
5	147	29.214037583974	14.303390555445
5	175	32.451146037239	3.667197645556
5	182	36.123377587171	5.839739713708
5	190	40.28189107195	6.282934562375
5	248	51.43949697337	0.682644872971
5	252	51.710140840975	0.745761922877
5	267	54.746367185522	2.163278697139
5	298	59.990448165694	1.09153628962
5	357	73.240233811336	0.308090169512
5	412	93.788525991058	0.032848888263
5	440	99.93973665037	1.122438814662

