version 2
run Second-n3-3-20191125-12:37:04-9004
attr configname Second-n3
attr datetime 20191125-12:37:04
attr experiment Second-n3
attr inifile omnetpp.ini
attr iterationvars ""
attr iterationvarsf ""
attr measurement ""
attr network org.omnetpp.queueing.Pizza
attr processid 9004
attr repetition 3
attr replication ""
attr resultdir results_no_transient
attr runnumber 3
attr seedset 3
param **.PS.maxInventoriedPS 3
param **.U1.interArrivalTime exponential(3s)
param **.U2.interArrivalTime exponential(5s)
param **.PS.serviceTimeForInventoryU1 exponential(1.0s)
param **.PS.serviceTimeForInventoryU2 exponential(1.2s)
param **.PS.serviceTimeDirectU1 exponential(1.4s)
param **.PS.serviceTimeDirectU2 exponential(1.4s)
param **.PS.probabilityProducing 0.7
param **.CS.serviceTimeU1 exponential(1.1s)
param **.CS.serviceTimeU2 exponential(1.4s)

vector 0 Pizza.EntryQueueU1 queueLength:vector ETV
attr interpolationmode sample-hold
attr title "queue length, vector"
vector 1 Pizza.CS queueLength:vector ETV
attr interpolationmode sample-hold
attr title "queue length, vector"
vector 2 Pizza.EntryQueueU2 queueLength:vector ETV
attr interpolationmode sample-hold
attr title "queue length, vector"
vector 3 Pizza.sink lifeTime:vector ETV
attr interpolationmode none
attr title "lifetime of arrived jobs, vector"
attr unit s
vector 4 Pizza.sink lifeTimeU2:vector ETV
attr interpolationmode none
attr title "lifetime of arrived jobs, vector"
attr unit s
vector 5 Pizza.sink lifeTimeU1:vector ETV
attr interpolationmode none
attr title "lifetime of arrived jobs, vector"
attr unit s
0	0	0	0
0	5	2.400847172678	1
0	9	3.432143397568	2
0	11	4.111238126736	1
0	16	4.156865278345	0
0	37	10.135435936346	1
0	45	12.171015222698	2
0	46	14.544762745751	1
0	52	14.626153979526	2
0	54	15.111007312304	1
0	59	16.082734051264	0
0	65	16.235103274289	1
0	66	16.270428637503	0
0	72	18.053853411842	1
0	76	19.151275241333	2
0	78	19.243322097533	1
0	82	19.904199110127	2
0	89	21.450452234178	1
0	94	25.274381729508	0
0	115	28.168853548627	1
0	118	29.054988707499	0
0	131	32.305706955495	1
0	133	33.790864079367	0
0	144	34.124535847799	1
0	146	34.398347809865	2
0	148	36.612973321249	1
0	154	37.107919170832	0
0	161	37.937493518909	1
0	162	38.400105413589	0
0	168	39.078133816967	1
0	171	39.613434488594	0
0	178	41.094001286221	1
0	183	41.537814431899	0
0	197	42.861146948872	1
0	199	42.94025977935	2
0	200	43.607571359533	1
0	206	46.359113807823	0
0	213	46.801661533403	1
0	215	47.776040455827	2
0	219	48.441633659722	3
0	221	48.935765858334	4
0	224	49.219208043465	3
0	234	50.753588505927	2
0	241	51.958628592465	1
0	246	52.452385069028	0
0	286	62.843021653181	1
0	293	66.723288100144	2
0	296	67.348979838454	3
0	297	67.398302975153	2
0	302	67.606401530631	1
0	308	67.631222508743	2
0	311	68.570457354232	3
0	312	69.310708180892	2
0	318	70.392903950415	3
0	319	70.504823074594	2
0	324	70.753276367697	1
0	328	71.650468613501	2
0	330	71.769555556189	3
0	334	72.233671157382	4
0	336	72.384738438494	5
0	337	72.527368884326	4
0	342	73.175277536978	3
0	346	73.276749546562	4
0	349	75.002935811782	3
0	354	78.671625823924	2
0	359	79.367100692757	1
0	363	80.117372462721	2
0	365	80.295767463359	3
0	369	80.712375910422	4
0	371	81.45160439194	5
0	376	83.786156838491	6
0	377	83.847516292852	5
0	382	84.03625773271	4
0	386	84.345266805674	5
0	389	86.143088259584	4
0	393	86.253673698855	5
0	395	86.454251553385	6
0	398	87.102914296918	5
0	403	89.669978387732	4
0	409	90.033844625961	5
0	413	91.814748439382	4
0	418	92.387524944305	3
0	422	92.503518378931	4
0	427	93.005918679911	3
0	433	94.823102039813	4
0	435	95.323888685819	5
0	439	97.383386394883	6
0	441	97.706833603394	5
0	446	99.326318511015	4
1	0	0	0
2	0	0	0
2	41	11.72644319718	1
2	43	11.847813849363	2
2	74	19.106276097132	3
2	84	20.595512526873	4
2	86	20.699662261217	5
2	100	26.526460684451	4
2	105	27.154689738716	3
2	111	27.685929733478	2
2	124	30.221263896998	1
2	138	34.038219353391	0
2	170	39.347217080285	1
2	182	41.42364794584	2
2	188	41.961226608957	1
2	195	42.813464685792	2
2	217	48.069392263907	3
2	223	49.037692936313	4
2	231	49.565075237528	5
2	233	50.182791528148	6
2	240	51.222926111984	7
2	251	52.789393379792	6
2	257	56.122046426424	5
2	264	56.945345251054	6
2	266	58.37949046631	5
2	271	60.536218377876	4
2	277	61.174076037632	3
2	282	62.576290600735	2
2	290	63.772949870349	3
2	373	81.668299060837	4
2	412	90.364078968737	5
2	424	92.588546909513	6
2	431	94.471616914102	7
3	13	4.111238126736	3.744485936914
3	18	4.156865278345	1.756018105667
3	23	4.590042176982	1.157898779414
3	32	8.447590163542	1.923298747511
3	48	14.544762745751	5.002363748681
3	56	15.111007312304	4.975571375958
3	61	16.082734051264	3.911718828566
3	68	16.270428637503	1.644274657977
3	80	19.243322097533	3.008218823244
3	91	21.450452234178	3.396598822336
3	96	25.274381729508	6.123106488175
3	102	26.526460684451	6.622261574324
3	107	27.154689738716	15.428246541536
3	113	27.685929733478	15.838115884115
3	120	29.054988707499	9.948712610367
3	126	30.221263896998	2.052410348371
3	135	33.790864079367	13.195351552494
3	140	34.038219353391	1.732512397896
3	150	36.612973321249	15.913311060032
3	156	37.107919170832	2.983383323033
3	164	38.400105413589	4.001757603724
3	173	39.613434488594	1.675940969685
3	185	41.537814431899	2.459680614932
3	190	41.961226608957	0.867225322736
3	202	43.607571359533	4.260354279248
3	208	46.359113807823	3.497966858951
3	226	49.219208043465	6.278948264115
3	236	50.753588505927	3.951926972524
3	243	51.958628592465	4.182588136638
3	248	52.452385069028	4.010751409306
3	253	52.789393379792	3.853627521458
3	259	56.122046426424	14.698398480584
3	268	58.37949046631	15.566025780518
3	273	60.536218377876	12.466826113969
3	279	61.174076037632	12.136383101319
3	284	62.576290600735	13.011215363207
3	299	67.398302975153	17.215511447005
3	304	67.606401530631	4.76337987745
3	314	69.310708180892	2.587420080748
3	321	70.504823074594	3.15584323614
3	326	70.753276367697	3.122053858954
3	339	72.527368884326	3.956911530094
3	344	73.175277536978	2.782373586563
3	351	75.002935811782	3.352467198281
3	356	78.671625823924	6.902070267735
3	361	79.367100692757	7.133429535375
3	379	83.847516292852	11.462777854358
3	384	84.03625773271	10.759508186148
3	391	86.143088259584	6.025715796863
3	400	87.102914296918	6.807146833559
3	405	89.669978387732	8.95760247731
3	415	91.814748439382	10.363144047442
3	420	92.387524944305	8.601368105814
3	429	93.005918679911	8.660651874237
3	443	97.706833603394	11.453159904539
3	448	99.326318511015	12.87206695763
4	13	4.111238126736	3.744485936914
4	32	8.447590163542	1.923298747511
4	48	14.544762745751	5.002363748681
4	107	27.154689738716	15.428246541536
4	113	27.685929733478	15.838115884115
4	120	29.054988707499	9.948712610367
4	135	33.790864079367	13.195351552494
4	150	36.612973321249	15.913311060032
4	202	43.607571359533	4.260354279248
4	259	56.122046426424	14.698398480584
4	268	58.37949046631	15.566025780518
4	273	60.536218377876	12.466826113969
4	279	61.174076037632	12.136383101319
4	284	62.576290600735	13.011215363207
4	299	67.398302975153	17.215511447005
5	18	4.156865278345	1.756018105667
5	23	4.590042176982	1.157898779414
5	56	15.111007312304	4.975571375958
5	61	16.082734051264	3.911718828566
5	68	16.270428637503	1.644274657977
5	80	19.243322097533	3.008218823244
5	91	21.450452234178	3.396598822336
5	96	25.274381729508	6.123106488175
5	102	26.526460684451	6.622261574324
5	126	30.221263896998	2.052410348371
5	140	34.038219353391	1.732512397896
5	156	37.107919170832	2.983383323033
5	164	38.400105413589	4.001757603724
5	173	39.613434488594	1.675940969685
5	185	41.537814431899	2.459680614932
5	190	41.961226608957	0.867225322736
5	208	46.359113807823	3.497966858951
5	226	49.219208043465	6.278948264115
5	236	50.753588505927	3.951926972524
5	243	51.958628592465	4.182588136638
5	248	52.452385069028	4.010751409306
5	253	52.789393379792	3.853627521458
5	304	67.606401530631	4.76337987745
5	314	69.310708180892	2.587420080748
5	321	70.504823074594	3.15584323614
5	326	70.753276367697	3.122053858954
5	339	72.527368884326	3.956911530094
5	344	73.175277536978	2.782373586563
5	351	75.002935811782	3.352467198281
5	356	78.671625823924	6.902070267735
5	361	79.367100692757	7.133429535375
5	379	83.847516292852	11.462777854358
5	384	84.03625773271	10.759508186148
5	391	86.143088259584	6.025715796863
5	400	87.102914296918	6.807146833559
5	405	89.669978387732	8.95760247731
5	415	91.814748439382	10.363144047442
5	420	92.387524944305	8.601368105814
5	429	93.005918679911	8.660651874237
5	443	97.706833603394	11.453159904539
5	448	99.326318511015	12.87206695763

