version 2
run Second-n5-16-20191125-12:37:37-6264
attr configname Second-n5
attr datetime 20191125-12:37:37
attr experiment Second-n5
attr inifile omnetpp.ini
attr iterationvars ""
attr iterationvarsf ""
attr measurement ""
attr network org.omnetpp.queueing.Pizza
attr processid 6264
attr repetition 16
attr replication ""
attr resultdir results_no_transient
attr runnumber 16
attr seedset 16
param **.PS.maxInventoriedPS 5
param **.U1.interArrivalTime exponential(3s)
param **.U2.interArrivalTime exponential(5s)
param **.PS.serviceTimeForInventoryU1 exponential(1.0s)
param **.PS.serviceTimeForInventoryU2 exponential(1.2s)
param **.PS.serviceTimeDirectU1 exponential(1.4s)
param **.PS.serviceTimeDirectU2 exponential(1.4s)
param **.PS.probabilityProducing 0.7
param **.CS.serviceTimeU1 exponential(1.1s)
param **.CS.serviceTimeU2 exponential(1.4s)

vector 0 Pizza.EntryQueueU1 queueLength:vector ETV
attr interpolationmode sample-hold
attr title "queue length, vector"
vector 1 Pizza.CS queueLength:vector ETV
attr interpolationmode sample-hold
attr title "queue length, vector"
vector 2 Pizza.EntryQueueU2 queueLength:vector ETV
attr interpolationmode sample-hold
attr title "queue length, vector"
vector 3 Pizza.sink lifeTime:vector ETV
attr interpolationmode none
attr title "lifetime of arrived jobs, vector"
attr unit s
vector 4 Pizza.sink lifeTimeU1:vector ETV
attr interpolationmode none
attr title "lifetime of arrived jobs, vector"
attr unit s
vector 5 Pizza.sink lifeTimeU2:vector ETV
attr interpolationmode none
attr title "lifetime of arrived jobs, vector"
attr unit s
0	0	0	0
0	45	9.2903050542	1
0	48	9.914434880797	0
0	77	15.211313456074	1
0	79	15.375630449373	2
0	80	15.585334023752	1
0	86	15.679962149847	2
0	87	16.229736376152	1
0	93	17.419859596426	0
0	134	23.678490481336	1
0	135	23.868745486737	0
0	199	48.055733194021	1
0	201	48.276148362825	0
0	256	68.5906325156	1
0	257	68.808829744706	0
0	295	85.976056360682	1
0	299	88.857259626574	0
0	312	91.154440329099	1
0	313	91.33782352579	0
0	326	94.0080876349	1
0	329	94.234208214151	2
0	330	94.989680542421	1
0	336	95.48181817727	2
0	338	95.848265518348	1
0	343	96.187649772085	0
1	0	0	0
2	0	0	0
2	47	9.524960187232	1
2	53	10.267618034822	0
2	113	22.011091808169	1
2	114	22.636060612687	0
2	183	45.721463888915	1
2	184	46.122527996855	0
2	241	63.692486979478	1
2	242	63.797118280239	0
2	298	87.495946785499	1
2	306	90.095688203924	0
2	365	99.75840228944	1
3	7	0.889627516804	0.13155866397
3	17	2.079583953941	0.102088097642
3	24	3.892133504409	0.912320772943
3	37	7.411618173235	0.130099597975
3	50	9.914434880797	1.350582009843
3	55	10.267618034822	0.977312980622
3	61	10.796403194993	1.271443007761
3	69	12.373128955648	1.575068389008
3	82	15.585334023752	0.598906963381
3	89	16.229736376152	1.018422920078
3	95	17.419859596426	2.044229147053
3	99	17.557598716913	1.877636567066
3	116	22.636060612687	1.674710423364
3	120	22.975726064984	0.964634256815
3	127	23.570076535678	0.0204284672
3	137	23.868745486737	0.288080517672
3	142	24.834184323283	1.155693841947
3	151	28.803784259575	1.827030813623
3	160	33.654937025996	4.429102297237
3	168	39.063805807585	1.355519084141
3	176	43.56805877581	1.900702893335
3	186	46.122527996855	1.744898879903
3	190	46.433464330081	0.712000441166
3	203	48.276148362825	0.455710163777
3	207	48.869035273087	0.813302079066
3	216	50.788901778106	1.413305250993
3	225	52.970352000649	2.029837745509
3	232	61.277353935214	0.14586634772
3	244	63.797118280239	2.425032925723
3	248	63.94795999459	0.255473015112
3	259	68.808829744706	0.292871770001
3	265	69.634224982974	1.043592467374
3	272	72.565461420513	0.789256122279
3	280	75.968426835689	0.859209689492
3	287	83.198157717807	0.903940937346
3	301	88.857259626574	3.813591250668
3	308	90.095688203924	4.119631843242
3	315	91.33782352579	3.841876740291
3	319	91.683285733705	0.528845404606
3	332	94.989680542421	2.495675811181
3	340	95.848265518348	1.840177883448
3	345	96.187649772085	1.953441557934
3	351	97.296212885251	1.814394707981
3	358	98.921838664552	0.112246926059
4	7	0.889627516804	0.13155866397
4	24	3.892133504409	0.912320772943
4	50	9.914434880797	1.350582009843
4	55	10.267618034822	0.977312980622
4	69	12.373128955648	1.575068389008
4	82	15.585334023752	0.598906963381
4	89	16.229736376152	1.018422920078
4	95	17.419859596426	2.044229147053
4	99	17.557598716913	1.877636567066
4	116	22.636060612687	1.674710423364
4	127	23.570076535678	0.0204284672
4	137	23.868745486737	0.288080517672
4	142	24.834184323283	1.155693841947
4	151	28.803784259575	1.827030813623
4	168	39.063805807585	1.355519084141
4	176	43.56805877581	1.900702893335
4	186	46.122527996855	1.744898879903
4	203	48.276148362825	0.455710163777
4	207	48.869035273087	0.813302079066
4	216	50.788901778106	1.413305250993
4	225	52.970352000649	2.029837745509
4	232	61.277353935214	0.14586634772
4	244	63.797118280239	2.425032925723
4	265	69.634224982974	1.043592467374
4	272	72.565461420513	0.789256122279
4	280	75.968426835689	0.859209689492
4	287	83.198157717807	0.903940937346
4	301	88.857259626574	3.813591250668
4	308	90.095688203924	4.119631843242
4	319	91.683285733705	0.528845404606
4	332	94.989680542421	2.495675811181
4	340	95.848265518348	1.840177883448
4	345	96.187649772085	1.953441557934
4	351	97.296212885251	1.814394707981
4	358	98.921838664552	0.112246926059
5	17	2.079583953941	0.102088097642
5	37	7.411618173235	0.130099597975
5	61	10.796403194993	1.271443007761
5	120	22.975726064984	0.964634256815
5	160	33.654937025996	4.429102297237
5	190	46.433464330081	0.712000441166
5	248	63.94795999459	0.255473015112
5	259	68.808829744706	0.292871770001
5	315	91.33782352579	3.841876740291

