version 2
run Second-n3-11-20191125-12:37:16-7504
attr configname Second-n3
attr datetime 20191125-12:37:16
attr experiment Second-n3
attr inifile omnetpp.ini
attr iterationvars ""
attr iterationvarsf ""
attr measurement ""
attr network org.omnetpp.queueing.Pizza
attr processid 7504
attr repetition 11
attr replication ""
attr resultdir results_no_transient
attr runnumber 11
attr seedset 11
param **.PS.maxInventoriedPS 3
param **.U1.interArrivalTime exponential(3s)
param **.U2.interArrivalTime exponential(5s)
param **.PS.serviceTimeForInventoryU1 exponential(1.0s)
param **.PS.serviceTimeForInventoryU2 exponential(1.2s)
param **.PS.serviceTimeDirectU1 exponential(1.4s)
param **.PS.serviceTimeDirectU2 exponential(1.4s)
param **.PS.probabilityProducing 0.7
param **.CS.serviceTimeU1 exponential(1.1s)
param **.CS.serviceTimeU2 exponential(1.4s)

vector 0 Pizza.EntryQueueU1 queueLength:vector ETV
attr interpolationmode sample-hold
attr title "queue length, vector"
vector 1 Pizza.CS queueLength:vector ETV
attr interpolationmode sample-hold
attr title "queue length, vector"
vector 2 Pizza.EntryQueueU2 queueLength:vector ETV
attr interpolationmode sample-hold
attr title "queue length, vector"
vector 3 Pizza.sink lifeTime:vector ETV
attr interpolationmode none
attr title "lifetime of arrived jobs, vector"
attr unit s
vector 4 Pizza.sink lifeTimeU2:vector ETV
attr interpolationmode none
attr title "lifetime of arrived jobs, vector"
attr unit s
vector 5 Pizza.sink lifeTimeU1:vector ETV
attr interpolationmode none
attr title "lifetime of arrived jobs, vector"
attr unit s
0	0	0	0
0	7	0.596339664521	1
0	9	1.243784658675	2
0	12	2.039243283073	1
0	22	5.116016474486	2
0	23	5.462739358186	1
0	28	5.589365504585	0
0	41	11.729893309499	1
0	42	11.87554105472	0
0	48	12.10229102321	1
0	51	12.617904401435	2
0	52	13.531638208422	1
0	57	13.996439819111	0
0	119	25.115960618702	1
0	122	27.729567194481	0
0	136	29.955378066597	1
0	137	30.002745026566	0
0	143	30.871845498268	1
0	144	31.454582935978	0
0	155	35.314534327064	1
0	159	37.546627055825	0
0	170	41.516586529012	1
0	173	41.95736691734	0
0	179	42.848134548507	1
0	185	45.112381040435	0
0	191	46.020097116795	1
0	193	47.442760179865	0
0	225	49.934680286705	1
0	227	51.225869221189	0
0	234	51.445700594363	1
0	241	54.061073009317	0
0	253	56.815657087304	1
0	254	56.901083783038	0
0	266	58.035427333437	1
0	268	58.739898898539	2
0	271	59.069792195105	1
0	276	59.491092353783	0
0	288	61.964811918698	1
0	291	62.252411061821	2
0	294	63.551118574491	3
0	295	63.724272638985	2
0	302	64.090356282265	3
0	303	65.083286322557	2
0	308	65.898785689252	1
0	314	67.074879543789	0
0	352	78.89677115344	1
0	353	79.971277121924	0
0	382	89.37961109916	1
0	384	90.974264436169	2
0	386	91.791053513443	3
0	390	92.408758739952	4
0	391	93.389178371204	3
0	398	94.538310109545	2
0	403	94.631026578128	1
0	409	95.442004512271	0
1	0	0	0
2	0	0	0
2	5	0.452095681263	1
2	19	3.562916738516	2
2	33	7.282185063806	1
2	62	14.421177835127	0
2	177	42.640460234711	1
2	181	42.920284410218	2
2	198	47.553977512746	1
2	204	48.180558815661	2
2	205	48.191238222556	1
2	210	48.300387398434	0
2	236	51.66416269971	1
2	240	53.586666323256	2
2	246	54.857876221157	1
2	260	57.893791562021	0
2	270	58.808088649482	1
2	282	60.911737397345	0
2	366	81.729613179987	1
2	367	81.913861316251	0
2	371	82.408988178924	1
2	375	86.474513485278	2
2	378	88.090416735836	1
2	415	95.797789059868	0
2	422	98.614999228637	1
3	14	2.039243283073	1.685484509349
3	25	5.462739358186	4.866399693665
3	30	5.589365504585	4.34558084591
3	35	7.282185063806	2.16616858932
3	44	11.87554105472	11.423445373457
3	54	13.531638208422	1.801744898923
3	59	13.996439819111	1.894148795901
3	64	14.421177835127	1.803273433692
3	69	14.657204006723	11.094287268207
3	80	19.142187205626	1.359349365474
3	87	21.020119566117	0.776689350546
3	96	21.979976888427	0.929455531522
3	103	23.080208240038	0.072385338448
3	112	24.720635104689	0.041406638887
3	124	27.729567194481	2.832553099364
3	129	29.637670267422	4.52170964872
3	139	30.002745026566	0.203396216887
3	146	31.454582935978	1.499204869381
3	150	31.477628957636	0.605783459368
3	161	37.546627055825	3.389533763292
3	165	38.312995616302	2.998461289238
3	175	41.95736691734	1.974899851651
3	187	45.112381040435	3.595794511423
3	195	47.442760179865	4.594625631358
3	200	47.553977512746	1.533880395951
3	207	48.191238222556	5.550777987845
3	212	48.300387398434	5.380102988216
3	217	48.510808680278	0.330249864617
3	229	51.225869221189	2.576038002492
3	243	54.061073009317	4.126392722612
3	248	54.857876221157	3.412175626794
3	256	56.901083783038	5.236921083328
3	262	57.893791562021	1.078134474717
3	273	59.069792195105	5.483125871849
3	278	59.491092353783	1.455665020346
3	284	60.911737397345	2.171838498806
3	297	63.724272638985	4.916183989503
3	305	65.083286322557	3.118474403859
3	310	65.898785689252	3.646374627431
3	316	67.074879543789	3.523760969298
3	320	67.473862378043	3.383506095778
3	327	70.777329619649	2.126995599257
3	336	73.756808662771	1.291908824761
3	345	77.063961202787	2.028288907023
3	355	79.971277121924	2.311891798368
3	359	80.397593743236	1.500822589796
3	369	81.913861316251	0.617300900409
3	380	88.090416735836	6.360803555849
3	393	93.389178371204	10.98019019228
3	400	94.538310109545	5.158699010385
3	405	94.631026578128	3.656762141959
3	411	95.442004512271	3.650950998828
3	417	95.797789059868	3.389030319916
4	14	2.039243283073	1.685484509349
4	44	11.87554105472	11.423445373457
4	69	14.657204006723	11.094287268207
4	80	19.142187205626	1.359349365474
4	96	21.979976888427	0.929455531522
4	207	48.191238222556	5.550777987845
4	212	48.300387398434	5.380102988216
4	217	48.510808680278	0.330249864617
4	229	51.225869221189	2.576038002492
4	256	56.901083783038	5.236921083328
4	273	59.069792195105	5.483125871849
4	297	63.724272638985	4.916183989503
4	327	70.777329619649	2.126995599257
4	336	73.756808662771	1.291908824761
4	355	79.971277121924	2.311891798368
4	380	88.090416735836	6.360803555849
4	393	93.389178371204	10.98019019228
5	25	5.462739358186	4.866399693665
5	30	5.589365504585	4.34558084591
5	35	7.282185063806	2.16616858932
5	54	13.531638208422	1.801744898923
5	59	13.996439819111	1.894148795901
5	64	14.421177835127	1.803273433692
5	87	21.020119566117	0.776689350546
5	103	23.080208240038	0.072385338448
5	112	24.720635104689	0.041406638887
5	124	27.729567194481	2.832553099364
5	129	29.637670267422	4.52170964872
5	139	30.002745026566	0.203396216887
5	146	31.454582935978	1.499204869381
5	150	31.477628957636	0.605783459368
5	161	37.546627055825	3.389533763292
5	165	38.312995616302	2.998461289238
5	175	41.95736691734	1.974899851651
5	187	45.112381040435	3.595794511423
5	195	47.442760179865	4.594625631358
5	200	47.553977512746	1.533880395951
5	243	54.061073009317	4.126392722612
5	248	54.857876221157	3.412175626794
5	262	57.893791562021	1.078134474717
5	278	59.491092353783	1.455665020346
5	284	60.911737397345	2.171838498806
5	305	65.083286322557	3.118474403859
5	310	65.898785689252	3.646374627431
5	316	67.074879543789	3.523760969298
5	320	67.473862378043	3.383506095778
5	345	77.063961202787	2.028288907023
5	359	80.397593743236	1.500822589796
5	369	81.913861316251	0.617300900409
5	400	94.538310109545	5.158699010385
5	405	94.631026578128	3.656762141959
5	411	95.442004512271	3.650950998828
5	417	95.797789059868	3.389030319916

