version 2
run Second-n4-15-20191125-12:37:30-8024
attr configname Second-n4
attr datetime 20191125-12:37:30
attr experiment Second-n4
attr inifile omnetpp.ini
attr iterationvars ""
attr iterationvarsf ""
attr measurement ""
attr network org.omnetpp.queueing.Pizza
attr processid 8024
attr repetition 15
attr replication ""
attr resultdir results_no_transient
attr runnumber 15
attr seedset 15
param **.PS.maxInventoriedPS 4
param **.U1.interArrivalTime exponential(3s)
param **.U2.interArrivalTime exponential(5s)
param **.PS.serviceTimeForInventoryU1 exponential(1.0s)
param **.PS.serviceTimeForInventoryU2 exponential(1.2s)
param **.PS.serviceTimeDirectU1 exponential(1.4s)
param **.PS.serviceTimeDirectU2 exponential(1.4s)
param **.PS.probabilityProducing 0.7
param **.CS.serviceTimeU1 exponential(1.1s)
param **.CS.serviceTimeU2 exponential(1.4s)

vector 0 Pizza.EntryQueueU1 queueLength:vector ETV
attr interpolationmode sample-hold
attr title "queue length, vector"
vector 1 Pizza.CS queueLength:vector ETV
attr interpolationmode sample-hold
attr title "queue length, vector"
vector 2 Pizza.EntryQueueU2 queueLength:vector ETV
attr interpolationmode sample-hold
attr title "queue length, vector"
vector 3 Pizza.sink lifeTime:vector ETV
attr interpolationmode none
attr title "lifetime of arrived jobs, vector"
attr unit s
vector 4 Pizza.sink lifeTimeU1:vector ETV
attr interpolationmode none
attr title "lifetime of arrived jobs, vector"
attr unit s
vector 5 Pizza.sink lifeTimeU2:vector ETV
attr interpolationmode none
attr title "lifetime of arrived jobs, vector"
attr unit s
0	0	0	0
0	5	6.259122747316	1
0	7	6.426812955062	2
0	9	6.779740928897	3
0	15	8.125822386251	4
0	20	9.215084584741	5
0	22	9.794334791656	4
0	28	10.077726858813	5
0	30	10.56124356042	4
0	35	11.164986878568	3
0	40	11.366301650683	2
0	48	13.005391597038	1
0	55	13.872864842129	2
0	59	14.5775608498	1
0	66	15.045001552045	0
0	110	23.76338756866	1
0	112	23.938917592226	2
0	113	25.013686222629	1
0	119	26.322321364228	0
0	129	27.900890082193	1
0	131	27.994605641312	2
0	133	28.888675210767	3
0	136	30.046214732414	2
0	141	30.503283743436	1
0	146	30.742468701668	0
0	155	31.949377238999	1
0	163	34.230279982771	0
0	196	39.752242336309	1
0	197	40.066109604758	0
0	201	40.943744240674	1
0	203	42.855142603652	2
0	210	43.602063752908	3
0	211	44.174261011962	2
0	216	44.447232975493	1
0	222	47.84408508837	0
0	268	57.231140696695	1
0	273	58.889870189033	0
0	296	62.758465567775	1
0	298	63.208419177039	2
0	299	63.476690007261	1
0	305	64.346135680789	0
0	317	67.124175733364	1
0	318	67.187045136646	0
0	327	68.179817280948	1
0	328	68.770305331746	0
0	338	71.669834782084	1
0	342	72.828353103795	0
0	348	73.208761068382	1
0	350	74.092166044881	0
0	374	80.015267675198	1
0	378	82.080865103719	0
0	388	83.539238114913	1
0	390	83.704316390035	2
0	396	85.066800700936	3
0	397	85.803949855598	2
0	402	85.804596952497	1
0	407	87.309629891838	0
0	416	87.714416309194	1
0	420	88.389714719585	2
0	423	89.229920601851	1
0	428	89.904138799214	0
0	434	91.253651999231	1
0	436	93.581593814949	0
0	445	96.728792964085	1
0	447	97.04251063641	2
0	450	97.118668426433	3
0	452	97.22905579069	4
0	453	97.710817461263	3
0	459	99.46691257596	2
0	464	99.870968459832	1
1	0	0	0
2	0	0	0
2	17	8.398777523668	1
2	65	14.762268602085	2
2	72	15.525433461984	3
2	74	16.47842446657	2
2	80	17.301660831991	3
2	83	18.887614679899	2
2	89	19.567029973294	3
2	90	21.341220017045	2
2	95	22.063962084974	1
2	101	22.290509119157	2
2	102	22.756941959815	1
2	106	23.008110707553	2
2	125	27.083667150449	1
2	151	31.427859911217	0
2	159	32.286809735704	1
2	162	32.843388586644	2
2	170	34.40892339456	3
2	171	34.499800864665	2
2	177	34.92313560609	3
2	178	35.583588320146	2
2	183	36.045386626753	1
2	188	37.929350674065	0
2	192	37.998924731054	1
2	208	43.415530149677	2
2	228	48.020640921913	1
2	233	48.731139592018	0
2	264	56.498039627074	1
2	266	57.14312126664	2
2	272	58.263340822718	3
2	281	60.520551999056	4
2	282	60.534806825773	3
2	289	61.727604919434	4
2	290	61.895406879494	3
2	311	65.985833343037	2
2	325	67.611893048012	3
2	334	69.029593956745	2
2	356	75.277281230396	1
2	361	75.616900983381	0
2	377	81.752728001363	1
2	384	82.60294250328	0
2	392	84.005626894994	1
2	412	87.338016614836	0
2	418	87.886075744494	1
2	443	96.243006456215	2
3	24	9.794334791656	4.126528272437
3	32	10.56124356042	4.302120813104
3	37	11.164986878568	4.738173923506
3	42	11.366301650683	4.586560721786
3	50	13.005391597038	4.879569210787
3	61	14.5775608498	5.362476265059
3	68	15.045001552045	4.967274693232
3	76	16.47842446657	2.605559624441
3	85	18.887614679899	10.488837156231
3	92	21.341220017045	6.57895141496
3	97	22.063962084974	6.53852862299
3	104	22.756941959815	5.455281127824
3	115	25.013686222629	5.446656249335
3	121	26.322321364228	2.558933795568
3	127	27.083667150449	3.144749558223
3	138	30.046214732414	7.755705613257
3	143	30.503283743436	2.602393661243
3	148	30.742468701668	2.747863060356
3	153	31.427859911217	2.53918470045
3	165	34.230279982771	11.222169275218
3	173	34.499800864665	2.550423625666
3	180	35.583588320146	3.296778584442
3	185	36.045386626753	3.201998040109
3	190	37.929350674065	3.520427279505
3	199	40.066109604758	5.142973998668
3	213	44.174261011962	4.422018675653
3	218	44.447232975493	3.503488734819
3	224	47.84408508837	4.988942484718
3	230	48.020640921913	4.418577169005
3	235	48.731139592018	10.732214860964
3	240	51.287957328227	7.87242717855
3	250	53.670877835691	0.081879687428
3	257	54.497760816682	0.76008269232
3	275	58.889870189033	2.972731897989
3	284	60.534806825773	3.303666129078
3	292	61.895406879494	5.39736725242
3	301	63.476690007261	6.333568740621
3	307	64.346135680789	1.587670113014
3	313	65.985833343037	2.777414165998
3	320	67.187045136646	8.923704313928
3	330	68.770305331746	1.646129598382
3	336	69.029593956745	0.849776675797
3	344	72.828353103795	12.307801104739
3	352	74.092166044881	2.422331262797
3	358	75.277281230396	2.068520162014
3	363	75.616900983381	13.889296063947
3	367	78.542749094986	10.930856046974
3	380	82.080865103719	2.162195067805
3	386	82.60294250328	2.587674828082
3	399	85.803949855598	4.051221854235
3	404	85.804596952497	2.265358837584
3	409	87.309629891838	3.605313501803
3	414	87.338016614836	2.2712159139
3	425	89.229920601851	5.224293706857
3	430	89.904138799214	2.18972249002
3	438	93.581593814949	5.191879095364
3	455	97.710817461263	6.457165462032
3	461	99.46691257596	2.738119611875
3	466	99.870968459832	2.828457823422
4	24	9.794334791656	4.126528272437
4	32	10.56124356042	4.302120813104
4	37	11.164986878568	4.738173923506
4	42	11.366301650683	4.586560721786
4	50	13.005391597038	4.879569210787
4	61	14.5775608498	5.362476265059
4	68	15.045001552045	4.967274693232
4	76	16.47842446657	2.605559624441
4	121	26.322321364228	2.558933795568
4	127	27.083667150449	3.144749558223
4	143	30.503283743436	2.602393661243
4	148	30.742468701668	2.747863060356
4	153	31.427859911217	2.53918470045
4	173	34.499800864665	2.550423625666
4	213	44.174261011962	4.422018675653
4	218	44.447232975493	3.503488734819
4	224	47.84408508837	4.988942484718
4	230	48.020640921913	4.418577169005
4	250	53.670877835691	0.081879687428
4	257	54.497760816682	0.76008269232
4	284	60.534806825773	3.303666129078
4	307	64.346135680789	1.587670113014
4	313	65.985833343037	2.777414165998
4	330	68.770305331746	1.646129598382
4	336	69.029593956745	0.849776675797
4	352	74.092166044881	2.422331262797
4	358	75.277281230396	2.068520162014
4	380	82.080865103719	2.162195067805
4	386	82.60294250328	2.587674828082
4	404	85.804596952497	2.265358837584
4	409	87.309629891838	3.605313501803
4	414	87.338016614836	2.2712159139
4	430	89.904138799214	2.18972249002
4	438	93.581593814949	5.191879095364
4	455	97.710817461263	6.457165462032
4	461	99.46691257596	2.738119611875
4	466	99.870968459832	2.828457823422
5	85	18.887614679899	10.488837156231
5	92	21.341220017045	6.57895141496
5	97	22.063962084974	6.53852862299
5	104	22.756941959815	5.455281127824
5	115	25.013686222629	5.446656249335
5	138	30.046214732414	7.755705613257
5	165	34.230279982771	11.222169275218
5	180	35.583588320146	3.296778584442
5	185	36.045386626753	3.201998040109
5	190	37.929350674065	3.520427279505
5	199	40.066109604758	5.142973998668
5	235	48.731139592018	10.732214860964
5	240	51.287957328227	7.87242717855
5	275	58.889870189033	2.972731897989
5	292	61.895406879494	5.39736725242
5	301	63.476690007261	6.333568740621
5	320	67.187045136646	8.923704313928
5	344	72.828353103795	12.307801104739
5	363	75.616900983381	13.889296063947
5	367	78.542749094986	10.930856046974
5	399	85.803949855598	4.051221854235
5	425	89.229920601851	5.224293706857

