version 2
run Second-n2-5-20191125-12:37:00-3848
attr configname Second-n2
attr datetime 20191125-12:37:00
attr experiment Second-n2
attr inifile omnetpp.ini
attr iterationvars ""
attr iterationvarsf ""
attr measurement ""
attr network org.omnetpp.queueing.Pizza
attr processid 3848
attr repetition 5
attr replication ""
attr resultdir results_no_transient
attr runnumber 5
attr seedset 5
param **.PS.maxInventoriedPS 2
param **.U1.interArrivalTime exponential(3s)
param **.U2.interArrivalTime exponential(5s)
param **.PS.serviceTimeForInventoryU1 exponential(1.0s)
param **.PS.serviceTimeForInventoryU2 exponential(1.2s)
param **.PS.serviceTimeDirectU1 exponential(1.4s)
param **.PS.serviceTimeDirectU2 exponential(1.4s)
param **.PS.probabilityProducing 0.7
param **.CS.serviceTimeU1 exponential(1.1s)
param **.CS.serviceTimeU2 exponential(1.4s)

vector 0 Pizza.EntryQueueU1 queueLength:vector ETV
attr interpolationmode sample-hold
attr title "queue length, vector"
vector 1 Pizza.CS queueLength:vector ETV
attr interpolationmode sample-hold
attr title "queue length, vector"
vector 2 Pizza.EntryQueueU2 queueLength:vector ETV
attr interpolationmode sample-hold
attr title "queue length, vector"
vector 3 Pizza.sink lifeTime:vector ETV
attr interpolationmode none
attr title "lifetime of arrived jobs, vector"
attr unit s
vector 4 Pizza.sink lifeTimeU2:vector ETV
attr interpolationmode none
attr title "lifetime of arrived jobs, vector"
attr unit s
vector 5 Pizza.sink lifeTimeU1:vector ETV
attr interpolationmode none
attr title "lifetime of arrived jobs, vector"
attr unit s
0	0	0	0
0	5	0.753059933076	1
0	7	1.447793824209	2
0	11	2.804223168235	3
0	13	3.086565267221	4
0	14	3.713850244484	3
0	20	5.225158783124	2
0	24	5.92483528698	3
0	26	6.548570327485	4
0	32	11.503754629997	5
0	35	12.097883854806	4
0	40	12.468465603316	3
0	45	13.056406209051	2
0	50	14.363753905328	1
0	54	15.527032728862	2
0	57	15.917614004192	1
0	65	16.259902939981	0
0	76	17.559657457948	1
0	77	17.612700222004	0
0	104	27.2333374427	1
0	110	30.421366248274	0
0	139	39.960007026865	1
0	140	40.832682346651	0
0	162	42.774869086631	1
0	164	43.741044129546	2
0	166	46.738154565465	3
0	170	47.506659751906	4
0	173	48.411529815708	3
0	178	48.807022703689	2
0	184	48.927608809685	3
0	186	51.488345613051	2
0	192	52.234066581634	1
0	201	52.926604946949	2
0	204	53.983435261695	1
0	211	54.291253801857	2
0	213	55.593287107787	3
0	214	55.727124561514	2
0	219	56.475194144234	1
0	225	56.74528425387	2
0	229	58.910100764718	1
0	235	60.744949389417	0
0	253	65.150686878444	1
0	255	66.544004873956	2
0	256	66.684157593285	1
0	262	67.040975653345	2
0	265	67.415991766187	3
0	267	68.753376266279	4
0	268	68.844581161743	3
0	273	70.573097033463	2
0	279	70.705588506229	3
0	281	71.223954224142	2
0	287	72.159040655129	1
0	294	73.710355233683	0
0	305	81.300995800051	1
0	308	82.047261208243	0
0	317	83.975327436484	1
0	318	85.188948623916	0
0	324	85.546481218216	1
0	326	86.749048114556	2
0	328	87.210657973879	3
0	329	87.312796701288	2
0	333	87.469746216343	3
0	337	89.713935052025	4
0	339	90.694675365287	3
0	345	92.443041339727	2
0	352	94.509059156278	1
0	356	96.418274098192	2
0	359	96.99759235897	1
0	366	98.791691320163	0
0	372	99.142728481817	1
0	373	99.288811748867	0
1	0	0	0
2	0	0	0
2	28	10.513154157866	1
2	30	10.93409246129	2
2	64	16.175478758693	3
2	70	16.459066499838	2
2	82	17.772647097882	1
2	88	20.365998514317	0
2	100	25.147278334635	1
2	107	28.770184882462	2
2	109	30.269616725316	3
2	116	32.669704469541	2
2	122	33.869000487463	1
2	128	36.644447486396	2
2	130	36.97785501678	3
2	131	39.452615169019	2
2	135	39.523197576028	3
2	148	41.562482363186	2
2	153	42.462760886927	1
2	158	42.552684137139	0
2	172	47.926054269361	1
2	203	52.970225768188	2
2	228	58.129885154429	3
2	240	61.212109457908	2
2	246	62.138580979779	1
2	293	72.501007034013	2
2	299	75.325310691218	1
2	303	80.583358171226	2
2	315	83.594581161766	3
2	349	92.460708037933	4
2	378	99.534523364172	3
3	16	3.713850244484	3.430045376378
3	22	5.225158783124	4.472098850048
3	37	12.097883854806	10.650090030597
3	42	12.468465603316	9.664242435081
3	47	13.056406209051	9.96984094183
3	52	14.363753905328	8.438918618348
3	59	15.917614004192	9.369043676707
3	67	16.259902939981	4.756148309984
3	72	16.459066499838	0.932033770976
3	79	17.612700222004	7.099546064138
3	84	17.772647097882	0.212989639934
3	90	20.365998514317	9.431906053027
3	95	22.913143453583	6.73766469489
3	112	30.421366248274	5.282305513482
3	118	32.669704469541	5.436367026841
3	124	33.869000487463	8.721722152828
3	133	39.452615169019	10.682430286557
3	142	40.832682346651	10.563065621335
3	150	41.562482363186	1.602475336321
3	155	42.462760886927	5.818313400531
3	160	42.552684137139	5.574829120359
3	175	48.411529815708	8.88833223968
3	180	48.807022703689	6.032153617058
3	188	51.488345613051	7.747301483505
3	194	52.234066581634	5.495912016169
3	206	53.983435261695	6.476775509789
3	216	55.727124561514	6.799515751829
3	221	56.475194144234	3.548589197285
3	231	58.910100764718	4.618846962861
3	237	60.744949389417	5.15166228163
3	242	61.212109457908	4.466825204038
3	248	62.138580979779	14.212526710418
3	258	66.684157593285	13.713931825097
3	270	68.844581161743	3.693894283299
3	275	70.573097033463	4.029092159507
3	283	71.223954224142	4.182978570797
3	289	72.159040655129	4.743048888942
3	296	73.710355233683	4.956978967404
3	301	75.325310691218	4.619722184989
3	310	82.047261208243	23.917376053814
3	320	85.188948623916	3.887952823865
3	331	87.312796701288	3.337469264804
3	341	90.694675365287	5.148194147071
3	347	92.443041339727	5.693993225171
3	354	94.509059156278	7.298401182399
3	361	96.99759235897	9.527846142627
3	368	98.791691320163	9.077756268138
3	375	99.288811748867	2.870537650675
3	380	99.534523364172	0.391794882355
4	16	3.713850244484	3.430045376378
4	79	17.612700222004	7.099546064138
4	90	20.365998514317	9.431906053027
4	95	22.913143453583	6.73766469489
4	112	30.421366248274	5.282305513482
4	124	33.869000487463	8.721722152828
4	133	39.452615169019	10.682430286557
4	142	40.832682346651	10.563065621335
4	155	42.462760886927	5.818313400531
4	160	42.552684137139	5.574829120359
4	175	48.411529815708	8.88833223968
4	248	62.138580979779	14.212526710418
4	258	66.684157593285	13.713931825097
4	310	82.047261208243	23.917376053814
5	22	5.225158783124	4.472098850048
5	37	12.097883854806	10.650090030597
5	42	12.468465603316	9.664242435081
5	47	13.056406209051	9.96984094183
5	52	14.363753905328	8.438918618348
5	59	15.917614004192	9.369043676707
5	67	16.259902939981	4.756148309984
5	72	16.459066499838	0.932033770976
5	84	17.772647097882	0.212989639934
5	118	32.669704469541	5.436367026841
5	150	41.562482363186	1.602475336321
5	180	48.807022703689	6.032153617058
5	188	51.488345613051	7.747301483505
5	194	52.234066581634	5.495912016169
5	206	53.983435261695	6.476775509789
5	216	55.727124561514	6.799515751829
5	221	56.475194144234	3.548589197285
5	231	58.910100764718	4.618846962861
5	237	60.744949389417	5.15166228163
5	242	61.212109457908	4.466825204038
5	270	68.844581161743	3.693894283299
5	275	70.573097033463	4.029092159507
5	283	71.223954224142	4.182978570797
5	289	72.159040655129	4.743048888942
5	296	73.710355233683	4.956978967404
5	301	75.325310691218	4.619722184989
5	320	85.188948623916	3.887952823865
5	331	87.312796701288	3.337469264804
5	341	90.694675365287	5.148194147071
5	347	92.443041339727	5.693993225171
5	354	94.509059156278	7.298401182399
5	361	96.99759235897	9.527846142627
5	368	98.791691320163	9.077756268138
5	375	99.288811748867	2.870537650675
5	380	99.534523364172	0.391794882355

