version 2
run Second-n2-6-20191125-12:37:01-10784
attr configname Second-n2
attr datetime 20191125-12:37:01
attr experiment Second-n2
attr inifile omnetpp.ini
attr iterationvars ""
attr iterationvarsf ""
attr measurement ""
attr network org.omnetpp.queueing.Pizza
attr processid 10784
attr repetition 6
attr replication ""
attr resultdir results_no_transient
attr runnumber 6
attr seedset 6
param **.PS.maxInventoriedPS 2
param **.U1.interArrivalTime exponential(3s)
param **.U2.interArrivalTime exponential(5s)
param **.PS.serviceTimeForInventoryU1 exponential(1.0s)
param **.PS.serviceTimeForInventoryU2 exponential(1.2s)
param **.PS.serviceTimeDirectU1 exponential(1.4s)
param **.PS.serviceTimeDirectU2 exponential(1.4s)
param **.PS.probabilityProducing 0.7
param **.CS.serviceTimeU1 exponential(1.1s)
param **.CS.serviceTimeU2 exponential(1.4s)

vector 0 Pizza.EntryQueueU1 queueLength:vector ETV
attr interpolationmode sample-hold
attr title "queue length, vector"
vector 1 Pizza.CS queueLength:vector ETV
attr interpolationmode sample-hold
attr title "queue length, vector"
vector 2 Pizza.EntryQueueU2 queueLength:vector ETV
attr interpolationmode sample-hold
attr title "queue length, vector"
vector 3 Pizza.sink lifeTime:vector ETV
attr interpolationmode none
attr title "lifetime of arrived jobs, vector"
attr unit s
vector 4 Pizza.sink lifeTimeU1:vector ETV
attr interpolationmode none
attr title "lifetime of arrived jobs, vector"
attr unit s
vector 5 Pizza.sink lifeTimeU2:vector ETV
attr interpolationmode none
attr title "lifetime of arrived jobs, vector"
attr unit s
0	0	0	0
0	16	8.225492417849	1
0	17	8.508111837719	0
0	24	10.493091882518	1
0	25	10.998708796901	0
0	50	18.35280949311	1
0	52	18.520852769125	2
0	53	19.298071374001	1
0	62	21.080456412303	0
0	69	21.881905453974	1
0	70	22.024156824838	0
0	76	22.147878696444	1
0	78	22.592051158776	0
0	84	22.885159194867	1
0	85	23.270347749892	0
0	122	38.33870030823	1
0	125	41.530170585574	0
0	171	51.098737938071	1
0	172	51.776219651749	0
0	191	58.192475518808	1
0	195	59.745807970526	2
0	200	64.30306219452	1
0	205	64.838675166301	0
0	211	64.990757944889	1
0	214	65.074094056184	0
0	225	65.997803754941	1
0	226	66.287544002271	0
0	230	66.533349674581	1
0	234	68.97868065869	0
0	243	69.667642269702	1
0	246	70.042923607918	0
0	252	71.825747296428	1
0	253	72.705508883629	0
0	309	90.219933144756	1
0	311	90.347869345587	2
0	312	90.743731579102	1
0	319	91.43458322816	2
0	320	91.957070347978	1
0	326	93.48388985236	0
0	337	95.490015310492	1
0	341	97.283503187431	2
0	342	97.744465031026	1
0	346	98.159005022265	2
0	354	99.280867489937	1
0	359	99.333214686175	0
1	0	0	0
2	0	0	0
2	40	14.732432608285	1
2	41	16.372583034142	0
2	48	17.935454343921	1
2	61	20.999603802852	2
2	90	25.59882308895	1
2	97	27.174028153017	2
2	98	27.381462979331	1
2	103	27.988462461789	0
2	120	38.338424651205	1
2	124	41.332150571528	2
2	130	41.83761887054	1
2	135	42.548983358969	0
2	141	43.672645231671	1
2	142	44.660936829731	0
2	156	47.051128798057	1
2	158	47.660621742941	0
2	164	48.48438791909	1
2	165	49.515447948619	0
2	186	57.78121079487	1
2	187	58.185931688896	0
2	198	61.013567738684	1
2	213	65.004733072831	2
2	219	65.251850115879	1
2	239	69.054047081242	0
2	274	78.443373177961	1
2	276	78.531603063892	0
2	348	98.499091382628	1
2	353	99.098182536838	2
3	7	7.076670390206	0.375809616764
3	19	8.508111837719	0.596940445195
3	27	10.998708796901	2.773216379052
3	31	11.300319852052	0.807227969534
3	43	16.372583034142	1.885412037502
3	55	19.298071374001	4.565638765716
3	64	21.080456412303	2.727646919193
3	72	22.024156824838	3.503304055713
3	80	22.592051158776	0.710145704802
3	87	23.270347749892	1.122469053448
3	92	25.59882308895	2.713663894083
3	100	27.381462979331	9.44600863541
3	105	27.988462461789	6.988858658937
3	110	28.499740747461	1.325712594444
3	127	41.530170585574	6.36300296168
3	132	41.83761887054	3.49891856231
3	137	42.548983358969	4.210558707764
3	144	44.660936829731	3.328786258203
3	149	45.35862368178	1.685978450109
3	160	47.660621742941	1.459728741776
3	167	49.515447948619	2.464319150562
3	174	51.776219651749	3.291831732659
3	178	52.997937982914	1.899200044843
3	189	58.185931688896	0.591827424392
3	202	64.30306219452	6.52185139965
3	207	64.838675166301	6.646199647493
3	216	65.074094056184	5.328286085658
3	221	65.251850115879	0.26109217099
3	228	66.287544002271	5.273976263587
3	236	68.97868065869	2.980876903749
3	241	69.054047081242	2.520697406661
3	248	70.042923607918	5.038190535087
3	255	72.705508883629	3.037866613927
3	259	73.25719645566	1.431449159232
3	267	75.345232299738	0.741472578339
3	278	78.531603063892	0.589263973246
3	282	79.076994187242	0.633621009281
3	294	81.873788816644	0.910053361681
3	301	85.844744393679	0.100241681012
3	314	90.743731579102	2.36037665309
3	322	91.957070347978	1.737137203222
3	328	93.48388985236	3.136020506773
3	332	93.531929501418	2.097346273258
3	344	97.744465031026	3.255022581306
3	356	99.280867489937	3.790852179445
3	361	99.333214686175	2.049711498744
4	7	7.076670390206	0.375809616764
4	19	8.508111837719	0.596940445195
4	27	10.998708796901	2.773216379052
4	31	11.300319852052	0.807227969534
4	43	16.372583034142	1.885412037502
4	64	21.080456412303	2.727646919193
4	72	22.024156824838	3.503304055713
4	80	22.592051158776	0.710145704802
4	87	23.270347749892	1.122469053448
4	92	25.59882308895	2.713663894083
4	132	41.83761887054	3.49891856231
4	160	47.660621742941	1.459728741776
4	178	52.997937982914	1.899200044843
4	189	58.185931688896	0.591827424392
4	207	64.838675166301	6.646199647493
4	216	65.074094056184	5.328286085658
4	221	65.251850115879	0.26109217099
4	236	68.97868065869	2.980876903749
4	241	69.054047081242	2.520697406661
4	255	72.705508883629	3.037866613927
4	259	73.25719645566	1.431449159232
4	267	75.345232299738	0.741472578339
4	294	81.873788816644	0.910053361681
4	301	85.844744393679	0.100241681012
4	322	91.957070347978	1.737137203222
4	328	93.48388985236	3.136020506773
4	332	93.531929501418	2.097346273258
4	344	97.744465031026	3.255022581306
4	356	99.280867489937	3.790852179445
4	361	99.333214686175	2.049711498744
5	55	19.298071374001	4.565638765716
5	100	27.381462979331	9.44600863541
5	105	27.988462461789	6.988858658937
5	110	28.499740747461	1.325712594444
5	127	41.530170585574	6.36300296168
5	137	42.548983358969	4.210558707764
5	144	44.660936829731	3.328786258203
5	149	45.35862368178	1.685978450109
5	167	49.515447948619	2.464319150562
5	174	51.776219651749	3.291831732659
5	202	64.30306219452	6.52185139965
5	228	66.287544002271	5.273976263587
5	248	70.042923607918	5.038190535087
5	278	78.531603063892	0.589263973246
5	282	79.076994187242	0.633621009281
5	314	90.743731579102	2.36037665309

