version 2
run Second-n2-4-20191125-12:36:58-2460
attr configname Second-n2
attr datetime 20191125-12:36:58
attr experiment Second-n2
attr inifile omnetpp.ini
attr iterationvars ""
attr iterationvarsf ""
attr measurement ""
attr network org.omnetpp.queueing.Pizza
attr processid 2460
attr repetition 4
attr replication ""
attr resultdir results_no_transient
attr runnumber 4
attr seedset 4
param **.PS.maxInventoriedPS 2
param **.U1.interArrivalTime exponential(3s)
param **.U2.interArrivalTime exponential(5s)
param **.PS.serviceTimeForInventoryU1 exponential(1.0s)
param **.PS.serviceTimeForInventoryU2 exponential(1.2s)
param **.PS.serviceTimeDirectU1 exponential(1.4s)
param **.PS.serviceTimeDirectU2 exponential(1.4s)
param **.PS.probabilityProducing 0.7
param **.CS.serviceTimeU1 exponential(1.1s)
param **.CS.serviceTimeU2 exponential(1.4s)

vector 0 Pizza.EntryQueueU1 queueLength:vector ETV
attr interpolationmode sample-hold
attr title "queue length, vector"
vector 1 Pizza.CS queueLength:vector ETV
attr interpolationmode sample-hold
attr title "queue length, vector"
vector 2 Pizza.EntryQueueU2 queueLength:vector ETV
attr interpolationmode sample-hold
attr title "queue length, vector"
vector 3 Pizza.sink lifeTime:vector ETV
attr interpolationmode none
attr title "lifetime of arrived jobs, vector"
attr unit s
vector 4 Pizza.sink lifeTimeU1:vector ETV
attr interpolationmode none
attr title "lifetime of arrived jobs, vector"
attr unit s
vector 5 Pizza.sink lifeTimeU2:vector ETV
attr interpolationmode none
attr title "lifetime of arrived jobs, vector"
attr unit s
0	0	0	0
0	12	12.613584913432	1
0	18	15.344184413521	2
0	20	16.219183856585	3
0	23	18.794641994562	2
0	28	18.800331749229	1
0	37	20.986829223401	0
0	60	23.223843277922	1
0	62	23.345622971374	2
0	65	27.896504081098	1
0	69	27.975253331637	2
0	74	29.172679164496	1
0	80	29.721941815729	2
0	83	31.973691244371	3
0	84	32.024221676293	2
0	89	32.150178244398	1
0	95	33.067850375203	0
0	113	37.383791701238	1
0	116	37.883520660383	0
0	140	43.651088805753	1
0	145	44.459206257474	2
0	147	45.096731204832	3
0	149	45.501379528887	4
0	150	46.438605372225	3
0	157	47.567614905231	4
0	158	47.711362240075	3
0	164	49.263576883761	4
0	166	50.009999552285	3
0	172	50.580789724272	2
0	178	50.881130301956	3
0	180	51.514641728153	2
0	187	53.685364439052	1
0	193	55.0448555838	0
0	205	56.50764165949	1
0	206	56.643835846146	0
0	216	59.2833599422	1
0	217	59.813511298441	0
0	235	62.143491279673	1
0	238	62.89268846285	0
0	255	70.094332712718	1
0	258	72.048033583172	0
0	294	81.654497772957	1
0	295	83.856234514325	0
0	327	95.085744268609	1
0	328	96.181833976558	0
1	0	0	0
2	0	0	0
2	7	11.5440951532	1
2	8	11.881954837231	0
2	22	16.239788987758	1
2	34	19.092592195979	2
2	42	20.996758607663	1
2	48	21.335731563763	2
2	49	21.430607323596	1
2	53	21.561555563915	2
2	56	22.90311582058	1
2	100	33.485814390352	0
2	135	42.578017061342	1
2	143	44.035862541198	2
2	186	52.363389595317	3
2	199	56.49573922383	2
2	214	58.36629949294	3
2	222	60.316124454315	2
2	228	60.385776516269	1
2	237	62.847191797005	2
2	244	64.849212551342	1
2	250	67.086164435643	2
2	251	68.012025441308	1
2	264	72.341580592482	2
2	265	72.546803128543	1
2	270	75.590858289107	0
2	302	85.456125421024	1
2	303	86.159511587603	0
3	10	11.881954837231	1.645497879678
3	25	18.794641994562	7.250546841362
3	30	18.800331749229	6.186746835797
3	39	20.986829223401	5.64264480988
3	44	20.996758607663	4.777574751078
3	51	21.430607323596	5.190818335838
3	58	22.90311582058	3.810523624601
3	67	27.896504081098	6.560772517335
3	76	29.172679164496	5.948835886574
3	86	32.024221676293	8.678598704919
3	91	32.150178244398	4.174924912761
3	97	33.067850375203	3.345908559474
3	102	33.485814390352	1.512123145981
3	108	34.954786034433	13.393230470518
3	118	37.883520660383	0.629380042107
3	123	38.360217955976	0.976426254738
3	130	42.081021276652	0.321860386418
3	152	46.438605372225	4.294749429271
3	160	47.711362240075	4.060273434322
3	168	50.009999552285	5.550793294811
3	174	50.580789724272	5.48405851944
3	182	51.514641728153	6.013262199266
3	189	53.685364439052	6.117749533821
3	195	55.0448555838	5.781278700039
3	201	56.49573922383	5.614608921874
3	208	56.643835846146	14.065818784804
3	219	59.813511298441	3.305869638951
3	224	60.316124454315	1.032764512115
3	230	60.385776516269	16.349913975071
3	240	62.89268846285	10.529298867533
3	246	64.849212551342	2.705721271669
3	253	68.012025441308	9.645725948368
3	260	72.048033583172	9.200841786167
3	267	72.546803128543	2.452470415825
3	272	75.590858289107	8.504693853464
3	276	76.425380418186	4.083799825704
3	284	78.912278719099	0.510172133692
3	297	83.856234514325	2.559811951816
3	305	86.159511587603	4.505013814646
3	310	87.748980001378	2.292854580354
3	319	94.016111519955	0.682560014233
3	330	96.181833976558	1.56767377825
3	334	96.759672732062	1.673928463453
3	341	99.557166162634	0.267251528482
4	10	11.881954837231	1.645497879678
4	30	18.800331749229	6.186746835797
4	39	20.986829223401	5.64264480988
4	44	20.996758607663	4.777574751078
4	76	29.172679164496	5.948835886574
4	86	32.024221676293	8.678598704919
4	91	32.150178244398	4.174924912761
4	97	33.067850375203	3.345908559474
4	102	33.485814390352	1.512123145981
4	123	38.360217955976	0.976426254738
4	130	42.081021276652	0.321860386418
4	160	47.711362240075	4.060273434322
4	168	50.009999552285	5.550793294811
4	174	50.580789724272	5.48405851944
4	182	51.514641728153	6.013262199266
4	189	53.685364439052	6.117749533821
4	195	55.0448555838	5.781278700039
4	201	56.49573922383	5.614608921874
4	219	59.813511298441	3.305869638951
4	224	60.316124454315	1.032764512115
4	246	64.849212551342	2.705721271669
4	267	72.546803128543	2.452470415825
4	284	78.912278719099	0.510172133692
4	297	83.856234514325	2.559811951816
4	305	86.159511587603	4.505013814646
4	319	94.016111519955	0.682560014233
4	330	96.181833976558	1.56767377825
4	334	96.759672732062	1.673928463453
5	25	18.794641994562	7.250546841362
5	51	21.430607323596	5.190818335838
5	58	22.90311582058	3.810523624601
5	67	27.896504081098	6.560772517335
5	108	34.954786034433	13.393230470518
5	118	37.883520660383	0.629380042107
5	152	46.438605372225	4.294749429271
5	208	56.643835846146	14.065818784804
5	230	60.385776516269	16.349913975071
5	240	62.89268846285	10.529298867533
5	253	68.012025441308	9.645725948368
5	260	72.048033583172	9.200841786167
5	272	75.590858289107	8.504693853464
5	276	76.425380418186	4.083799825704
5	310	87.748980001378	2.292854580354
5	341	99.557166162634	0.267251528482

