version 2
run Second-n4-3-20191125-12:37:16-3188
attr configname Second-n4
attr datetime 20191125-12:37:16
attr experiment Second-n4
attr inifile omnetpp.ini
attr iterationvars ""
attr iterationvarsf ""
attr measurement ""
attr network org.omnetpp.queueing.Pizza
attr processid 3188
attr repetition 3
attr replication ""
attr resultdir results_no_transient
attr runnumber 3
attr seedset 3
param **.PS.maxInventoriedPS 4
param **.U1.interArrivalTime exponential(3s)
param **.U2.interArrivalTime exponential(5s)
param **.PS.serviceTimeForInventoryU1 exponential(1.0s)
param **.PS.serviceTimeForInventoryU2 exponential(1.2s)
param **.PS.serviceTimeDirectU1 exponential(1.4s)
param **.PS.serviceTimeDirectU2 exponential(1.4s)
param **.PS.probabilityProducing 0.7
param **.CS.serviceTimeU1 exponential(1.1s)
param **.CS.serviceTimeU2 exponential(1.4s)

vector 0 Pizza.EntryQueueU1 queueLength:vector ETV
attr interpolationmode sample-hold
attr title "queue length, vector"
vector 1 Pizza.CS queueLength:vector ETV
attr interpolationmode sample-hold
attr title "queue length, vector"
vector 2 Pizza.EntryQueueU2 queueLength:vector ETV
attr interpolationmode sample-hold
attr title "queue length, vector"
vector 3 Pizza.sink lifeTime:vector ETV
attr interpolationmode none
attr title "lifetime of arrived jobs, vector"
attr unit s
vector 4 Pizza.sink lifeTimeU2:vector ETV
attr interpolationmode none
attr title "lifetime of arrived jobs, vector"
attr unit s
vector 5 Pizza.sink lifeTimeU1:vector ETV
attr interpolationmode none
attr title "lifetime of arrived jobs, vector"
attr unit s
0	0	0	0
0	5	2.400847172678	1
0	9	3.432143397568	2
0	11	4.111238126736	1
0	16	4.156865278345	0
0	41	10.135435936346	1
0	44	11.843733224555	0
0	111	34.470448833398	1
0	112	34.615586838437	0
0	134	38.607302240266	1
0	136	40.013114762174	2
0	137	40.087114220826	1
0	145	41.659596826631	0
0	158	41.831943654478	1
0	160	42.389565074691	0
0	167	43.181795971522	1
0	168	43.681751317448	0
0	174	44.32243626958	1
0	175	44.895080392453	0
0	194	46.528813482682	1
0	200	48.148004580924	0
0	241	58.252620521076	1
0	242	58.833579857312	0
0	287	76.38772553303	1
0	290	78.061158786815	0
0	309	87.124935047323	1
0	312	87.520144231829	0
0	319	88.188139867708	1
0	320	89.917557204543	0
0	332	90.28717700947	1
0	334	91.449102172002	0
0	362	95.159333515627	1
0	366	96.485144934056	0
1	0	0	0
2	0	0	0
2	33	7.738325811605	1
2	34	8.56017713966	0
2	43	11.130957955525	1
2	51	12.631434922236	2
2	52	12.728888519936	1
2	57	13.965631642249	0
2	61	14.460450367557	1
2	64	15.62726236608	0
2	68	16.067817536233	1
2	71	17.240754012377	0
2	118	34.811671055403	1
2	119	34.995107227145	0
2	125	35.948398697191	1
2	127	37.75301455015	0
2	144	41.382107798672	1
2	151	41.711577270892	2
2	152	41.759994546055	1
2	181	45.83061788747	0
2	198	47.610153452631	1
2	205	48.922798273287	0
2	279	75.24156503119	1
2	280	75.909606765441	0
2	289	76.572420597869	1
2	295	78.290579090862	0
2	311	87.193544876528	1
2	325	90.13212143209	0
2	355	94.940393286805	1
2	356	95.006473098502	0
3	13	4.111238126736	3.744485936914
3	18	4.156865278345	1.756018105667
3	23	4.590042176982	1.157898779414
3	36	8.56017713966	2.035885723629
3	46	11.843733224555	4.10540741295
3	54	12.728888519936	2.59345258359
3	59	13.965631642249	2.834673686724
3	66	15.62726236608	2.995827443844
3	73	17.240754012377	2.78030364482
3	77	20.787489353174	4.719671816941
3	84	21.067013052825	0.022912941556
3	91	22.949874122836	0.432845915455
3	99	26.136877255283	2.981883589682
3	114	34.615586838437	0.910025739615
3	121	34.995107227145	0.524658393747
3	129	37.75301455015	2.941343494747
3	139	40.087114220826	4.138715523635
3	147	41.659596826631	3.052294586365
3	154	41.759994546055	1.746879783881
3	162	42.389565074691	1.007457276019
3	170	43.681751317448	1.84980766297
3	177	44.895080392453	1.713284420931
3	183	45.83061788747	1.50818161789
3	187	46.046007834906	4.334430564014
3	202	48.148004580924	1.80970084209
3	207	48.922798273287	2.393984790605
3	211	50.193976945437	2.583823492806
3	220	51.455112993789	0.551754391487
3	227	53.714483542746	1.651678169635
3	234	57.349085119573	0.135897583936
3	244	58.833579857312	1.205040086538
3	248	59.327336333875	1.074715812799
3	259	64.028591093803	2.342519089285
3	269	68.273353772349	1.104629474765
3	282	75.909606765441	1.93642833759
3	292	78.061158786815	2.819593755625
3	297	78.290579090862	1.902853557832
3	301	78.422292336997	1.849871739128
3	314	87.520144231829	3.682287731706
3	322	89.917557204543	2.79262215722
3	327	90.13212143209	1.943981564382
3	336	91.449102172002	4.255557295474
3	340	92.037219484162	1.750042474692
3	347	93.612025334155	0.258422361506
3	358	95.006473098502	0.717159942729
3	368	96.485144934056	1.544751647251
3	373	96.637901364646	1.478567849019
4	13	4.111238126736	3.744485936914
4	36	8.56017713966	2.035885723629
4	46	11.843733224555	4.10540741295
4	59	13.965631642249	2.834673686724
4	66	15.62726236608	2.995827443844
4	73	17.240754012377	2.78030364482
4	77	20.787489353174	4.719671816941
4	99	26.136877255283	2.981883589682
4	129	37.75301455015	2.941343494747
4	139	40.087114220826	4.138715523635
4	162	42.389565074691	1.007457276019
4	187	46.046007834906	4.334430564014
4	211	50.193976945437	2.583823492806
4	220	51.455112993789	0.551754391487
4	227	53.714483542746	1.651678169635
4	292	78.061158786815	2.819593755625
4	301	78.422292336997	1.849871739128
4	314	87.520144231829	3.682287731706
4	336	91.449102172002	4.255557295474
4	368	96.485144934056	1.544751647251
5	18	4.156865278345	1.756018105667
5	23	4.590042176982	1.157898779414
5	54	12.728888519936	2.59345258359
5	84	21.067013052825	0.022912941556
5	91	22.949874122836	0.432845915455
5	114	34.615586838437	0.910025739615
5	121	34.995107227145	0.524658393747
5	147	41.659596826631	3.052294586365
5	154	41.759994546055	1.746879783881
5	170	43.681751317448	1.84980766297
5	177	44.895080392453	1.713284420931
5	183	45.83061788747	1.50818161789
5	202	48.148004580924	1.80970084209
5	207	48.922798273287	2.393984790605
5	234	57.349085119573	0.135897583936
5	244	58.833579857312	1.205040086538
5	248	59.327336333875	1.074715812799
5	259	64.028591093803	2.342519089285
5	269	68.273353772349	1.104629474765
5	282	75.909606765441	1.93642833759
5	297	78.290579090862	1.902853557832
5	322	89.917557204543	2.79262215722
5	327	90.13212143209	1.943981564382
5	340	92.037219484162	1.750042474692
5	347	93.612025334155	0.258422361506
5	358	95.006473098502	0.717159942729
5	373	96.637901364646	1.478567849019

