version 2
run Second-n2-8-20191125-12:37:04-7236
attr configname Second-n2
attr datetime 20191125-12:37:04
attr experiment Second-n2
attr inifile omnetpp.ini
attr iterationvars ""
attr iterationvarsf ""
attr measurement ""
attr network org.omnetpp.queueing.Pizza
attr processid 7236
attr repetition 8
attr replication ""
attr resultdir results_no_transient
attr runnumber 8
attr seedset 8
param **.PS.maxInventoriedPS 2
param **.U1.interArrivalTime exponential(3s)
param **.U2.interArrivalTime exponential(5s)
param **.PS.serviceTimeForInventoryU1 exponential(1.0s)
param **.PS.serviceTimeForInventoryU2 exponential(1.2s)
param **.PS.serviceTimeDirectU1 exponential(1.4s)
param **.PS.serviceTimeDirectU2 exponential(1.4s)
param **.PS.probabilityProducing 0.7
param **.CS.serviceTimeU1 exponential(1.1s)
param **.CS.serviceTimeU2 exponential(1.4s)

vector 0 Pizza.EntryQueueU1 queueLength:vector ETV
attr interpolationmode sample-hold
attr title "queue length, vector"
vector 1 Pizza.CS queueLength:vector ETV
attr interpolationmode sample-hold
attr title "queue length, vector"
vector 2 Pizza.EntryQueueU2 queueLength:vector ETV
attr interpolationmode sample-hold
attr title "queue length, vector"
vector 3 Pizza.sink lifeTime:vector ETV
attr interpolationmode none
attr title "lifetime of arrived jobs, vector"
attr unit s
vector 4 Pizza.sink lifeTimeU2:vector ETV
attr interpolationmode none
attr title "lifetime of arrived jobs, vector"
attr unit s
vector 5 Pizza.sink lifeTimeU1:vector ETV
attr interpolationmode none
attr title "lifetime of arrived jobs, vector"
attr unit s
0	0	0	0
0	19	7.745121925698	1
0	20	8.462924231862	0
0	51	19.866582745329	1
0	53	21.084961935791	2
0	55	21.250900090751	3
0	57	21.991676405797	4
0	59	22.92443490336	5
0	61	23.128656044406	6
0	62	23.160665149879	5
0	67	23.311145590648	4
0	72	23.533073317222	3
0	79	24.165193331254	4
0	80	24.468936011295	3
0	88	25.700434011629	2
0	94	26.62968369468	1
0	100	27.053410739031	0
0	133	35.722128082031	1
0	135	36.492270882768	2
0	138	38.199942505094	1
0	144	38.419328626812	0
0	166	49.913781289262	1
0	167	50.360241703495	0
0	186	55.263436387356	1
0	190	56.680884166858	0
0	229	67.035271351868	1
0	232	67.852282477146	2
0	233	68.88549954118	1
0	239	69.010945165736	2
0	241	69.693189781175	3
0	243	71.604839479261	4
0	244	71.808036339266	3
0	251	72.668591662577	4
0	253	73.66216554958	3
0	258	74.487280289914	2
0	265	75.475594381792	3
0	268	77.174995468754	4
0	269	77.567537243037	3
0	275	78.476339177109	2
0	283	79.29674352837	3
0	285	80.889040761853	4
0	286	81.272848893663	3
0	293	81.953179386229	4
0	296	81.978208648958	5
0	297	84.127730034436	4
0	304	86.63998079228	5
0	305	86.901903362706	4
0	313	87.700732690856	5
0	317	88.935337528517	6
0	318	90.199802112723	5
0	324	90.400089737874	6
0	326	91.208179871254	7
0	327	92.872193339899	6
0	333	94.607490518847	7
0	337	98.172692888861	8
0	338	98.527325550386	7
0	343	98.863472981295	6
0	349	99.912301837503	5
1	0	0	0
2	0	0	0
2	35	17.351180921554	1
2	36	17.449750261116	0
2	42	17.458736101037	1
2	43	18.058916085454	0
2	49	19.164678003815	1
2	106	28.257322956252	0
2	159	48.029145906206	1
2	160	49.543430294519	0
2	181	54.441840559002	1
2	182	54.525688488562	0
2	281	79.044877089974	1
2	311	87.261048671807	2
2	315	88.548938418652	3
2	335	98.033114905852	4
3	10	1.498645717792	1.442762393099
3	22	8.462924231862	2.262059079909
3	27	9.325232842285	1.580110916587
3	38	17.449750261116	1.875732184916
3	45	18.058916085454	0.7077351639
3	64	23.160665149879	5.701929048842
3	69	23.311145590648	3.444562845319
3	74	23.533073317222	2.448111381431
3	82	24.468936011295	3.218035920544
3	90	25.700434011629	3.708757605832
3	96	26.62968369468	3.70524879132
3	102	27.053410739031	3.924754694625
3	108	28.257322956252	4.092129624998
3	112	29.170877069694	10.006199065879
3	120	29.76244605431	0.207919180495
3	128	30.996315397585	0.036843137564
3	140	38.199942505094	3.413836305731
3	146	38.419328626812	2.697200544781
3	151	39.127522063689	2.635251180921
3	162	49.543430294519	2.955907769905
3	169	50.360241703495	2.331095797289
3	173	51.443954103726	1.530172814464
3	184	54.525688488562	0.671008074859
3	192	56.680884166858	2.239043607856
3	196	56.709766501364	1.446330114008
3	204	57.63325916849	0.226217226488
3	212	59.361414277505	1.005409856236
3	221	61.335392365989	1.470260579743
3	235	68.88549954118	1.949551572914
3	246	71.808036339266	4.772764987398
3	255	73.66216554958	5.809883072434
3	260	74.487280289914	5.476335124178
3	271	77.567537243037	7.874347461862
3	277	78.476339177109	6.871499697848
3	288	81.272848893663	8.604257231086
3	299	84.127730034436	8.652135652644
3	307	86.901903362706	9.726907893952
3	320	90.199802112723	10.903058584353
3	329	92.872193339899	11.983152578046
3	340	98.527325550386	16.574146164157
3	345	98.863472981295	16.885264332337
3	351	99.912301837503	13.272321045223
4	10	1.498645717792	1.442762393099
4	45	18.058916085454	0.7077351639
4	64	23.160665149879	5.701929048842
4	112	29.170877069694	10.006199065879
4	120	29.76244605431	0.207919180495
4	140	38.199942505094	3.413836305731
4	162	49.543430294519	2.955907769905
4	169	50.360241703495	2.331095797289
4	192	56.680884166858	2.239043607856
4	221	61.335392365989	1.470260579743
5	22	8.462924231862	2.262059079909
5	27	9.325232842285	1.580110916587
5	38	17.449750261116	1.875732184916
5	69	23.311145590648	3.444562845319
5	74	23.533073317222	2.448111381431
5	82	24.468936011295	3.218035920544
5	90	25.700434011629	3.708757605832
5	96	26.62968369468	3.70524879132
5	102	27.053410739031	3.924754694625
5	108	28.257322956252	4.092129624998
5	128	30.996315397585	0.036843137564
5	146	38.419328626812	2.697200544781
5	151	39.127522063689	2.635251180921
5	173	51.443954103726	1.530172814464
5	184	54.525688488562	0.671008074859
5	196	56.709766501364	1.446330114008
5	204	57.63325916849	0.226217226488
5	212	59.361414277505	1.005409856236
5	235	68.88549954118	1.949551572914
5	246	71.808036339266	4.772764987398
5	255	73.66216554958	5.809883072434
5	260	74.487280289914	5.476335124178
5	271	77.567537243037	7.874347461862
5	277	78.476339177109	6.871499697848
5	288	81.272848893663	8.604257231086
5	299	84.127730034436	8.652135652644
5	307	86.901903362706	9.726907893952
5	320	90.199802112723	10.903058584353
5	329	92.872193339899	11.983152578046
5	340	98.527325550386	16.574146164157
5	345	98.863472981295	16.885264332337
5	351	99.912301837503	13.272321045223

