version 2
run Second-n3-17-20191125-12:37:24-3940
attr configname Second-n3
attr datetime 20191125-12:37:24
attr experiment Second-n3
attr inifile omnetpp.ini
attr iterationvars ""
attr iterationvarsf ""
attr measurement ""
attr network org.omnetpp.queueing.Pizza
attr processid 3940
attr repetition 17
attr replication ""
attr resultdir results_no_transient
attr runnumber 17
attr seedset 17
param **.PS.maxInventoriedPS 3
param **.U1.interArrivalTime exponential(3s)
param **.U2.interArrivalTime exponential(5s)
param **.PS.serviceTimeForInventoryU1 exponential(1.0s)
param **.PS.serviceTimeForInventoryU2 exponential(1.2s)
param **.PS.serviceTimeDirectU1 exponential(1.4s)
param **.PS.serviceTimeDirectU2 exponential(1.4s)
param **.PS.probabilityProducing 0.7
param **.CS.serviceTimeU1 exponential(1.1s)
param **.CS.serviceTimeU2 exponential(1.4s)

vector 0 Pizza.EntryQueueU1 queueLength:vector ETV
attr interpolationmode sample-hold
attr title "queue length, vector"
vector 1 Pizza.CS queueLength:vector ETV
attr interpolationmode sample-hold
attr title "queue length, vector"
vector 2 Pizza.EntryQueueU2 queueLength:vector ETV
attr interpolationmode sample-hold
attr title "queue length, vector"
vector 3 Pizza.sink lifeTime:vector ETV
attr interpolationmode none
attr title "lifetime of arrived jobs, vector"
attr unit s
vector 4 Pizza.sink lifeTimeU2:vector ETV
attr interpolationmode none
attr title "lifetime of arrived jobs, vector"
attr unit s
vector 5 Pizza.sink lifeTimeU1:vector ETV
attr interpolationmode none
attr title "lifetime of arrived jobs, vector"
attr unit s
0	0	0	0
0	5	1.047247255701	1
0	7	1.685048182551	2
0	15	5.771218478445	1
0	25	7.933346283132	0
0	33	8.276072354561	1
0	36	8.43372407338	2
0	37	8.862781542098	1
0	44	9.388996927928	2
0	46	9.863883960143	1
0	52	10.578204809897	0
0	63	10.812738694981	1
0	65	11.389497314648	0
0	76	12.368304705932	1
0	80	13.405583306816	2
0	81	13.44066183391	1
0	87	14.486677701388	0
0	139	40.579451425212	1
0	141	40.868727198598	0
0	148	41.36887113295	1
0	149	41.501142860647	0
0	189	56.053039434327	1
0	190	57.34064676525	0
0	212	61.38496380931	1
0	213	61.676527522137	0
0	265	88.666502368793	1
0	266	90.753595248529	0
0	272	91.197192216979	1
0	273	91.253106955054	0
1	0	0	0
2	0	0	0
2	11	4.78446540537	1
2	22	7.424521447036	2
2	24	7.635263753248	3
2	57	10.630532879283	2
2	70	11.452005671604	1
2	92	14.677103722789	0
2	187	55.197039874998	1
2	195	58.55072590962	0
2	258	86.428178111953	1
2	259	86.941769125346	0
3	17	5.771218478445	4.768111945177
3	27	7.933346283132	6.886099027431
3	39	8.862781542098	7.177733359547
3	48	9.863883960143	1.587811605582
3	54	10.578204809897	2.144480736517
3	59	10.630532879283	1.241535951355
3	67	11.389497314648	6.605031909278
3	72	11.452005671604	0.639266976623
3	83	13.44066183391	6.016140386874
3	89	14.486677701388	2.118372995456
3	94	14.677103722789	1.271520415973
3	100	16.965123148084	9.329859394836
3	107	20.501076059384	1.755455932927
3	116	22.271767106212	0.071896323177
3	124	28.693921057423	0.010930993953
3	132	34.233638120794	0.214902277884
3	143	40.868727198598	2.475025821946
3	151	41.501142860647	0.921691435435
3	156	42.308056286483	0.939185153533
3	164	44.086784923801	0.512034464331
3	173	51.497666037536	0.30793471123
3	180	54.934793203608	0.251870326968
3	192	57.34064676525	2.222710301508
3	197	58.55072590962	2.497686475293
3	201	58.998653091827	3.801613216829
3	215	61.676527522137	1.237970753013
3	219	62.494015891409	1.109052082099
3	229	67.561537478796	0.309683970708
3	236	74.097347074261	0.092786842769
3	244	77.56940405729	0.735680704185
3	251	80.660672453968	0.157133757182
3	261	86.941769125346	1.31780896328
3	268	90.753595248529	4.325417136576
3	275	91.253106955054	2.586604586261
3	279	91.539969295961	0.342777078982
3	291	96.725917401217	0.161758412033
3	299	98.830365725612	0.767459771353
4	17	5.771218478445	4.768111945177
4	67	11.389497314648	6.605031909278
4	83	13.44066183391	6.016140386874
4	100	16.965123148084	9.329859394836
4	116	22.271767106212	0.071896323177
4	143	40.868727198598	2.475025821946
4	173	51.497666037536	0.30793471123
4	180	54.934793203608	0.251870326968
4	192	57.34064676525	2.222710301508
4	201	58.998653091827	3.801613216829
4	236	74.097347074261	0.092786842769
4	251	80.660672453968	0.157133757182
4	261	86.941769125346	1.31780896328
4	268	90.753595248529	4.325417136576
5	27	7.933346283132	6.886099027431
5	39	8.862781542098	7.177733359547
5	48	9.863883960143	1.587811605582
5	54	10.578204809897	2.144480736517
5	59	10.630532879283	1.241535951355
5	72	11.452005671604	0.639266976623
5	89	14.486677701388	2.118372995456
5	94	14.677103722789	1.271520415973
5	107	20.501076059384	1.755455932927
5	124	28.693921057423	0.010930993953
5	132	34.233638120794	0.214902277884
5	151	41.501142860647	0.921691435435
5	156	42.308056286483	0.939185153533
5	164	44.086784923801	0.512034464331
5	197	58.55072590962	2.497686475293
5	215	61.676527522137	1.237970753013
5	219	62.494015891409	1.109052082099
5	229	67.561537478796	0.309683970708
5	244	77.56940405729	0.735680704185
5	275	91.253106955054	2.586604586261
5	279	91.539969295961	0.342777078982
5	291	96.725917401217	0.161758412033
5	299	98.830365725612	0.767459771353

