version 2
run Second-n5-18-20191125-12:37:39-10788
attr configname Second-n5
attr datetime 20191125-12:37:39
attr experiment Second-n5
attr inifile omnetpp.ini
attr iterationvars ""
attr iterationvarsf ""
attr measurement ""
attr network org.omnetpp.queueing.Pizza
attr processid 10788
attr repetition 18
attr replication ""
attr resultdir results_no_transient
attr runnumber 18
attr seedset 18
param **.PS.maxInventoriedPS 5
param **.U1.interArrivalTime exponential(3s)
param **.U2.interArrivalTime exponential(5s)
param **.PS.serviceTimeForInventoryU1 exponential(1.0s)
param **.PS.serviceTimeForInventoryU2 exponential(1.2s)
param **.PS.serviceTimeDirectU1 exponential(1.4s)
param **.PS.serviceTimeDirectU2 exponential(1.4s)
param **.PS.probabilityProducing 0.7
param **.CS.serviceTimeU1 exponential(1.1s)
param **.CS.serviceTimeU2 exponential(1.4s)

vector 0 Pizza.EntryQueueU1 queueLength:vector ETV
attr interpolationmode sample-hold
attr title "queue length, vector"
vector 1 Pizza.CS queueLength:vector ETV
attr interpolationmode sample-hold
attr title "queue length, vector"
vector 2 Pizza.EntryQueueU2 queueLength:vector ETV
attr interpolationmode sample-hold
attr title "queue length, vector"
vector 3 Pizza.sink lifeTime:vector ETV
attr interpolationmode none
attr title "lifetime of arrived jobs, vector"
attr unit s
vector 4 Pizza.sink lifeTimeU2:vector ETV
attr interpolationmode none
attr title "lifetime of arrived jobs, vector"
attr unit s
vector 5 Pizza.sink lifeTimeU1:vector ETV
attr interpolationmode none
attr title "lifetime of arrived jobs, vector"
attr unit s
0	0	0	0
0	13	3.837040156412	1
0	15	3.871760488338	2
0	20	5.420969847661	1
0	28	7.162516673358	2
0	31	8.963422107919	1
0	35	10.192006838088	2
0	38	10.959047461217	1
0	45	12.89859860685	2
0	46	13.649753956257	1
0	52	14.82738764571	0
0	64	15.818306844759	1
0	65	15.944918282238	0
0	69	16.740810051293	1
0	71	18.398651938964	2
0	75	20.340882017905	3
0	76	20.35569631046	2
0	80	21.053035585511	3
0	85	23.077257255862	2
0	90	23.961826693225	1
0	96	25.726708520284	0
0	102	25.996423265276	1
0	107	26.564757365893	0
0	136	30.889007860037	1
0	137	31.552089601766	0
0	146	32.247716580916	1
0	150	35.586888146722	0
0	172	40.249034821073	1
0	173	41.036490524799	0
0	196	47.739293300878	1
0	197	49.254794716948	0
0	204	49.677760598036	1
0	205	50.021830824056	0
0	229	59.624732814144	1
0	231	60.395719396387	0
0	238	61.053648057199	1
0	239	61.400366451622	0
0	285	72.61794735204	1
0	286	73.403254260341	0
0	304	77.557354339099	1
0	305	77.6610590036	0
0	331	81.91594695446	1
0	333	81.970940100836	2
0	336	83.363464992942	3
0	338	83.751466954531	4
0	339	84.373934496763	3
0	347	86.76413894665	2
0	353	88.342523820931	1
0	359	88.461112209647	2
0	360	88.509245976174	1
0	365	88.557901826084	0
0	402	96.971057219505	1
0	403	97.232826499477	0
1	0	0	0
2	0	0	0
2	17	3.915843542956	1
2	24	6.699244472579	2
2	26	6.84281575701	3
2	58	15.637022807143	2
2	104	26.161953829631	3
2	112	27.263543131331	2
2	117	27.282767017642	1
2	126	29.240280801496	0
2	134	30.411285249218	1
2	142	31.564275207923	0
2	302	77.162994715408	1
2	311	79.880977141148	0
2	324	81.057446524861	1
2	325	81.120702190829	0
2	345	84.37785534894	1
2	370	89.148067506916	0
2	392	93.094116152768	1
2	396	94.244098316265	0
3	7	1.469680944072	1.074406638259
3	22	5.420969847661	2.268293956501
3	33	8.963422107919	5.126381951507
3	40	10.959047461217	7.087286972879
3	48	13.649753956257	6.487237282899
3	54	14.82738764571	4.635380807622
3	60	15.637022807143	2.738424200293
3	67	15.944918282238	12.029074739282
3	78	20.35569631046	4.537389465701
3	87	23.077257255862	6.336447204569
3	92	23.961826693225	5.563174754261
3	98	25.726708520284	5.385826502379
3	109	26.564757365893	5.511721780382
3	114	27.263543131331	1.267119866055
3	119	27.282767017642	20.583522545063
3	128	29.240280801496	22.397465044486
3	139	31.552089601766	5.390135772135
3	144	31.564275207923	0.675267347886
3	152	35.586888146722	5.175602897504
3	157	36.027454257921	3.779737677005
3	165	37.567900143322	0.710188414155
3	175	41.036490524799	1.224614243883
3	180	41.369160483686	1.120125662613
3	189	45.556745560653	1.508915293147
3	199	49.254794716948	1.868438181063
3	207	50.021830824056	2.282537523178
3	211	50.198039485424	0.520278887388
3	220	56.037226655464	1.17971927191
3	233	60.395719396387	1.176476643181
3	241	61.400366451622	1.775633637478
3	246	61.983205992008	0.929557934809
3	254	63.164975904141	0.690814455391
3	261	63.298305571737	0.011373522132
3	269	66.322414938107	2.140644621904
3	277	69.817089570599	1.14663349132
3	288	73.403254260341	1.085148549048
3	293	74.072044059289	1.454096707249
3	307	77.6610590036	1.993179953862
3	313	79.880977141148	2.323622802049
3	317	80.007324865821	2.844330150413
3	327	81.120702190829	0.245725156041
3	341	84.373934496763	3.316487971902
3	349	86.76413894665	4.84819199219
3	355	88.342523820931	6.371583720095
3	362	88.509245976174	5.145780983232
3	367	88.557901826084	4.806434871553
3	372	89.148067506916	0.686955297269
3	377	89.484277605754	5.106422256814
3	385	91.69566329991	0.439831037597
3	398	94.244098316265	1.667515444236
3	405	97.232826499477	4.138710346709
3	409	97.993742868994	1.022685649489
4	7	1.469680944072	1.074406638259
4	67	15.944918282238	12.029074739282
4	119	27.282767017642	20.583522545063
4	128	29.240280801496	22.397465044486
4	139	31.552089601766	5.390135772135
4	152	35.586888146722	5.175602897504
4	189	45.556745560653	1.508915293147
4	199	49.254794716948	1.868438181063
4	233	60.395719396387	1.176476643181
4	269	66.322414938107	2.140644621904
4	288	73.403254260341	1.085148549048
4	307	77.6610590036	1.993179953862
4	317	80.007324865821	2.844330150413
4	341	84.373934496763	3.316487971902
4	377	89.484277605754	5.106422256814
4	385	91.69566329991	0.439831037597
4	405	97.232826499477	4.138710346709
5	22	5.420969847661	2.268293956501
5	33	8.963422107919	5.126381951507
5	40	10.959047461217	7.087286972879
5	48	13.649753956257	6.487237282899
5	54	14.82738764571	4.635380807622
5	60	15.637022807143	2.738424200293
5	78	20.35569631046	4.537389465701
5	87	23.077257255862	6.336447204569
5	92	23.961826693225	5.563174754261
5	98	25.726708520284	5.385826502379
5	109	26.564757365893	5.511721780382
5	114	27.263543131331	1.267119866055
5	144	31.564275207923	0.675267347886
5	157	36.027454257921	3.779737677005
5	165	37.567900143322	0.710188414155
5	175	41.036490524799	1.224614243883
5	180	41.369160483686	1.120125662613
5	207	50.021830824056	2.282537523178
5	211	50.198039485424	0.520278887388
5	220	56.037226655464	1.17971927191
5	241	61.400366451622	1.775633637478
5	246	61.983205992008	0.929557934809
5	254	63.164975904141	0.690814455391
5	261	63.298305571737	0.011373522132
5	277	69.817089570599	1.14663349132
5	293	74.072044059289	1.454096707249
5	313	79.880977141148	2.323622802049
5	327	81.120702190829	0.245725156041
5	349	86.76413894665	4.84819199219
5	355	88.342523820931	6.371583720095
5	362	88.509245976174	5.145780983232
5	367	88.557901826084	4.806434871553
5	372	89.148067506916	0.686955297269
5	398	94.244098316265	1.667515444236
5	409	97.993742868994	1.022685649489

