version 2
run Second-n4-12-20191125-12:37:27-10764
attr configname Second-n4
attr datetime 20191125-12:37:27
attr experiment Second-n4
attr inifile omnetpp.ini
attr iterationvars ""
attr iterationvarsf ""
attr measurement ""
attr network org.omnetpp.queueing.Pizza
attr processid 10764
attr repetition 12
attr replication ""
attr resultdir results_no_transient
attr runnumber 12
attr seedset 12
param **.PS.maxInventoriedPS 4
param **.U1.interArrivalTime exponential(3s)
param **.U2.interArrivalTime exponential(5s)
param **.PS.serviceTimeForInventoryU1 exponential(1.0s)
param **.PS.serviceTimeForInventoryU2 exponential(1.2s)
param **.PS.serviceTimeDirectU1 exponential(1.4s)
param **.PS.serviceTimeDirectU2 exponential(1.4s)
param **.PS.probabilityProducing 0.7
param **.CS.serviceTimeU1 exponential(1.1s)
param **.CS.serviceTimeU2 exponential(1.4s)

vector 0 Pizza.EntryQueueU1 queueLength:vector ETV
attr interpolationmode sample-hold
attr title "queue length, vector"
vector 1 Pizza.CS queueLength:vector ETV
attr interpolationmode sample-hold
attr title "queue length, vector"
vector 2 Pizza.EntryQueueU2 queueLength:vector ETV
attr interpolationmode sample-hold
attr title "queue length, vector"
vector 3 Pizza.sink lifeTime:vector ETV
attr interpolationmode none
attr title "lifetime of arrived jobs, vector"
attr unit s
vector 4 Pizza.sink lifeTimeU1:vector ETV
attr interpolationmode none
attr title "lifetime of arrived jobs, vector"
attr unit s
vector 5 Pizza.sink lifeTimeU2:vector ETV
attr interpolationmode none
attr title "lifetime of arrived jobs, vector"
attr unit s
0	0	0	0
0	12	4.544079627315	1
0	15	4.647742685778	2
0	17	4.749720756831	3
0	18	4.810059113956	2
0	23	4.972400601896	1
0	29	5.008108668951	2
0	31	6.212105333864	1
0	37	7.802955186689	2
0	39	7.809740571748	3
0	43	8.441445705322	4
0	44	8.892321783	3
0	51	10.434410184801	4
0	56	12.372334263112	3
0	62	13.596715998213	2
0	69	14.773313454113	3
0	70	15.45982406714	2
0	75	15.519669569404	1
0	82	15.799038923792	2
0	84	15.913480297219	3
0	85	15.956211691969	2
0	96	20.696777456058	1
0	101	21.259844227406	0
0	114	27.371549049922	1
0	117	28.459776417533	2
0	121	30.114992438218	3
0	123	31.518880671193	4
0	124	31.719217664405	3
0	129	31.75859938358	2
0	135	32.095631657033	1
0	140	33.207897736222	0
0	195	42.782324640137	1
0	196	43.155220628546	0
0	203	43.578985467811	1
0	204	43.874638715846	0
0	228	51.979641327425	1
0	231	53.746203598315	0
0	258	60.50289736032	1
0	260	61.85053484376	2
0	263	62.324311075719	1
0	269	63.412952355542	2
0	271	64.354922970117	3
0	272	64.465179608285	2
0	280	65.773801084274	1
0	286	66.195785885028	0
0	295	67.858112454906	1
0	298	68.434077106245	0
0	307	70.689152650204	1
0	310	72.199394752442	0
0	326	75.598453356914	1
0	328	76.062038960254	2
0	329	76.125833167322	1
0	335	77.349142415321	0
0	358	79.194063346733	1
0	361	79.800687177304	0
0	398	87.081365213263	1
0	400	87.724978600024	0
1	0	0	0
2	0	0	0
2	5	2.95495467354	1
2	10	4.482929231949	2
2	92	17.033867706903	3
2	107	24.327669397115	4
2	108	27.118815042915	3
2	145	33.239032813597	2
2	151	34.058800576951	1
2	157	35.095857287799	0
2	187	41.631722365938	1
2	188	41.702409113337	0
2	230	52.888477237265	1
2	237	54.965591269126	0
2	243	55.037366005636	1
2	245	56.318086456786	0
2	262	62.046328147507	1
2	279	65.078314432144	2
2	291	67.192057787579	1
2	303	68.513755456618	0
2	348	77.971006096461	1
2	350	78.41972955921	0
2	406	89.651849784933	1
2	407	89.829353897036	0
2	414	90.582884835422	1
2	415	91.271119540282	0
3	20	4.810059113956	4.307773847706
3	25	4.972400601896	0.428320974581
3	33	6.212105333864	1.564362648086
3	46	8.892321783	4.142601026169
3	58	12.372334263112	7.364225594161
3	64	13.596715998213	5.793760811524
3	72	15.45982406714	7.650083495392
3	77	15.519669569404	7.078223864082
3	87	15.956211691969	5.521801507168
3	98	20.696777456058	5.923464001945
3	103	21.259844227406	5.460805303614
3	110	27.118815042915	11.205334745696
3	126	31.719217664405	28.764262990865
3	131	31.75859938358	4.387050333658
3	137	32.095631657033	3.6358552395
3	142	33.207897736222	3.092905298004
3	147	33.239032813597	1.720152142404
3	153	34.058800576951	29.575871345002
3	159	35.095857287799	18.061989580896
3	164	35.165589289983	10.837919892868
3	171	37.565267057221	0.168824463261
3	179	40.709702920869	0.937081674275
3	190	41.702409113337	0.956263302606
3	198	43.155220628546	1.523498262608
3	206	43.874638715846	1.092314075709
3	212	45.94701388319	2.368028415379
3	219	50.193577181836	0.034811239171
3	233	53.746203598315	2.182265820557
3	239	54.965591269126	2.985949941701
3	247	56.318086456786	3.429609219521
3	251	56.856936165673	1.819570160037
3	265	62.324311075719	4.901195886325
3	274	64.465179608285	3.962282247965
3	282	65.773801084274	3.923266240514
3	288	66.195785885028	2.782833529486
3	293	67.192057787579	2.837134817462
3	300	68.434077106245	6.387748958738
3	305	68.513755456618	0.655643001712
3	312	72.199394752442	7.121080320298
3	316	72.459535717094	1.77038306689
3	331	76.125833167322	0.597333048897
3	337	77.349142415321	1.750689058407
3	341	77.509224262505	1.447185302251
3	352	78.41972955921	0.721210280598
3	363	79.800687177304	1.829681080843
3	367	80.039492716356	0.845429369623
3	377	82.195668807475	0.214955997344
3	384	84.878366896899	0.014690573153
3	391	85.46925087448	0.565396842942
3	402	87.724978600024	0.908922063758
3	409	89.829353897036	2.747988683773
3	417	91.271119540282	1.619269755349
3	421	93.282629916309	2.699745080887
3	429	97.229349143706	3.270370300662
3	436	97.466423719022	0.000464554657
4	20	4.810059113956	4.307773847706
4	25	4.972400601896	0.428320974581
4	33	6.212105333864	1.564362648086
4	46	8.892321783	4.142601026169
4	58	12.372334263112	7.364225594161
4	64	13.596715998213	5.793760811524
4	72	15.45982406714	7.650083495392
4	77	15.519669569404	7.078223864082
4	87	15.956211691969	5.521801507168
4	98	20.696777456058	5.923464001945
4	103	21.259844227406	5.460805303614
4	110	27.118815042915	11.205334745696
4	131	31.75859938358	4.387050333658
4	137	32.095631657033	3.6358552395
4	142	33.207897736222	3.092905298004
4	147	33.239032813597	1.720152142404
4	179	40.709702920869	0.937081674275
4	190	41.702409113337	0.956263302606
4	206	43.874638715846	1.092314075709
4	212	45.94701388319	2.368028415379
4	219	50.193577181836	0.034811239171
4	233	53.746203598315	2.182265820557
4	239	54.965591269126	2.985949941701
4	274	64.465179608285	3.962282247965
4	282	65.773801084274	3.923266240514
4	288	66.195785885028	2.782833529486
4	293	67.192057787579	2.837134817462
4	305	68.513755456618	0.655643001712
4	316	72.459535717094	1.77038306689
4	331	76.125833167322	0.597333048897
4	337	77.349142415321	1.750689058407
4	341	77.509224262505	1.447185302251
4	367	80.039492716356	0.845429369623
4	377	82.195668807475	0.214955997344
4	402	87.724978600024	0.908922063758
4	409	89.829353897036	2.747988683773
4	436	97.466423719022	0.000464554657
5	126	31.719217664405	28.764262990865
5	153	34.058800576951	29.575871345002
5	159	35.095857287799	18.061989580896
5	164	35.165589289983	10.837919892868
5	171	37.565267057221	0.168824463261
5	198	43.155220628546	1.523498262608
5	247	56.318086456786	3.429609219521
5	251	56.856936165673	1.819570160037
5	265	62.324311075719	4.901195886325
5	300	68.434077106245	6.387748958738
5	312	72.199394752442	7.121080320298
5	352	78.41972955921	0.721210280598
5	363	79.800687177304	1.829681080843
5	384	84.878366896899	0.014690573153
5	391	85.46925087448	0.565396842942
5	417	91.271119540282	1.619269755349
5	421	93.282629916309	2.699745080887
5	429	97.229349143706	3.270370300662

