version 2
run Second-n2-7-20191125-12:37:03-4864
attr configname Second-n2
attr datetime 20191125-12:37:03
attr experiment Second-n2
attr inifile omnetpp.ini
attr iterationvars ""
attr iterationvarsf ""
attr measurement ""
attr network org.omnetpp.queueing.Pizza
attr processid 4864
attr repetition 7
attr replication ""
attr resultdir results_no_transient
attr runnumber 7
attr seedset 7
param **.PS.maxInventoriedPS 2
param **.U1.interArrivalTime exponential(3s)
param **.U2.interArrivalTime exponential(5s)
param **.PS.serviceTimeForInventoryU1 exponential(1.0s)
param **.PS.serviceTimeForInventoryU2 exponential(1.2s)
param **.PS.serviceTimeDirectU1 exponential(1.4s)
param **.PS.serviceTimeDirectU2 exponential(1.4s)
param **.PS.probabilityProducing 0.7
param **.CS.serviceTimeU1 exponential(1.1s)
param **.CS.serviceTimeU2 exponential(1.4s)

vector 0 Pizza.EntryQueueU1 queueLength:vector ETV
attr interpolationmode sample-hold
attr title "queue length, vector"
vector 1 Pizza.CS queueLength:vector ETV
attr interpolationmode sample-hold
attr title "queue length, vector"
vector 2 Pizza.EntryQueueU2 queueLength:vector ETV
attr interpolationmode sample-hold
attr title "queue length, vector"
vector 3 Pizza.sink lifeTime:vector ETV
attr interpolationmode none
attr title "lifetime of arrived jobs, vector"
attr unit s
vector 4 Pizza.sink lifeTimeU1:vector ETV
attr interpolationmode none
attr title "lifetime of arrived jobs, vector"
attr unit s
vector 5 Pizza.sink lifeTimeU2:vector ETV
attr interpolationmode none
attr title "lifetime of arrived jobs, vector"
attr unit s
0	0	0	0
0	14	4.779406805032	1
0	18	7.09919964411	2
0	25	8.293738667358	1
0	31	9.185371518969	2
0	32	10.084879756582	1
0	37	10.159911514894	0
0	41	10.39056440177	1
0	43	11.410210051847	2
0	49	12.197599506787	1
0	54	12.225335408656	0
0	61	14.757338308187	1
0	64	15.331011460596	2
0	67	17.468583380932	1
0	73	18.995312034565	0
0	93	22.525933705209	1
0	96	23.195827660553	0
0	136	31.588982217883	1
0	140	33.216742494701	2
0	141	38.682170409444	1
0	147	39.144759736535	0
0	158	40.323662928236	1
0	160	41.254189542566	0
0	173	42.543789412125	1
0	176	45.05923843099	0
0	191	46.618339027246	1
0	192	47.105297462079	0
0	196	47.422449567125	1
0	201	50.599318824427	0
0	237	60.918565367612	1
0	241	61.813599939802	2
0	242	63.957971926958	1
0	248	64.014768059969	2
0	251	65.708679489673	1
0	257	65.859781277155	2
0	259	67.473586656678	1
0	267	69.77047424726	0
0	279	70.377902900233	1
0	282	70.957854045101	2
0	284	71.187389934085	1
0	289	72.313595479441	0
0	305	74.747348077715	1
0	309	76.354991886801	0
0	328	79.373257874441	1
0	329	79.684486840682	0
0	333	80.924033310548	1
0	336	82.303394614419	0
0	342	83.574929838959	1
0	350	86.183490583668	2
0	351	86.405516771756	1
0	358	87.809493231682	2
0	359	88.082264923069	1
0	365	88.356390201006	0
0	378	93.643713814597	1
0	382	94.559344130749	2
0	386	97.272384936096	1
0	391	97.913194240529	0
1	0	0	0
2	0	0	0
2	7	1.289574873422	1
2	8	2.18990419039	0
2	12	4.329791302035	1
2	16	6.170730166792	2
2	24	7.702478603867	3
2	45	11.453869072362	4
2	79	19.689024115992	3
2	84	20.611638594021	2
2	89	21.943248581908	1
2	102	23.471066121664	2
2	104	25.197445792964	1
2	110	26.428586956625	2
2	111	26.915195557302	1
2	115	27.198515601053	2
2	119	27.634525836338	3
2	120	28.476775111065	2
2	125	29.461892940597	1
2	129	29.81140356163	2
2	132	30.904722448326	1
2	152	39.756267766149	0
2	189	46.217850675952	1
2	200	50.293447764311	2
2	209	54.132538113412	1
2	214	54.273212517281	0
2	239	61.512393614802	1
2	250	64.484522829705	2
2	265	68.179328085894	3
2	273	70.283249946311	2
2	294	72.799487918765	1
2	299	73.699548401601	0
2	308	76.238508223904	1
2	315	78.572149156848	0
2	340	83.328059949108	1
2	344	84.637681111124	2
2	370	89.169710318723	1
2	374	90.019368226603	2
2	376	93.362153129734	3
2	384	94.964960716781	4
3	10	2.18990419039	1.951773455984
3	27	8.293738667358	7.004163793936
3	34	10.084879756582	5.30547295155
3	39	10.159911514894	3.060711870784
3	51	12.197599506787	3.012227987818
3	56	12.225335408656	1.834771006886
3	69	17.468583380932	6.058373329085
3	75	18.995312034565	4.237973726378
3	81	19.689024115992	4.358012655396
3	86	20.611638594021	16.281847291986
3	91	21.943248581908	15.772518415116
3	98	23.195827660553	15.493349056686
3	106	25.197445792964	2.671512087755
3	113	26.915195557302	15.46132648494
3	122	28.476775111065	5.005708989401
3	127	29.461892940597	3.033305983972
3	134	30.904722448326	3.706206847273
3	143	38.682170409444	11.047644573106
3	149	39.144759736535	7.555777518652
3	154	39.756267766149	6.539525271448
3	162	41.254189542566	11.442785980936
3	168	42.464625346436	2.1409624182
3	178	45.05923843099	2.55670639115
3	182	45.119289730552	2.575500318427
3	194	47.105297462079	0.987741399615
3	203	50.599318824427	3.980979797181
3	211	54.132538113412	6.710088546287
3	216	54.273212517281	8.055361841329
3	220	56.889837700804	6.596389936493
3	228	57.908599033869	0.43141211225
3	244	63.957971926958	4.231946067693
3	253	65.708679489673	4.790114122061
3	261	67.473586656678	5.659986716876
3	269	69.77047424726	5.755706187291
3	275	70.283249946311	4.423468669156
3	286	71.187389934085	9.674996319283
3	291	72.313595479441	1.935692579208
3	296	72.799487918765	1.841633873664
3	301	73.699548401601	9.215025571896
3	311	76.354991886801	8.175663800907
3	317	78.572149156848	3.824801079133
3	321	78.652087849941	2.413579626037
3	331	79.684486840682	1.02949968082
3	338	82.303394614419	2.930136739978
3	353	86.405516771756	5.481483461208
3	361	88.082264923069	4.50733508411
3	367	88.356390201006	2.172899617338
3	372	89.169710318723	1.360217087041
3	388	97.272384936096	13.944324986988
3	393	97.913194240529	4.269480425932
4	10	2.18990419039	1.951773455984
4	34	10.084879756582	5.30547295155
4	39	10.159911514894	3.060711870784
4	51	12.197599506787	3.012227987818
4	56	12.225335408656	1.834771006886
4	69	17.468583380932	6.058373329085
4	75	18.995312034565	4.237973726378
4	81	19.689024115992	4.358012655396
4	106	25.197445792964	2.671512087755
4	149	39.144759736535	7.555777518652
4	154	39.756267766149	6.539525271448
4	168	42.464625346436	2.1409624182
4	182	45.119289730552	2.575500318427
4	194	47.105297462079	0.987741399615
4	203	50.599318824427	3.980979797181
4	211	54.132538113412	6.710088546287
4	228	57.908599033869	0.43141211225
4	253	65.708679489673	4.790114122061
4	261	67.473586656678	5.659986716876
4	269	69.77047424726	5.755706187291
4	275	70.283249946311	4.423468669156
4	291	72.313595479441	1.935692579208
4	296	72.799487918765	1.841633873664
4	317	78.572149156848	3.824801079133
4	331	79.684486840682	1.02949968082
4	338	82.303394614419	2.930136739978
4	353	86.405516771756	5.481483461208
4	361	88.082264923069	4.50733508411
4	367	88.356390201006	2.172899617338
4	372	89.169710318723	1.360217087041
4	393	97.913194240529	4.269480425932
5	27	8.293738667358	7.004163793936
5	86	20.611638594021	16.281847291986
5	91	21.943248581908	15.772518415116
5	98	23.195827660553	15.493349056686
5	113	26.915195557302	15.46132648494
5	122	28.476775111065	5.005708989401
5	127	29.461892940597	3.033305983972
5	134	30.904722448326	3.706206847273
5	143	38.682170409444	11.047644573106
5	162	41.254189542566	11.442785980936
5	178	45.05923843099	2.55670639115
5	216	54.273212517281	8.055361841329
5	220	56.889837700804	6.596389936493
5	244	63.957971926958	4.231946067693
5	286	71.187389934085	9.674996319283
5	301	73.699548401601	9.215025571896
5	311	76.354991886801	8.175663800907
5	321	78.652087849941	2.413579626037
5	388	97.272384936096	13.944324986988

