version 2
run Second-n5-6-20191125-12:37:30-8384
attr configname Second-n5
attr datetime 20191125-12:37:30
attr experiment Second-n5
attr inifile omnetpp.ini
attr iterationvars ""
attr iterationvarsf ""
attr measurement ""
attr network org.omnetpp.queueing.Pizza
attr processid 8384
attr repetition 6
attr replication ""
attr resultdir results_no_transient
attr runnumber 6
attr seedset 6
param **.PS.maxInventoriedPS 5
param **.U1.interArrivalTime exponential(3s)
param **.U2.interArrivalTime exponential(5s)
param **.PS.serviceTimeForInventoryU1 exponential(1.0s)
param **.PS.serviceTimeForInventoryU2 exponential(1.2s)
param **.PS.serviceTimeDirectU1 exponential(1.4s)
param **.PS.serviceTimeDirectU2 exponential(1.4s)
param **.PS.probabilityProducing 0.7
param **.CS.serviceTimeU1 exponential(1.1s)
param **.CS.serviceTimeU2 exponential(1.4s)

vector 0 Pizza.EntryQueueU1 queueLength:vector ETV
attr interpolationmode sample-hold
attr title "queue length, vector"
vector 1 Pizza.CS queueLength:vector ETV
attr interpolationmode sample-hold
attr title "queue length, vector"
vector 2 Pizza.EntryQueueU2 queueLength:vector ETV
attr interpolationmode sample-hold
attr title "queue length, vector"
vector 3 Pizza.sink lifeTime:vector ETV
attr interpolationmode none
attr title "lifetime of arrived jobs, vector"
attr unit s
vector 4 Pizza.sink lifeTimeU1:vector ETV
attr interpolationmode none
attr title "lifetime of arrived jobs, vector"
attr unit s
vector 5 Pizza.sink lifeTimeU2:vector ETV
attr interpolationmode none
attr title "lifetime of arrived jobs, vector"
attr unit s
0	0	0	0
0	16	8.225492417849	1
0	17	8.508111837719	0
0	24	10.493091882518	1
0	25	10.998708796901	0
0	62	19.895177068662	1
0	64	20.19709816013	0
0	70	20.632457567085	1
0	71	20.875394751246	0
0	103	36.085998680448	1
0	104	36.439095479219	0
0	132	40.468184451003	1
0	135	42.417841610185	0
0	149	44.809516462737	1
0	152	44.934674175348	0
0	163	46.015896867266	1
0	166	47.877599970086	2
0	168	48.858555502862	1
0	177	49.918306376808	0
0	185	53.317933335826	1
0	186	54.406135036921	0
0	228	59.609176954899	1
0	231	59.743542575554	0
0	302	76.707267534507	1
0	303	76.83389242081	0
0	359	95.430792055732	1
0	361	96.50744794996	2
0	363	97.492840292172	3
0	365	98.089355396366	4
0	366	98.975129100273	3
1	0	0	0
2	0	0	0
2	41	14.732432608285	1
2	43	15.735417840727	0
2	134	41.476261123518	1
2	140	42.649013204792	0
2	151	44.854744689904	1
2	157	45.827384550527	0
2	174	48.960511102268	1
2	183	51.650635758593	2
2	191	54.571108946175	1
2	196	55.252798182987	0
2	237	60.392219049199	1
2	238	60.762147131377	0
2	275	63.91567366788	1
2	276	64.244416658299	0
2	335	88.340718948615	1
2	336	89.213577240292	0
2	349	94.387904696984	1
2	353	94.890326276073	0
2	373	99.412068359197	1
3	7	7.076670390206	0.375809616764
3	19	8.508111837719	0.596940445195
3	27	10.998708796901	2.773216379052
3	31	11.300319852052	0.807227969534
3	45	15.735417840727	1.248246844087
3	52	17.303909093657	2.571476485372
3	66	20.19709816013	0.567894333938
3	73	20.875394751246	0.980217682584
3	79	22.579657678428	1.947200111343
3	87	25.787604733098	0.606999482458
3	95	33.894681694717	0.7209369732
3	106	36.439095479219	1.802654170218
3	110	36.938858160684	0.852859480236
3	118	39.098384365309	1.449213357607
3	125	40.004335800805	0.558929240909
3	137	42.417841610185	2.133939727653
3	142	42.649013204792	2.180828753789
3	154	44.934674175348	3.45841305183
3	159	45.827384550527	1.01786808779
3	170	48.858555502862	4.003810812958
3	179	49.918306376808	3.902409509542
3	188	54.406135036921	6.528535066835
3	193	54.571108946175	1.253175610349
3	198	55.252798182987	6.292287080719
3	202	55.552422224656	3.901786466063
3	211	56.297150240012	0.571302693245
3	219	57.88213397503	1.149240618211
3	233	59.743542575554	0.791305176466
3	240	60.762147131377	1.152970176478
3	244	60.936401627008	0.544182577809
3	251	61.277185222939	0.251695033716
3	258	61.48569099319	0.041024976896
3	267	63.018054667672	1.144502313244
3	278	64.244416658299	0.452827281412
3	284	65.402666391348	1.486992723468
3	294	74.243995750477	2.36037665309
3	305	76.83389242081	1.213338768876
3	310	78.360711925192	1.653444390685
3	319	79.548030633922	0.019204348419
3	328	80.682329886527	0.92020313046
3	338	89.213577240292	1.197024402207
3	342	89.820777035802	1.480058087187
3	355	94.890326276073	0.535659963973
3	368	98.975129100273	4.587224403289
4	7	7.076670390206	0.375809616764
4	19	8.508111837719	0.596940445195
4	27	10.998708796901	2.773216379052
4	31	11.300319852052	0.807227969534
4	45	15.735417840727	1.248246844087
4	66	20.19709816013	0.567894333938
4	73	20.875394751246	0.980217682584
4	79	22.579657678428	1.947200111343
4	110	36.938858160684	0.852859480236
4	118	39.098384365309	1.449213357607
4	125	40.004335800805	0.558929240909
4	137	42.417841610185	2.133939727653
4	142	42.649013204792	2.180828753789
4	159	45.827384550527	1.01786808779
4	179	49.918306376808	3.902409509542
4	188	54.406135036921	6.528535066835
4	193	54.571108946175	1.253175610349
4	211	56.297150240012	0.571302693245
4	219	57.88213397503	1.149240618211
4	233	59.743542575554	0.791305176466
4	240	60.762147131377	1.152970176478
4	251	61.277185222939	0.251695033716
4	258	61.48569099319	0.041024976896
4	305	76.83389242081	1.213338768876
4	310	78.360711925192	1.653444390685
4	328	80.682329886527	0.92020313046
4	355	94.890326276073	0.535659963973
5	52	17.303909093657	2.571476485372
5	87	25.787604733098	0.606999482458
5	95	33.894681694717	0.7209369732
5	106	36.439095479219	1.802654170218
5	154	44.934674175348	3.45841305183
5	170	48.858555502862	4.003810812958
5	198	55.252798182987	6.292287080719
5	202	55.552422224656	3.901786466063
5	244	60.936401627008	0.544182577809
5	267	63.018054667672	1.144502313244
5	278	64.244416658299	0.452827281412
5	284	65.402666391348	1.486992723468
5	294	74.243995750477	2.36037665309
5	319	79.548030633922	0.019204348419
5	338	89.213577240292	1.197024402207
5	342	89.820777035802	1.480058087187
5	368	98.975129100273	4.587224403289

