version 2
run Second-n5-11-20191125-12:37:33-4776
attr configname Second-n5
attr datetime 20191125-12:37:33
attr experiment Second-n5
attr inifile omnetpp.ini
attr iterationvars ""
attr iterationvarsf ""
attr measurement ""
attr network org.omnetpp.queueing.Pizza
attr processid 4776
attr repetition 11
attr replication ""
attr resultdir results_no_transient
attr runnumber 11
attr seedset 11
param **.PS.maxInventoriedPS 5
param **.U1.interArrivalTime exponential(3s)
param **.U2.interArrivalTime exponential(5s)
param **.PS.serviceTimeForInventoryU1 exponential(1.0s)
param **.PS.serviceTimeForInventoryU2 exponential(1.2s)
param **.PS.serviceTimeDirectU1 exponential(1.4s)
param **.PS.serviceTimeDirectU2 exponential(1.4s)
param **.PS.probabilityProducing 0.7
param **.CS.serviceTimeU1 exponential(1.1s)
param **.CS.serviceTimeU2 exponential(1.4s)

vector 0 Pizza.EntryQueueU1 queueLength:vector ETV
attr interpolationmode sample-hold
attr title "queue length, vector"
vector 1 Pizza.CS queueLength:vector ETV
attr interpolationmode sample-hold
attr title "queue length, vector"
vector 2 Pizza.EntryQueueU2 queueLength:vector ETV
attr interpolationmode sample-hold
attr title "queue length, vector"
vector 3 Pizza.sink lifeTime:vector ETV
attr interpolationmode none
attr title "lifetime of arrived jobs, vector"
attr unit s
vector 4 Pizza.sink lifeTimeU2:vector ETV
attr interpolationmode none
attr title "lifetime of arrived jobs, vector"
attr unit s
vector 5 Pizza.sink lifeTimeU1:vector ETV
attr interpolationmode none
attr title "lifetime of arrived jobs, vector"
attr unit s
0	0	0	0
0	7	0.596339664521	1
0	9	1.243784658675	2
0	12	2.039243283073	1
0	22	5.116016474486	2
0	23	5.462739358186	1
0	28	5.589365504585	0
0	41	11.729893309499	1
0	42	11.87554105472	0
0	48	12.10229102321	1
0	51	12.617904401435	2
0	52	13.531638208422	1
0	57	13.996439819111	0
0	114	23.881938116842	1
0	116	26.495544692621	0
0	173	48.19306000265	1
0	175	48.316129530238	2
0	177	49.857580073549	1
0	182	50.530124914108	0
0	189	51.399597455774	1
0	190	52.004537892826	0
0	233	60.376809425857	1
0	234	60.984352106895	0
0	297	75.755126254762	1
0	299	76.289705914103	2
0	300	76.317186250273	1
0	306	76.514906743123	0
0	352	95.965147484236	1
0	353	96.141635102314	0
1	0	0	0
2	0	0	0
2	5	0.452095681263	1
2	19	3.562916738516	2
2	33	7.282185063806	1
2	62	14.421177835127	0
2	205	56.617933725644	1
2	206	56.629057925022	0
2	219	57.759256788938	1
2	220	57.851765025607	0
3	14	2.039243283073	1.685484509349
3	25	5.462739358186	4.866399693665
3	30	5.589365504585	4.34558084591
3	35	7.282185063806	2.16616858932
3	44	11.87554105472	11.423445373457
3	54	13.531638208422	1.801744898923
3	59	13.996439819111	1.894148795901
3	64	14.421177835127	1.803273433692
3	69	14.657204006723	11.094287268207
3	80	19.142187205626	1.359349365474
3	87	21.020119566117	0.776689350546
3	96	21.979976888427	0.929455531522
3	106	23.431029284845	0.423206383255
3	118	26.495544692621	2.832553099364
3	122	28.226074692644	4.344136575802
3	129	29.618202973272	1.052876665453
3	138	31.098369694383	0.630441126144
3	148	34.820562722002	0.266003519676
3	156	39.419079912984	0.448335629764
3	166	44.425442711299	1.784982476588
3	179	49.857580073549	1.832414576203
3	184	50.530124914108	2.337064911458
3	192	52.004537892826	3.688408362588
3	196	52.115755225707	0.716157769933
3	208	56.629057925022	0.480396602414
3	212	56.656403976707	0.038470251063
3	222	57.851765025607	0.844012814684
3	226	58.634608539162	0.875351750224
3	236	60.984352106895	0.759395559985
3	240	61.188028272676	0.811218846819
3	249	63.345395752422	1.457566018907
3	259	66.174241963252	0.240388126373
3	266	67.766045685337	0.806653173212
3	273	69.151110275311	0.158767352965
3	281	71.671983689242	2.1652939816
3	288	72.297186402988	0.270495338737
3	302	76.317186250273	2.81253524164
3	308	76.514906743123	0.759780488361
3	312	76.598727456526	0.309021542423
3	319	78.179429494305	0.815499366695
3	328	87.6890376014	1.95665155204
3	336	89.624130126254	1.314883985145
3	344	94.354450533033	0.8050945139
3	355	96.141635102314	0.7491513605
3	361	97.292430804187	1.327283319951
4	14	2.039243283073	1.685484509349
4	44	11.87554105472	11.423445373457
4	69	14.657204006723	11.094287268207
4	80	19.142187205626	1.359349365474
4	96	21.979976888427	0.929455531522
4	166	44.425442711299	1.784982476588
4	208	56.629057925022	0.480396602414
4	212	56.656403976707	0.038470251063
4	222	57.851765025607	0.844012814684
4	226	58.634608539162	0.875351750224
4	236	60.984352106895	0.759395559985
4	266	67.766045685337	0.806653173212
4	273	69.151110275311	0.158767352965
4	302	76.317186250273	2.81253524164
4	328	87.6890376014	1.95665155204
5	25	5.462739358186	4.866399693665
5	30	5.589365504585	4.34558084591
5	35	7.282185063806	2.16616858932
5	54	13.531638208422	1.801744898923
5	59	13.996439819111	1.894148795901
5	64	14.421177835127	1.803273433692
5	87	21.020119566117	0.776689350546
5	106	23.431029284845	0.423206383255
5	118	26.495544692621	2.832553099364
5	122	28.226074692644	4.344136575802
5	129	29.618202973272	1.052876665453
5	138	31.098369694383	0.630441126144
5	148	34.820562722002	0.266003519676
5	156	39.419079912984	0.448335629764
5	179	49.857580073549	1.832414576203
5	184	50.530124914108	2.337064911458
5	192	52.004537892826	3.688408362588
5	196	52.115755225707	0.716157769933
5	240	61.188028272676	0.811218846819
5	249	63.345395752422	1.457566018907
5	259	66.174241963252	0.240388126373
5	281	71.671983689242	2.1652939816
5	288	72.297186402988	0.270495338737
5	308	76.514906743123	0.759780488361
5	312	76.598727456526	0.309021542423
5	319	78.179429494305	0.815499366695
5	336	89.624130126254	1.314883985145
5	344	94.354450533033	0.8050945139
5	355	96.141635102314	0.7491513605
5	361	97.292430804187	1.327283319951

