version 2
run Second-n3-15-20191125-12:37:22-9920
attr configname Second-n3
attr datetime 20191125-12:37:22
attr experiment Second-n3
attr inifile omnetpp.ini
attr iterationvars ""
attr iterationvarsf ""
attr measurement ""
attr network org.omnetpp.queueing.Pizza
attr processid 9920
attr repetition 15
attr replication ""
attr resultdir results_no_transient
attr runnumber 15
attr seedset 15
param **.PS.maxInventoriedPS 3
param **.U1.interArrivalTime exponential(3s)
param **.U2.interArrivalTime exponential(5s)
param **.PS.serviceTimeForInventoryU1 exponential(1.0s)
param **.PS.serviceTimeForInventoryU2 exponential(1.2s)
param **.PS.serviceTimeDirectU1 exponential(1.4s)
param **.PS.serviceTimeDirectU2 exponential(1.4s)
param **.PS.probabilityProducing 0.7
param **.CS.serviceTimeU1 exponential(1.1s)
param **.CS.serviceTimeU2 exponential(1.4s)

vector 0 Pizza.EntryQueueU1 queueLength:vector ETV
attr interpolationmode sample-hold
attr title "queue length, vector"
vector 1 Pizza.CS queueLength:vector ETV
attr interpolationmode sample-hold
attr title "queue length, vector"
vector 2 Pizza.EntryQueueU2 queueLength:vector ETV
attr interpolationmode sample-hold
attr title "queue length, vector"
vector 3 Pizza.sink lifeTime:vector ETV
attr interpolationmode none
attr title "lifetime of arrived jobs, vector"
attr unit s
vector 4 Pizza.sink lifeTimeU1:vector ETV
attr interpolationmode none
attr title "lifetime of arrived jobs, vector"
attr unit s
vector 5 Pizza.sink lifeTimeU2:vector ETV
attr interpolationmode none
attr title "lifetime of arrived jobs, vector"
attr unit s
0	0	0	0
0	5	6.259122747316	1
0	7	6.426812955062	2
0	9	6.779740928897	3
0	15	8.125822386251	4
0	20	9.215084584741	5
0	22	9.794334791656	4
0	28	10.077726858813	5
0	30	10.56124356042	4
0	35	12.371268259741	3
0	43	13.872864842129	4
0	44	14.343595575776	3
0	50	14.589370897654	2
0	57	15.102486848508	1
0	63	15.808087784751	0
0	87	18.343110150369	1
0	91	19.603937953895	0
0	114	23.505660607502	1
0	117	24.662769996379	0
0	127	26.172481051688	1
0	129	26.599364886897	2
0	132	27.636047524803	1
0	138	28.285693509303	0
0	155	31.175919358053	1
0	164	35.140055651099	0
0	175	35.598492310484	1
0	177	37.368135123618	0
0	188	37.920894000799	1
0	190	38.496513466657	2
0	191	38.506422966638	1
0	196	39.389300821932	0
0	205	41.271547301412	1
0	207	41.307795786304	2
0	208	41.796944825122	1
0	213	42.910318790528	0
0	236	45.945593411304	1
0	238	46.41815586926	2
0	239	46.708491369248	1
0	245	47.221074937463	0
0	260	50.504034165165	1
0	263	51.780032108761	0
0	269	52.140774494503	1
0	271	52.527823478242	2
0	273	53.199955211889	3
0	275	54.11575002861	2
0	283	56.839549378426	1
0	292	58.727280082969	2
0	293	59.369398574532	1
0	299	59.451511835196	2
0	301	60.438441473884	1
0	306	60.603424463948	0
0	341	66.976720938492	1
0	342	68.327720539306	0
0	348	68.340849444498	1
0	350	69.678388758488	0
0	362	71.015683774004	1
0	364	71.660183197111	0
0	395	77.861580594391	1
0	396	78.01412739932	0
0	419	80.93995563177	1
0	421	83.034719316637	0
0	432	84.692270009443	1
0	435	86.136838823367	0
0	448	89.363087181404	1
0	450	89.676804853729	2
0	452	89.752962643752	3
0	456	91.01160149964	4
0	460	93.338171107917	5
0	462	96.209879213524	6
0	463	96.217518613373	5
0	469	97.277315878641	4
1	0	0	0
2	0	0	0
2	17	8.398777523668	1
2	56	14.762268602085	2
2	68	16.092760335864	1
2	74	16.262083793036	2
2	76	16.968688085316	1
2	81	17.466031748918	0
2	89	18.386814257788	1
2	98	20.652183399091	2
2	99	21.531770718795	1
2	106	22.813849501061	0
2	112	23.233405070267	1
2	116	23.641250163587	2
2	123	25.389579983166	1
2	143	28.725834616845	0
2	149	29.589591716311	1
2	151	30.677252590539	0
2	157	32.705006305169	1
2	162	34.770077087374	2
2	169	35.547855954345	1
2	182	37.730976650238	0
2	220	43.26089160722	1
2	221	43.387640103602	0
2	281	55.939765515733	1
2	289	58.196976692071	2
2	311	60.702056693387	1
2	316	60.714776442349	0
2	330	63.172805516002	1
2	332	64.602318739209	2
2	335	65.367722820243	1
2	356	70.86330390473	0
2	409	78.7460950421	1
2	411	80.35981357636	2
2	412	80.658650160812	1
2	427	83.55634536692	2
2	428	83.708937514	1
2	440	86.279321596855	0
2	444	86.954416542178	1
3	24	9.794334791656	4.126528272437
3	32	10.56124356042	4.302120813104
3	37	12.371268259741	5.944455304679
3	46	14.343595575776	7.563854646879
3	52	14.589370897654	6.463548511403
3	59	15.102486848508	5.887402263767
3	65	15.808087784751	5.730360925938
3	70	16.092760335864	2.219895493735
3	78	16.968688085316	8.569910561648
3	83	17.466031748918	2.703763146833
3	93	19.603937953895	3.341854160859
3	101	21.531770718795	3.188660568426
3	108	22.813849501061	4.427035243273
3	119	24.662769996379	4.010586597288
3	125	25.389579983166	1.883919375664
3	134	27.636047524803	4.402642454536
3	140	28.285693509303	2.113212457615
3	145	28.725834616845	2.126469729948
3	153	30.677252590539	7.036002426952
3	166	35.140055651099	5.550463934788
3	171	35.547855954345	4.371936596292
3	179	37.368135123618	4.663128818449
3	184	37.730976650238	2.132484339754
3	193	38.506422966638	3.736345879264
3	198	39.389300821932	1.468406821133
3	210	41.796944825122	3.300431358465
3	215	42.910318790528	1.638771489116
3	223	43.387640103602	2.079844317298
3	227	43.759269051582	0.498377444362
3	241	46.708491369248	0.926080033601
3	247	47.221074937463	1.275481526159
3	253	49.996639832419	3.578483963159
3	265	51.780032108761	1.280936276522
3	277	54.11575002861	3.611715863445
3	285	56.839549378426	4.698774883923
3	295	59.369398574532	6.84157509629
3	303	60.438441473884	7.238486261995
3	308	60.603424463948	1.876144380979
3	313	60.702056693387	1.250544858191
3	318	60.714776442349	4.775010926616
3	322	61.263141461484	3.066164769413
3	337	65.367722820243	2.200383421069
3	344	68.327720539306	5.154915023304
3	352	69.678388758488	2.701667819996
3	358	70.86330390473	2.522454460232
3	366	71.660183197111	7.057864457902
3	371	73.450843622639	2.435159848635
3	379	74.967588027783	0.719771929647
3	386	75.848727203125	0.214855922471
3	398	78.01412739932	0.499577580664
3	402	78.148994601138	0.287414006747
3	414	80.658650160812	1.915496468252
3	423	83.034719316637	4.288624274537
3	430	83.708937514	2.76898188223
3	437	86.136838823367	5.777025247007
3	442	86.279321596855	1.587051587412
3	465	96.217518613373	12.661173246453
3	471	97.277315878641	7.914228697237
4	24	9.794334791656	4.126528272437
4	32	10.56124356042	4.302120813104
4	37	12.371268259741	5.944455304679
4	46	14.343595575776	7.563854646879
4	52	14.589370897654	6.463548511403
4	59	15.102486848508	5.887402263767
4	65	15.808087784751	5.730360925938
4	70	16.092760335864	2.219895493735
4	101	21.531770718795	3.188660568426
4	125	25.389579983166	1.883919375664
4	140	28.285693509303	2.113212457615
4	145	28.725834616845	2.126469729948
4	171	35.547855954345	4.371936596292
4	184	37.730976650238	2.132484339754
4	198	39.389300821932	1.468406821133
4	210	41.796944825122	3.300431358465
4	215	42.910318790528	1.638771489116
4	223	43.387640103602	2.079844317298
4	241	46.708491369248	0.926080033601
4	247	47.221074937463	1.275481526159
4	253	49.996639832419	3.578483963159
4	265	51.780032108761	1.280936276522
4	277	54.11575002861	3.611715863445
4	285	56.839549378426	4.698774883923
4	295	59.369398574532	6.84157509629
4	303	60.438441473884	7.238486261995
4	308	60.603424463948	1.876144380979
4	313	60.702056693387	1.250544858191
4	352	69.678388758488	2.701667819996
4	358	70.86330390473	2.522454460232
4	371	73.450843622639	2.435159848635
4	379	74.967588027783	0.719771929647
4	386	75.848727203125	0.214855922471
4	398	78.01412739932	0.499577580664
4	402	78.148994601138	0.287414006747
4	430	83.708937514	2.76898188223
4	442	86.279321596855	1.587051587412
4	471	97.277315878641	7.914228697237
5	78	16.968688085316	8.569910561648
5	83	17.466031748918	2.703763146833
5	93	19.603937953895	3.341854160859
5	108	22.813849501061	4.427035243273
5	119	24.662769996379	4.010586597288
5	134	27.636047524803	4.402642454536
5	153	30.677252590539	7.036002426952
5	166	35.140055651099	5.550463934788
5	179	37.368135123618	4.663128818449
5	193	38.506422966638	3.736345879264
5	227	43.759269051582	0.498377444362
5	318	60.714776442349	4.775010926616
5	322	61.263141461484	3.066164769413
5	337	65.367722820243	2.200383421069
5	344	68.327720539306	5.154915023304
5	366	71.660183197111	7.057864457902
5	414	80.658650160812	1.915496468252
5	423	83.034719316637	4.288624274537
5	437	86.136838823367	5.777025247007
5	465	96.217518613373	12.661173246453

