version 2
run Second-n4-8-20191125-12:37:22-11228
attr configname Second-n4
attr datetime 20191125-12:37:22
attr experiment Second-n4
attr inifile omnetpp.ini
attr iterationvars ""
attr iterationvarsf ""
attr measurement ""
attr network org.omnetpp.queueing.Pizza
attr processid 11228
attr repetition 8
attr replication ""
attr resultdir results_no_transient
attr runnumber 8
attr seedset 8
param **.PS.maxInventoriedPS 4
param **.U1.interArrivalTime exponential(3s)
param **.U2.interArrivalTime exponential(5s)
param **.PS.serviceTimeForInventoryU1 exponential(1.0s)
param **.PS.serviceTimeForInventoryU2 exponential(1.2s)
param **.PS.serviceTimeDirectU1 exponential(1.4s)
param **.PS.serviceTimeDirectU2 exponential(1.4s)
param **.PS.probabilityProducing 0.7
param **.CS.serviceTimeU1 exponential(1.1s)
param **.CS.serviceTimeU2 exponential(1.4s)

vector 0 Pizza.EntryQueueU1 queueLength:vector ETV
attr interpolationmode sample-hold
attr title "queue length, vector"
vector 1 Pizza.CS queueLength:vector ETV
attr interpolationmode sample-hold
attr title "queue length, vector"
vector 2 Pizza.EntryQueueU2 queueLength:vector ETV
attr interpolationmode sample-hold
attr title "queue length, vector"
vector 3 Pizza.sink lifeTime:vector ETV
attr interpolationmode none
attr title "lifetime of arrived jobs, vector"
attr unit s
vector 4 Pizza.sink lifeTimeU2:vector ETV
attr interpolationmode none
attr title "lifetime of arrived jobs, vector"
attr unit s
vector 5 Pizza.sink lifeTimeU1:vector ETV
attr interpolationmode none
attr title "lifetime of arrived jobs, vector"
attr unit s
0	0	0	0
0	29	10.178205989651	1
0	30	10.508044491469	0
0	70	21.148819681345	1
0	73	22.420294808514	2
0	74	23.579583531433	1
0	80	24.024448893654	0
0	140	42.202250620951	1
0	141	42.546293735538	0
0	147	42.827652868995	1
0	148	42.863450879488	0
0	158	43.555082309006	1
0	160	44.919225713552	0
0	171	45.940536379638	1
0	172	46.289779847651	0
0	199	50.888739403339	1
0	200	52.340490416549	0
0	229	56.86117436821	1
0	231	57.742300694142	0
0	237	57.924926551526	1
0	238	58.49078172023	0
0	244	58.754560197197	1
0	246	60.370574358717	0
0	254	61.004873125379	1
0	255	61.784209542858	0
0	262	62.534133724332	1
0	263	63.369753740847	0
0	310	81.215425356667	1
0	311	81.973810831747	0
1	0	0	0
2	0	0	0
2	117	39.611991244659	1
2	119	39.774649358853	2
2	121	39.94211816596	3
2	122	40.30288513925	2
2	127	40.662285112927	1
2	134	41.890063819966	0
2	154	42.981075729742	1
2	165	45.435769570558	0
2	178	46.821984611356	1
2	182	47.49375130299	0
2	197	50.004803664477	1
2	208	53.851126660335	0
2	287	69.607612736962	1
2	288	70.238010001702	0
2	341	87.323150557234	1
2	342	88.412677713832	0
3	10	1.498645717792	1.442762393099
3	22	7.530851907599	1.329986755646
3	32	10.508044491469	1.875732184916
3	36	10.98667478202	0.808468792369
3	47	13.350067342021	0.271617982183
3	54	17.542701482532	0.191520560978
3	61	19.393302201501	0.080943519663
3	76	23.579583531433	3.194550182216
3	82	24.024448893654	2.875629212309
3	87	24.953698576705	2.533403768191
3	94	35.334250221221	0.364537997414
3	101	37.855113211551	0.169153986669
3	108	38.279672275189	0.072465822516
3	124	40.30288513925	1.150947451621
3	129	40.662285112927	1.050293868268
3	136	41.890063819966	2.115414461113
3	143	42.546293735538	2.604175569578
3	150	42.863450879488	0.661200258537
3	162	44.919225713552	2.091572844557
3	167	45.435769570558	1.880687261552
3	174	46.289779847651	3.308704117909
3	184	47.49375130299	1.553214923352
3	188	47.936600459981	1.114615848625
3	202	52.340490416549	3.145979300565
3	210	53.851126660335	2.962387256996
3	214	53.897477572683	3.892673908206
3	221	55.017128558742	0.299570745935
3	233	57.742300694142	0.89210319244
3	240	58.49078172023	1.62960735202
3	248	60.370574358717	2.445647807191
3	257	61.784209542858	3.029649345661
3	265	63.369753740847	2.364880615468
3	269	63.629294258138	1.095160533806
3	278	67.12023337647	0.210684740039
3	290	70.238010001702	2.77417332827
3	294	70.814158925944	1.206546188982
3	302	74.79800004393	2.672391227176
3	313	81.973810831747	4.157696122673
3	319	82.510648430163	1.295223073496
3	326	84.827198492113	0.229136891437
3	333	86.044198923673	0.883294866151
3	344	88.412677713832	2.3139885982
3	348	89.874847898725	2.551697341491
3	355	92.602440735928	1.164803756022
3	362	97.806326479003	2.601097987828
3	370	99.444315871698	0.770438792666
4	10	1.498645717792	1.442762393099
4	54	17.542701482532	0.191520560978
4	101	37.855113211551	0.169153986669
4	129	40.662285112927	1.050293868268
4	136	41.890063819966	2.115414461113
4	143	42.546293735538	2.604175569578
4	174	46.289779847651	3.308704117909
4	188	47.936600459981	1.114615848625
4	214	53.897477572683	3.892673908206
4	233	57.742300694142	0.89210319244
4	278	67.12023337647	0.210684740039
4	294	70.814158925944	1.206546188982
4	326	84.827198492113	0.229136891437
4	344	88.412677713832	2.3139885982
4	348	89.874847898725	2.551697341491
4	355	92.602440735928	1.164803756022
4	362	97.806326479003	2.601097987828
5	22	7.530851907599	1.329986755646
5	32	10.508044491469	1.875732184916
5	36	10.98667478202	0.808468792369
5	47	13.350067342021	0.271617982183
5	61	19.393302201501	0.080943519663
5	76	23.579583531433	3.194550182216
5	82	24.024448893654	2.875629212309
5	87	24.953698576705	2.533403768191
5	94	35.334250221221	0.364537997414
5	108	38.279672275189	0.072465822516
5	124	40.30288513925	1.150947451621
5	150	42.863450879488	0.661200258537
5	162	44.919225713552	2.091572844557
5	167	45.435769570558	1.880687261552
5	184	47.49375130299	1.553214923352
5	202	52.340490416549	3.145979300565
5	210	53.851126660335	2.962387256996
5	221	55.017128558742	0.299570745935
5	240	58.49078172023	1.62960735202
5	248	60.370574358717	2.445647807191
5	257	61.784209542858	3.029649345661
5	265	63.369753740847	2.364880615468
5	269	63.629294258138	1.095160533806
5	290	70.238010001702	2.77417332827
5	302	74.79800004393	2.672391227176
5	313	81.973810831747	4.157696122673
5	319	82.510648430163	1.295223073496
5	333	86.044198923673	0.883294866151
5	370	99.444315871698	0.770438792666

