version 2
run Second-n2-16-20191125-12:37:16-2644
attr configname Second-n2
attr datetime 20191125-12:37:16
attr experiment Second-n2
attr inifile omnetpp.ini
attr iterationvars ""
attr iterationvarsf ""
attr measurement ""
attr network org.omnetpp.queueing.Pizza
attr processid 2644
attr repetition 16
attr replication ""
attr resultdir results_no_transient
attr runnumber 16
attr seedset 16
param **.PS.maxInventoriedPS 2
param **.U1.interArrivalTime exponential(3s)
param **.U2.interArrivalTime exponential(5s)
param **.PS.serviceTimeForInventoryU1 exponential(1.0s)
param **.PS.serviceTimeForInventoryU2 exponential(1.2s)
param **.PS.serviceTimeDirectU1 exponential(1.4s)
param **.PS.serviceTimeDirectU2 exponential(1.4s)
param **.PS.probabilityProducing 0.7
param **.CS.serviceTimeU1 exponential(1.1s)
param **.CS.serviceTimeU2 exponential(1.4s)

vector 0 Pizza.EntryQueueU1 queueLength:vector ETV
attr interpolationmode sample-hold
attr title "queue length, vector"
vector 1 Pizza.CS queueLength:vector ETV
attr interpolationmode sample-hold
attr title "queue length, vector"
vector 2 Pizza.EntryQueueU2 queueLength:vector ETV
attr interpolationmode sample-hold
attr title "queue length, vector"
vector 3 Pizza.sink lifeTime:vector ETV
attr interpolationmode none
attr title "lifetime of arrived jobs, vector"
attr unit s
vector 4 Pizza.sink lifeTimeU1:vector ETV
attr interpolationmode none
attr title "lifetime of arrived jobs, vector"
attr unit s
vector 5 Pizza.sink lifeTimeU2:vector ETV
attr interpolationmode none
attr title "lifetime of arrived jobs, vector"
attr unit s
0	0	0	0
0	32	9.005601412749	1
0	33	9.338591838291	0
0	47	12.852923878954	1
0	48	13.07436297853	0
0	62	14.725265713585	1
0	64	15.37457179092	2
0	65	17.806040811269	1
0	71	17.881790870432	2
0	72	17.960489264761	1
0	78	18.027513560291	0
0	82	19.014901927942	1
0	87	20.843704357634	0
0	122	26.556333589619	1
0	123	27.134139692308	0
0	140	29.144631468774	1
0	141	29.562336653847	0
0	172	36.350995740705	1
0	173	38.03577620182	0
0	184	40.114265173464	1
0	187	40.719894273498	0
0	223	54.956962493155	1
0	227	55.469644327602	2
0	230	55.60582543868	1
0	236	56.789507660694	2
0	241	58.406471961409	3
0	244	58.960269529446	2
0	251	60.990107274955	1
0	256	61.135973622675	0
0	262	62.260940827755	1
0	263	62.379158533953	0
0	276	66.619996069989	1
0	277	67.338462806026	0
0	288	67.943375807198	1
0	290	68.642152776727	2
0	293	71.80176279953	3
0	294	72.494554568433	2
0	299	72.560622482454	1
0	306	75.538284130626	0
0	326	80.080321066016	1
0	328	80.387767434277	0
0	335	80.540937762826	1
0	337	82.055020666486	2
0	339	82.060979785905	3
0	340	82.34438467217	2
0	346	85.274728567116	1
0	352	85.878834485065	0
1	0	0	0
2	0	0	0
2	86	20.268567663855	1
2	92	21.547558305676	0
2	108	23.753199964097	1
2	111	24.763109026447	0
2	118	25.281272717616	1
2	120	26.033303904918	2
2	129	28.808850115672	1
2	134	29.118879674323	0
2	158	33.821625868688	1
2	159	34.682840308154	0
2	179	39.030883162509	1
2	180	39.862807015443	0
2	229	55.526512322665	1
2	234	56.056504860467	2
2	243	58.671393249195	3
2	269	66.490182912593	2
2	282	67.939983139273	1
2	312	75.656348803119	2
2	313	75.756266835776	1
2	320	79.924657140731	0
3	7	0.889627516804	0.13155866397
3	17	2.227823492597	0.250327636298
3	25	6.093254839439	3.113442107973
3	35	9.338591838291	1.52568477235
3	40	10.766466597399	1.76086518465
3	50	13.07436297853	1.114543308301
3	55	13.479584740017	0.626660861063
3	67	17.806040811269	3.676482283064
3	74	17.960489264761	3.235223551176
3	80	18.027513560291	2.652941769371
3	89	20.843704357634	2.961913487202
3	94	21.547558305676	2.532656377734
3	101	23.164922675149	2.896355011294
3	113	24.763109026447	1.452566037574
3	125	27.134139692308	3.380939728211
3	131	28.808850115672	2.252516526053
3	136	29.118879674323	3.837606956707
3	143	29.562336653847	3.529032748929
3	147	29.829216652081	0.684585183307
3	161	34.682840308154	1.209363087026
3	165	35.814156101841	1.992530233153
3	175	38.03577620182	1.729421722464
3	182	39.862807015443	3.511811274738
3	189	40.719894273498	1.689011110989
3	193	41.348755803702	1.234490630238
3	203	45.729106044408	1.262363330102
3	211	47.308725721507	0.131709772724
3	218	53.652224596907	1.716393521116
3	232	55.60582543868	0.884157940498
3	246	58.960269529446	4.003307036291
3	253	60.990107274955	5.520462947353
3	258	61.135973622675	4.346465961981
3	265	62.379158533953	3.972686572544
3	271	66.490182912593	4.229242084838
3	279	67.338462806026	11.811950483361
3	284	67.939983139273	1.319987069284
3	296	72.494554568433	16.438049707966
3	301	72.560622482454	4.617246675256
3	308	75.538284130626	6.896131353899
3	315	75.756266835776	3.954504036246
3	322	79.924657140731	21.253263891536
3	330	80.387767434277	4.731418631158
3	342	82.34438467217	2.264063606154
3	348	85.274728567116	4.73379080429
3	354	85.878834485065	3.823813818579
3	358	85.900801761229	3.839821975324
3	367	87.950195890414	1.063804963036
3	374	89.045914887412	0.037403429705
3	383	95.618611742626	2.627757254652
3	390	98.269838302829	0.201207989463
4	7	0.889627516804	0.13155866397
4	25	6.093254839439	3.113442107973
4	40	10.766466597399	1.76086518465
4	55	13.479584740017	0.626660861063
4	74	17.960489264761	3.235223551176
4	80	18.027513560291	2.652941769371
4	89	20.843704357634	2.961913487202
4	94	21.547558305676	2.532656377734
4	113	24.763109026447	1.452566037574
4	131	28.808850115672	2.252516526053
4	147	29.829216652081	0.684585183307
4	161	34.682840308154	1.209363087026
4	182	39.862807015443	3.511811274738
4	193	41.348755803702	1.234490630238
4	203	45.729106044408	1.262363330102
4	211	47.308725721507	0.131709772724
4	218	53.652224596907	1.716393521116
4	232	55.60582543868	0.884157940498
4	246	58.960269529446	4.003307036291
4	253	60.990107274955	5.520462947353
4	258	61.135973622675	4.346465961981
4	265	62.379158533953	3.972686572544
4	271	66.490182912593	4.229242084838
4	284	67.939983139273	1.319987069284
4	301	72.560622482454	4.617246675256
4	308	75.538284130626	6.896131353899
4	315	75.756266835776	3.954504036246
4	342	82.34438467217	2.264063606154
4	348	85.274728567116	4.73379080429
4	354	85.878834485065	3.823813818579
4	358	85.900801761229	3.839821975324
4	367	87.950195890414	1.063804963036
4	374	89.045914887412	0.037403429705
4	390	98.269838302829	0.201207989463
5	17	2.227823492597	0.250327636298
5	35	9.338591838291	1.52568477235
5	50	13.07436297853	1.114543308301
5	67	17.806040811269	3.676482283064
5	101	23.164922675149	2.896355011294
5	125	27.134139692308	3.380939728211
5	136	29.118879674323	3.837606956707
5	143	29.562336653847	3.529032748929
5	165	35.814156101841	1.992530233153
5	175	38.03577620182	1.729421722464
5	189	40.719894273498	1.689011110989
5	279	67.338462806026	11.811950483361
5	296	72.494554568433	16.438049707966
5	322	79.924657140731	21.253263891536
5	330	80.387767434277	4.731418631158
5	383	95.618611742626	2.627757254652

