version 2
run Second-n4-16-20191125-12:37:30-3704
attr configname Second-n4
attr datetime 20191125-12:37:30
attr experiment Second-n4
attr inifile omnetpp.ini
attr iterationvars ""
attr iterationvarsf ""
attr measurement ""
attr network org.omnetpp.queueing.Pizza
attr processid 3704
attr repetition 16
attr replication ""
attr resultdir results_no_transient
attr runnumber 16
attr seedset 16
param **.PS.maxInventoriedPS 4
param **.U1.interArrivalTime exponential(3s)
param **.U2.interArrivalTime exponential(5s)
param **.PS.serviceTimeForInventoryU1 exponential(1.0s)
param **.PS.serviceTimeForInventoryU2 exponential(1.2s)
param **.PS.serviceTimeDirectU1 exponential(1.4s)
param **.PS.serviceTimeDirectU2 exponential(1.4s)
param **.PS.probabilityProducing 0.7
param **.CS.serviceTimeU1 exponential(1.1s)
param **.CS.serviceTimeU2 exponential(1.4s)

vector 0 Pizza.EntryQueueU1 queueLength:vector ETV
attr interpolationmode sample-hold
attr title "queue length, vector"
vector 1 Pizza.CS queueLength:vector ETV
attr interpolationmode sample-hold
attr title "queue length, vector"
vector 2 Pizza.EntryQueueU2 queueLength:vector ETV
attr interpolationmode sample-hold
attr title "queue length, vector"
vector 3 Pizza.sink lifeTime:vector ETV
attr interpolationmode none
attr title "lifetime of arrived jobs, vector"
attr unit s
vector 4 Pizza.sink lifeTimeU1:vector ETV
attr interpolationmode none
attr title "lifetime of arrived jobs, vector"
attr unit s
vector 5 Pizza.sink lifeTimeU2:vector ETV
attr interpolationmode none
attr title "lifetime of arrived jobs, vector"
attr unit s
0	0	0	0
0	75	17.927873678147	1
0	77	18.15276007385	2
0	79	18.860819086588	1
0	85	18.972407376762	0
0	94	19.96097387905	1
0	95	20.90891632457	0
0	108	23.206764479796	1
0	109	24.426930206642	0
0	139	29.237809434193	1
0	141	29.293523435648	2
0	143	29.391348947919	3
0	147	31.231892857969	2
0	154	31.778533152316	1
0	160	32.268867467496	2
0	162	32.84798554331	1
0	171	35.974771158491	2
0	173	36.477023958544	1
0	179	37.715605038956	0
0	191	39.660737539371	1
0	193	40.784160380558	0
0	293	75.621607040686	1
0	294	75.868898076597	0
0	329	86.022310451599	1
0	338	87.536393355259	2
0	341	87.982917831257	3
0	343	90.324513220148	4
0	344	90.744152521065	3
0	349	90.766119797229	2
0	355	91.54423065835	1
0	362	93.652286781371	2
0	363	93.657604696869	1
0	368	93.731870603596	0
0	374	93.754296135111	1
0	377	94.774341464963	0
0	415	99.951403517388	1
1	0	0	0
2	0	0	0
2	92	19.777940209876	1
2	101	22.361482362144	0
2	115	24.538715691462	1
2	119	26.140361038671	0
2	132	28.852545490053	1
2	133	29.23146027912	0
2	146	30.065636391115	1
2	153	31.375093289623	2
2	169	35.763451637559	3
2	185	38.63629245796	2
2	198	41.028467499522	1
2	203	41.138271830509	0
2	327	85.116890670037	1
2	331	86.687173433285	2
2	333	86.697105298983	3
2	376	94.739457201438	4
2	382	94.975549454426	3
2	389	96.423007169669	2
2	396	97.698939243741	1
2	401	98.052954358629	0
3	7	0.889627516804	0.13155866397
3	17	2.079583953941	0.102088097642
3	24	3.892133504409	0.912320772943
3	36	7.909682226612	0.628163651352
3	44	8.969074632441	0.405221761487
3	51	9.722208017788	0.703619239139
3	58	10.78937785961	0.353183154025
3	67	15.771686723327	0.614088809028
3	81	18.860819086588	3.001182747327
3	87	18.972407376762	1.044533698615
3	97	20.90891632457	2.75615625072
3	103	22.361482362144	2.400508483094
3	111	24.426930206642	4.648989996766
3	121	26.140361038671	2.933596558875
3	125	26.615092811615	2.076377120153
3	135	29.23146027912	0.94391580105
3	149	31.231892857969	2.379347367916
3	156	31.778533152316	2.540723718123
3	164	32.84798554331	3.554462107662
3	175	36.477023958544	7.085675010625
3	181	37.715605038956	5.44673757146
3	187	38.63629245796	2.661521299469
3	195	40.784160380558	10.718523989443
3	200	41.028467499522	1.367729960151
3	205	41.138271830509	9.763178540886
3	212	41.718266584407	5.954814946848
3	220	44.993355833322	0.573803166943
3	229	49.072789480431	2.029837745509
3	236	51.693953085637	0.112278957944
3	243	55.908235461579	3.368655341839
3	250	57.311761371855	0.077836304579
3	258	60.742947860609	0.118518489847
3	268	62.837962871773	1.486600631896
3	276	64.740616312151	1.222104344253
3	285	74.286440139189	1.008132251663
3	296	75.868898076597	1.445485030528
3	300	77.767638865017	2.146031824331
3	308	82.124168513283	1.576181825718
3	315	83.331502138835	0.463110293546
3	322	84.381819366194	0.625130054333
3	346	90.744152521065	6.219768714521
3	351	90.766119797229	4.74380934563
3	357	91.54423065835	4.007837303091
3	365	93.657604696869	5.674686865612
3	370	93.731870603596	3.407357383448
3	379	94.774341464963	1.122054683592
3	384	94.975549454426	1.221253319315
3	391	96.423007169669	11.306116499632
3	398	97.698939243741	11.011765810456
3	403	98.052954358629	11.355849059646
3	407	99.125166934639	4.385709733201
4	7	0.889627516804	0.13155866397
4	24	3.892133504409	0.912320772943
4	44	8.969074632441	0.405221761487
4	58	10.78937785961	0.353183154025
4	87	18.972407376762	1.044533698615
4	97	20.90891632457	2.75615625072
4	103	22.361482362144	2.400508483094
4	121	26.140361038671	2.933596558875
4	135	29.23146027912	0.94391580105
4	156	31.778533152316	2.540723718123
4	164	32.84798554331	3.554462107662
4	175	36.477023958544	7.085675010625
4	181	37.715605038956	5.44673757146
4	187	38.63629245796	2.661521299469
4	200	41.028467499522	1.367729960151
4	220	44.993355833322	0.573803166943
4	229	49.072789480431	2.029837745509
4	250	57.311761371855	0.077836304579
4	258	60.742947860609	0.118518489847
4	276	64.740616312151	1.222104344253
4	285	74.286440139189	1.008132251663
4	300	77.767638865017	2.146031824331
4	351	90.766119797229	4.74380934563
4	357	91.54423065835	4.007837303091
4	365	93.657604696869	5.674686865612
4	370	93.731870603596	3.407357383448
4	379	94.774341464963	1.122054683592
4	384	94.975549454426	1.221253319315
5	17	2.079583953941	0.102088097642
5	36	7.909682226612	0.628163651352
5	51	9.722208017788	0.703619239139
5	67	15.771686723327	0.614088809028
5	81	18.860819086588	3.001182747327
5	111	24.426930206642	4.648989996766
5	125	26.615092811615	2.076377120153
5	149	31.231892857969	2.379347367916
5	195	40.784160380558	10.718523989443
5	205	41.138271830509	9.763178540886
5	212	41.718266584407	5.954814946848
5	236	51.693953085637	0.112278957944
5	243	55.908235461579	3.368655341839
5	268	62.837962871773	1.486600631896
5	296	75.868898076597	1.445485030528
5	308	82.124168513283	1.576181825718
5	315	83.331502138835	0.463110293546
5	322	84.381819366194	0.625130054333
5	346	90.744152521065	6.219768714521
5	391	96.423007169669	11.306116499632
5	398	97.698939243741	11.011765810456
5	403	98.052954358629	11.355849059646
5	407	99.125166934639	4.385709733201

