version 2
run Second-n2-19-20191125-12:37:20-1400
attr configname Second-n2
attr datetime 20191125-12:37:20
attr experiment Second-n2
attr inifile omnetpp.ini
attr iterationvars ""
attr iterationvarsf ""
attr measurement ""
attr network org.omnetpp.queueing.Pizza
attr processid 1400
attr repetition 19
attr replication ""
attr resultdir results_no_transient
attr runnumber 19
attr seedset 19
param **.PS.maxInventoriedPS 2
param **.U1.interArrivalTime exponential(3s)
param **.U2.interArrivalTime exponential(5s)
param **.PS.serviceTimeForInventoryU1 exponential(1.0s)
param **.PS.serviceTimeForInventoryU2 exponential(1.2s)
param **.PS.serviceTimeDirectU1 exponential(1.4s)
param **.PS.serviceTimeDirectU2 exponential(1.4s)
param **.PS.probabilityProducing 0.7
param **.CS.serviceTimeU1 exponential(1.1s)
param **.CS.serviceTimeU2 exponential(1.4s)

vector 0 Pizza.EntryQueueU1 queueLength:vector ETV
attr interpolationmode sample-hold
attr title "queue length, vector"
vector 1 Pizza.CS queueLength:vector ETV
attr interpolationmode sample-hold
attr title "queue length, vector"
vector 2 Pizza.EntryQueueU2 queueLength:vector ETV
attr interpolationmode sample-hold
attr title "queue length, vector"
vector 3 Pizza.sink lifeTime:vector ETV
attr interpolationmode none
attr title "lifetime of arrived jobs, vector"
attr unit s
vector 4 Pizza.sink lifeTimeU1:vector ETV
attr interpolationmode none
attr title "lifetime of arrived jobs, vector"
attr unit s
vector 5 Pizza.sink lifeTimeU2:vector ETV
attr interpolationmode none
attr title "lifetime of arrived jobs, vector"
attr unit s
0	0	0	0
0	23	4.604882837312	1
0	24	4.672932224028	0
0	60	12.563449984611	1
0	65	15.487000806111	0
0	87	21.328668103585	1
0	88	21.782178852026	0
0	101	24.840847804411	1
0	102	25.80156931918	0
0	122	27.244581542962	1
0	125	27.389497479928	0
0	169	42.748987610184	1
0	171	43.167804634734	0
0	177	43.711899904875	1
0	179	44.316518718676	2
0	181	44.402809870789	3
0	182	44.958947908472	2
0	189	45.98053434611	1
0	194	47.371797011548	0
0	198	48.312084500405	1
0	202	48.81990230787	0
0	225	53.50618872454	1
0	227	54.485594843699	2
0	229	55.022833299398	3
0	230	55.189162173355	2
0	235	55.751376569234	1
0	240	56.200552348008	0
0	251	61.251821621688	1
0	253	61.418099401767	2
0	259	62.607947801205	3
0	260	62.706599497203	2
0	267	63.730156232407	1
0	273	63.893247268471	2
0	278	66.07866864957	1
0	284	67.756698541324	0
0	311	74.868979378244	1
0	315	78.32393857879	2
0	317	80.323487938334	1
0	323	80.427743118993	2
0	324	80.489891018733	1
0	331	81.054330631141	2
0	333	81.311597794871	1
0	339	82.003632959683	0
0	350	85.232852788486	1
0	352	85.748789395852	0
0	377	91.165768414065	1
0	379	92.249989698797	2
0	387	93.67447757623	3
0	389	93.76389035806	4
0	390	96.018310040242	3
0	395	96.133719230158	2
0	402	96.66999740697	3
0	403	97.190480822531	2
0	409	97.793599527098	3
0	413	99.076933725993	4
0	414	99.656058209173	3
1	0	0	0
2	0	0	0
2	55	11.462753375605	1
2	56	11.943337853947	0
2	64	13.796216187881	1
2	70	16.537627122394	0
2	83	20.539401480276	1
2	93	22.66584927634	0
2	118	26.718027112843	1
2	120	26.770015964641	2
2	124	27.298860578566	3
2	130	27.607443177193	2
2	135	27.99933603406	1
2	141	28.308859276689	2
2	142	28.836958346101	1
2	146	30.530063346138	2
2	148	32.871599813579	3
2	150	33.600543893701	4
2	152	33.659401172539	5
2	155	36.060566822046	4
2	161	39.947578835674	5
2	162	40.119461665761	4
2	188	45.533100514881	5
2	209	50.305494521929	4
2	214	50.586817109362	3
2	219	51.813945902214	2
2	244	56.962514484725	3
2	247	60.608409626757	2
2	257	62.49164304067	3
2	266	63.366534965724	4
2	271	63.834104294878	5
2	291	69.73993898016	4
2	296	69.87815152206	3
2	302	70.709785568685	4
2	303	71.454377740253	3
2	307	71.603640873464	4
2	309	72.510468182475	5
2	344	83.372698868962	4
2	357	85.96960212002	3
2	362	85.99884593436	2
2	370	88.505748105822	3
2	371	88.969577809386	2
2	375	90.46573403553	3
2	383	92.529405356237	4
2	385	92.821187117625	5
3	7	1.216599224106	0.908727748351
3	16	3.047217177555	0.23251364234
3	26	4.672932224028	1.424991998176
3	30	5.548915866213	0.944033028901
3	39	8.766539126161	1.388354103544
3	46	9.925755674338	0.18150275887
3	58	11.943337853947	1.2823821495
3	67	15.487000806111	4.024247430506
3	72	16.537627122394	3.974177137783
3	76	17.192006678142	3.395790490261
3	90	21.782178852026	3.263896717702
3	95	22.66584927634	1.337181172755
3	104	25.80156931918	5.262167838904
3	108	25.860042220129	1.019194415718
3	127	27.389497479928	1.365716377809
3	132	27.607443177193	0.362861634231
3	137	27.99933603406	1.281308921217
3	144	28.836958346101	2.06694238146
3	157	36.060566822046	8.76170624348
3	164	40.119461665761	11.810602389072
3	173	43.167804634734	12.637741288596
3	184	44.958947908472	2.209960298288
3	191	45.98053434611	2.268634441235
3	196	47.371797011548	3.055278292872
3	204	48.81990230787	4.417092437081
3	211	50.305494521929	1.993410021524
3	216	50.586817109362	17.715217295783
3	221	51.813945902214	18.213402008513
3	232	55.189162173355	21.529761000816
3	237	55.751376569234	2.245187844694
3	242	56.200552348008	1.714957504309
3	249	60.608409626757	5.585576327359
3	262	62.706599497203	22.759020661529
3	269	63.730156232407	2.478334610719
3	280	66.07866864957	4.660569247803
3	286	67.756698541324	5.148750740119
3	293	69.73993898016	5.846691711689
3	298	69.87815152206	24.345051007179
3	305	71.454377740253	14.491863255528
3	319	80.323487938334	17.831844897664
3	326	80.489891018733	5.620911640489
3	335	81.311597794871	2.987659216081
3	341	82.003632959683	1.57588984069
3	346	83.372698868962	2.318368237821
3	354	85.748789395852	22.382254430128
3	359	85.96960212002	0.736749331534
3	364	85.99884593436	22.164741639482
3	373	88.969577809386	18.259792240701
3	392	96.018310040242	24.414669166778
3	397	96.133719230158	4.967950816093
3	405	97.190480822531	4.940491123734
3	416	99.656058209173	5.981580632943
4	7	1.216599224106	0.908727748351
4	30	5.548915866213	0.944033028901
4	39	8.766539126161	1.388354103544
4	46	9.925755674338	0.18150275887
4	58	11.943337853947	1.2823821495
4	72	16.537627122394	3.974177137783
4	95	22.66584927634	1.337181172755
4	108	25.860042220129	1.019194415718
4	127	27.389497479928	1.365716377809
4	132	27.607443177193	0.362861634231
4	184	44.958947908472	2.209960298288
4	191	45.98053434611	2.268634441235
4	196	47.371797011548	3.055278292872
4	204	48.81990230787	4.417092437081
4	211	50.305494521929	1.993410021524
4	237	55.751376569234	2.245187844694
4	242	56.200552348008	1.714957504309
4	249	60.608409626757	5.585576327359
4	269	63.730156232407	2.478334610719
4	280	66.07866864957	4.660569247803
4	286	67.756698541324	5.148750740119
4	293	69.73993898016	5.846691711689
4	326	80.489891018733	5.620911640489
4	335	81.311597794871	2.987659216081
4	341	82.003632959683	1.57588984069
4	346	83.372698868962	2.318368237821
4	359	85.96960212002	0.736749331534
4	397	96.133719230158	4.967950816093
4	405	97.190480822531	4.940491123734
4	416	99.656058209173	5.981580632943
5	16	3.047217177555	0.23251364234
5	26	4.672932224028	1.424991998176
5	67	15.487000806111	4.024247430506
5	76	17.192006678142	3.395790490261
5	90	21.782178852026	3.263896717702
5	104	25.80156931918	5.262167838904
5	137	27.99933603406	1.281308921217
5	144	28.836958346101	2.06694238146
5	157	36.060566822046	8.76170624348
5	164	40.119461665761	11.810602389072
5	173	43.167804634734	12.637741288596
5	216	50.586817109362	17.715217295783
5	221	51.813945902214	18.213402008513
5	232	55.189162173355	21.529761000816
5	262	62.706599497203	22.759020661529
5	298	69.87815152206	24.345051007179
5	305	71.454377740253	14.491863255528
5	319	80.323487938334	17.831844897664
5	354	85.748789395852	22.382254430128
5	364	85.99884593436	22.164741639482
5	373	88.969577809386	18.259792240701
5	392	96.018310040242	24.414669166778

