version 2
run Second-n4-17-20191125-12:37:31-7852
attr configname Second-n4
attr datetime 20191125-12:37:31
attr experiment Second-n4
attr inifile omnetpp.ini
attr iterationvars ""
attr iterationvarsf ""
attr measurement ""
attr network org.omnetpp.queueing.Pizza
attr processid 7852
attr repetition 17
attr replication ""
attr resultdir results_no_transient
attr runnumber 17
attr seedset 17
param **.PS.maxInventoriedPS 4
param **.U1.interArrivalTime exponential(3s)
param **.U2.interArrivalTime exponential(5s)
param **.PS.serviceTimeForInventoryU1 exponential(1.0s)
param **.PS.serviceTimeForInventoryU2 exponential(1.2s)
param **.PS.serviceTimeDirectU1 exponential(1.4s)
param **.PS.serviceTimeDirectU2 exponential(1.4s)
param **.PS.probabilityProducing 0.7
param **.CS.serviceTimeU1 exponential(1.1s)
param **.CS.serviceTimeU2 exponential(1.4s)

vector 0 Pizza.EntryQueueU1 queueLength:vector ETV
attr interpolationmode sample-hold
attr title "queue length, vector"
vector 1 Pizza.CS queueLength:vector ETV
attr interpolationmode sample-hold
attr title "queue length, vector"
vector 2 Pizza.EntryQueueU2 queueLength:vector ETV
attr interpolationmode sample-hold
attr title "queue length, vector"
vector 3 Pizza.sink lifeTime:vector ETV
attr interpolationmode none
attr title "lifetime of arrived jobs, vector"
attr unit s
vector 4 Pizza.sink lifeTimeU2:vector ETV
attr interpolationmode none
attr title "lifetime of arrived jobs, vector"
attr unit s
vector 5 Pizza.sink lifeTimeU1:vector ETV
attr interpolationmode none
attr title "lifetime of arrived jobs, vector"
attr unit s
0	0	0	0
0	5	1.047247255701	1
0	7	1.685048182551	2
0	15	5.771218478445	1
0	20	6.258382831417	0
0	33	8.276072354561	1
0	35	8.380819496546	2
0	41	11.480673859992	1
0	48	12.002712507912	0
0	65	14.674626647659	1
0	70	15.14074465576	2
0	71	16.231005887631	1
0	78	16.611341374622	0
0	86	17.327815106055	1
0	89	18.569354875157	0
0	98	19.84574251738	1
0	102	20.205044816132	0
0	117	23.233845233169	1
0	119	23.387908782834	2
0	122	24.343810586348	1
0	127	24.501998984076	0
0	136	27.193720944516	1
0	137	27.317125573	0
0	146	27.983140652254	1
0	149	28.922839795396	0
0	158	29.707910639659	1
0	162	33.312548577777	0
0	209	53.495575384826	1
0	212	55.67143781081	0
0	219	57.037290522097	1
0	221	57.823994688796	2
0	223	58.668587336183	3
0	224	59.184790087316	2
0	229	59.257694035206	1
0	234	59.574686344736	0
0	250	62.96794695626	1
0	251	65.231550857446	0
0	257	65.498636804446	1
0	258	65.731062563971	0
0	277	71.306762882197	1
0	279	71.660902492534	0
0	285	73.399834985887	1
0	288	74.515216443031	2
0	289	74.674351654583	1
0	295	74.896625452788	2
0	298	76.684415011767	3
0	301	78.338315061119	2
0	306	79.110671875372	1
0	314	80.298168078523	0
0	320	83.511872764759	1
0	321	83.761273955974	0
0	327	83.929710733101	1
0	329	84.466130274718	2
0	334	86.236523868973	3
0	338	86.629431636989	4
0	340	88.10139966864	5
0	342	89.169377343034	4
0	353	90.435864646634	5
0	354	91.210644229826	4
0	360	92.170338316901	5
0	361	92.886370533779	4
0	367	93.61717029607	3
0	372	93.963173445012	2
0	377	95.2264242084	1
0	382	97.184469706405	0
0	393	99.581856055088	1
0	395	99.797287907552	0
1	0	0	0
2	0	0	0
2	11	4.78446540537	1
2	26	7.424521447036	2
2	28	7.734136113635	3
2	29	7.751074868082	2
2	47	11.958841836209	3
2	54	12.717033357666	2
2	60	13.622156476591	3
2	61	13.973442147145	2
2	77	16.332743745752	3
2	84	17.303799822271	4
2	94	18.759780896558	3
2	107	21.960500749059	2
2	113	22.822832965993	1
2	133	25.195595557931	2
2	142	27.861527048939	1
2	154	29.076570968568	0
2	170	34.296128140335	1
2	174	36.707683054492	0
2	196	50.064230169322	1
2	197	51.004227575297	0
2	204	51.641575236299	1
2	205	52.579826715496	0
2	300	77.557516317172	1
2	313	80.150619195089	2
2	331	84.524924076629	3
2	336	86.372558289108	4
2	348	89.669715067614	5
2	350	89.858064193048	6
2	387	98.572528046725	5
3	17	5.771218478445	4.768111945177
3	22	6.258382831417	5.211135575716
3	31	7.751074868082	6.066026685531
3	43	11.480673859992	6.696208454622
3	50	12.002712507912	3.726640153351
3	56	12.717033357666	4.33621386112
3	63	13.973442147145	6.548920700109
3	73	16.231005887631	8.496869773996
3	80	16.611341374622	1.936714726963
3	91	18.569354875157	3.428610219397
3	96	18.759780896558	1.431965790503
3	104	20.205044816132	8.246202979923
3	109	21.960500749059	2.114758231679
3	115	22.822832965993	9.200676489402
3	124	24.343810586348	8.011066840596
3	129	24.501998984076	1.268153750907
3	139	27.317125573	3.929216790166
3	144	27.861527048939	0.667806104423
3	151	28.922839795396	11.619039973125
3	156	29.076570968568	1.093430316314
3	164	33.312548577777	8.116953019846
3	176	36.707683054492	6.999772414833
3	181	39.586177073127	5.290048932792
3	189	43.340534839927	1.154335225411
3	199	51.004227575297	1.383278273188
3	207	52.579826715496	2.515596546174
3	214	55.67143781081	4.029862574511
3	226	59.184790087316	5.68921470249
3	231	59.257694035206	2.220403513109
3	236	59.574686344736	1.75069165594
3	242	60.701179067098	2.032591730915
3	253	65.231550857446	3.811826123183
3	260	65.731062563971	2.763115607711
3	264	66.017924904878	0.519288100432
3	281	71.660902492534	0.795298915883
3	291	74.674351654583	3.367588772386
3	303	78.338315061119	4.938480075232
3	308	79.110671875372	4.595455432341
3	316	80.298168078523	5.401542625735
3	323	83.761273955974	7.076858944207
3	344	89.169377343034	5.657504578275
3	356	91.210644229826	7.280933496725
3	363	92.886370533779	8.420240259061
3	369	93.61717029607	7.380646427097
3	374	93.963173445012	7.333741808023
3	379	95.2264242084	7.12502453976
3	384	97.184469706405	6.748605059771
3	389	98.572528046725	6.402189729824
3	397	99.797287907552	22.23977159038
4	17	5.771218478445	4.768111945177
4	43	11.480673859992	6.696208454622
4	63	13.973442147145	6.548920700109
4	73	16.231005887631	8.496869773996
4	104	20.205044816132	8.246202979923
4	115	22.822832965993	9.200676489402
4	124	24.343810586348	8.011066840596
4	151	28.922839795396	11.619039973125
4	164	33.312548577777	8.116953019846
4	181	39.586177073127	5.290048932792
4	207	52.579826715496	2.515596546174
4	214	55.67143781081	4.029862574511
4	253	65.231550857446	3.811826123183
4	397	99.797287907552	22.23977159038
5	22	6.258382831417	5.211135575716
5	31	7.751074868082	6.066026685531
5	50	12.002712507912	3.726640153351
5	56	12.717033357666	4.33621386112
5	80	16.611341374622	1.936714726963
5	91	18.569354875157	3.428610219397
5	96	18.759780896558	1.431965790503
5	109	21.960500749059	2.114758231679
5	129	24.501998984076	1.268153750907
5	139	27.317125573	3.929216790166
5	144	27.861527048939	0.667806104423
5	156	29.076570968568	1.093430316314
5	176	36.707683054492	6.999772414833
5	189	43.340534839927	1.154335225411
5	199	51.004227575297	1.383278273188
5	226	59.184790087316	5.68921470249
5	231	59.257694035206	2.220403513109
5	236	59.574686344736	1.75069165594
5	242	60.701179067098	2.032591730915
5	260	65.731062563971	2.763115607711
5	264	66.017924904878	0.519288100432
5	281	71.660902492534	0.795298915883
5	291	74.674351654583	3.367588772386
5	303	78.338315061119	4.938480075232
5	308	79.110671875372	4.595455432341
5	316	80.298168078523	5.401542625735
5	323	83.761273955974	7.076858944207
5	344	89.169377343034	5.657504578275
5	356	91.210644229826	7.280933496725
5	363	92.886370533779	8.420240259061
5	369	93.61717029607	7.380646427097
5	374	93.963173445012	7.333741808023
5	379	95.2264242084	7.12502453976
5	384	97.184469706405	6.748605059771
5	389	98.572528046725	6.402189729824

