version 2
run Second-n5-0-20191125-12:37:24-2408
attr configname Second-n5
attr datetime 20191125-12:37:24
attr experiment Second-n5
attr inifile omnetpp.ini
attr iterationvars ""
attr iterationvarsf ""
attr measurement ""
attr network org.omnetpp.queueing.Pizza
attr processid 2408
attr repetition 0
attr replication ""
attr resultdir results_no_transient
attr runnumber 0
attr seedset 0
param **.PS.maxInventoriedPS 5
param **.U1.interArrivalTime exponential(3s)
param **.U2.interArrivalTime exponential(5s)
param **.PS.serviceTimeForInventoryU1 exponential(1.0s)
param **.PS.serviceTimeForInventoryU2 exponential(1.2s)
param **.PS.serviceTimeDirectU1 exponential(1.4s)
param **.PS.serviceTimeDirectU2 exponential(1.4s)
param **.PS.probabilityProducing 0.7
param **.CS.serviceTimeU1 exponential(1.1s)
param **.CS.serviceTimeU2 exponential(1.4s)

vector 0 Pizza.EntryQueueU1 queueLength:vector ETV
attr interpolationmode sample-hold
attr title "queue length, vector"
vector 1 Pizza.CS queueLength:vector ETV
attr interpolationmode sample-hold
attr title "queue length, vector"
vector 2 Pizza.EntryQueueU2 queueLength:vector ETV
attr interpolationmode sample-hold
attr title "queue length, vector"
vector 3 Pizza.sink lifeTime:vector ETV
attr interpolationmode none
attr title "lifetime of arrived jobs, vector"
attr unit s
vector 4 Pizza.sink lifeTimeU1:vector ETV
attr interpolationmode none
attr title "lifetime of arrived jobs, vector"
attr unit s
vector 5 Pizza.sink lifeTimeU2:vector ETV
attr interpolationmode none
attr title "lifetime of arrived jobs, vector"
attr unit s
0	0	0	0
0	10	6.155415787839	1
0	12	7.057929870225	0
0	32	9.269893689831	1
0	39	12.746473319963	0
0	45	14.695001482656	1
0	47	14.991454757466	0
0	94	31.16316478135	1
0	95	31.732258088117	0
0	117	39.983255716582	1
0	118	40.961627389819	0
0	141	46.123232732958	1
0	146	52.24740501212	0
0	168	55.702072659119	1
0	174	56.221455027557	2
0	175	56.256385866456	1
0	181	57.913684733056	0
0	238	71.294539582624	1
0	243	72.900739697433	0
0	252	73.802832178535	1
0	254	73.831034430527	2
0	257	75.695074656188	1
0	263	77.081001847308	0
0	269	77.1335721608	1
0	271	77.63892198289	0
0	283	79.782959286678	1
0	284	79.802915271267	0
0	302	83.180861712595	1
0	303	83.822590292282	0
0	325	85.870634324953	1
0	326	85.950983353671	0
0	374	94.836988356924	1
0	376	95.487632408756	0
1	0	0	0
2	0	0	0
2	5	4.49280194242	1
2	17	7.122153006227	0
2	38	12.37833043588	1
2	52	15.672277163055	0
2	143	48.897730981507	1
2	145	49.435906522287	2
2	151	52.440909912088	1
2	156	53.661592107164	0
2	172	56.126423631443	1
2	188	59.108581052022	0
2	233	70.245465732413	1
2	235	70.576952739824	2
2	241	71.798929980233	3
2	256	75.355169666319	4
2	277	79.581237162544	3
2	291	81.141074790047	2
2	296	83.116508963059	1
2	309	84.591807921328	2
2	311	84.943114895303	1
2	317	85.778046047364	0
2	323	85.853907885784	1
2	331	86.506503976201	0
2	367	93.281973892164	1
2	368	93.299494169413	0
3	14	7.057929870225	4.670306356528
3	19	7.122153006227	0.966737218388
3	24	7.799195953155	3.306394010735
3	41	12.746473319963	3.637555720189
3	49	14.991454757466	5.721561067635
3	54	15.672277163055	0.977275680399
3	58	16.877451525934	4.499121090054
3	68	20.063976353953	0.156724624886
3	78	27.867747398409	1.637080308327
3	86	28.586699087919	0.430947891744
3	97	31.732258088117	1.055502775105
3	101	32.389778772617	1.226613991267
3	110	34.525739835087	0.146385716085
3	120	40.961627389819	1.164717544636
3	125	41.449371821302	1.46611610472
3	134	44.243918626524	0.92887057288
3	148	52.24740501212	6.236295584646
3	153	52.440909912088	6.31767717913
3	158	53.661592107164	4.763861125657
3	163	54.540710320552	5.104803798265
3	177	56.256385866456	1.531347277408
3	183	57.913684733056	2.211612073937
3	190	59.108581052022	2.887126024465
3	194	59.250029737455	3.123606106012
3	201	60.121241875041	0.695570256035
3	209	63.042135034772	1.299869895662
3	219	65.928770352464	0.623587246688
3	226	68.600857247763	1.633622937168
3	245	72.900739697433	2.754302961394
3	259	75.695074656188	4.400535073564
3	265	77.081001847308	3.278169668773
3	273	77.63892198289	3.807887552363
3	279	79.581237162544	2.447665001744
3	286	79.802915271267	9.557449538854
3	293	81.141074790047	1.358115503369
3	298	83.116508963059	12.539556223235
3	305	83.822590292282	12.023660312049
3	313	84.943114895303	1.762253182708
3	319	85.778046047364	10.422876381045
3	328	85.950983353671	1.359175432343
3	333	86.506503976201	0.635869651248
3	337	86.908878642699	1.054970756915
3	344	89.796179038626	2.177170486471
3	351	91.006469407636	0.76537940699
3	360	92.743642069975	0.771954386188
3	370	93.299494169413	0.394819937457
3	378	95.487632408756	2.205658516592
3	382	95.6070342171	0.770045860176
3	393	98.889023848156	1.164910323919
4	14	7.057929870225	4.670306356528
4	19	7.122153006227	0.966737218388
4	49	14.991454757466	5.721561067635
4	54	15.672277163055	0.977275680399
4	78	27.867747398409	1.637080308327
4	86	28.586699087919	0.430947891744
4	97	31.732258088117	1.055502775105
4	101	32.389778772617	1.226613991267
4	120	40.961627389819	1.164717544636
4	125	41.449371821302	1.46611610472
4	134	44.243918626524	0.92887057288
4	153	52.440909912088	6.31767717913
4	183	57.913684733056	2.211612073937
4	190	59.108581052022	2.887126024465
4	201	60.121241875041	0.695570256035
4	245	72.900739697433	2.754302961394
4	259	75.695074656188	4.400535073564
4	265	77.081001847308	3.278169668773
4	273	77.63892198289	3.807887552363
4	279	79.581237162544	2.447665001744
4	293	81.141074790047	1.358115503369
4	313	84.943114895303	1.762253182708
4	333	86.506503976201	0.635869651248
4	351	91.006469407636	0.76537940699
4	370	93.299494169413	0.394819937457
4	382	95.6070342171	0.770045860176
4	393	98.889023848156	1.164910323919
5	24	7.799195953155	3.306394010735
5	41	12.746473319963	3.637555720189
5	58	16.877451525934	4.499121090054
5	68	20.063976353953	0.156724624886
5	110	34.525739835087	0.146385716085
5	148	52.24740501212	6.236295584646
5	158	53.661592107164	4.763861125657
5	163	54.540710320552	5.104803798265
5	177	56.256385866456	1.531347277408
5	194	59.250029737455	3.123606106012
5	209	63.042135034772	1.299869895662
5	219	65.928770352464	0.623587246688
5	226	68.600857247763	1.633622937168
5	286	79.802915271267	9.557449538854
5	298	83.116508963059	12.539556223235
5	305	83.822590292282	12.023660312049
5	319	85.778046047364	10.422876381045
5	328	85.950983353671	1.359175432343
5	337	86.908878642699	1.054970756915
5	344	89.796179038626	2.177170486471
5	360	92.743642069975	0.771954386188
5	378	95.487632408756	2.205658516592

