version 2
run Second-n4-10-20191125-12:37:24-11176
attr configname Second-n4
attr datetime 20191125-12:37:24
attr experiment Second-n4
attr inifile omnetpp.ini
attr iterationvars ""
attr iterationvarsf ""
attr measurement ""
attr network org.omnetpp.queueing.Pizza
attr processid 11176
attr repetition 10
attr replication ""
attr resultdir results_no_transient
attr runnumber 10
attr seedset 10
param **.PS.maxInventoriedPS 4
param **.U1.interArrivalTime exponential(3s)
param **.U2.interArrivalTime exponential(5s)
param **.PS.serviceTimeForInventoryU1 exponential(1.0s)
param **.PS.serviceTimeForInventoryU2 exponential(1.2s)
param **.PS.serviceTimeDirectU1 exponential(1.4s)
param **.PS.serviceTimeDirectU2 exponential(1.4s)
param **.PS.probabilityProducing 0.7
param **.CS.serviceTimeU1 exponential(1.1s)
param **.CS.serviceTimeU2 exponential(1.4s)

vector 0 Pizza.EntryQueueU1 queueLength:vector ETV
attr interpolationmode sample-hold
attr title "queue length, vector"
vector 1 Pizza.CS queueLength:vector ETV
attr interpolationmode sample-hold
attr title "queue length, vector"
vector 2 Pizza.EntryQueueU2 queueLength:vector ETV
attr interpolationmode sample-hold
attr title "queue length, vector"
vector 3 Pizza.sink lifeTime:vector ETV
attr interpolationmode none
attr title "lifetime of arrived jobs, vector"
attr unit s
vector 4 Pizza.sink lifeTimeU2:vector ETV
attr interpolationmode none
attr title "lifetime of arrived jobs, vector"
attr unit s
vector 5 Pizza.sink lifeTimeU1:vector ETV
attr interpolationmode none
attr title "lifetime of arrived jobs, vector"
attr unit s
0	0	0	0
0	10	4.426303334927	1
0	13	5.190193022171	2
0	15	5.226442253557	1
0	20	5.328179012215	0
0	36	8.895634259765	1
0	37	9.700915865658	0
0	74	16.097200973202	1
0	76	16.271500263877	2
0	77	17.301544265172	1
0	82	17.314588133619	0
0	90	19.028174727068	1
0	92	19.312621489344	2
0	95	19.946937401349	1
0	100	20.034903854953	0
0	109	20.53878110479	1
0	116	22.74154313292	0
0	125	23.491583776133	1
0	129	26.222377743803	2
0	131	28.131508195521	1
0	139	30.425465038315	0
0	161	38.449688096728	1
0	165	40.277786148753	2
0	168	42.914702959203	1
0	175	43.471425007685	0
0	188	45.52600486234	1
0	190	45.775473738494	2
0	191	46.347231036997	1
0	198	46.868989963472	2
0	200	46.991328483083	3
0	202	47.533808257658	2
0	208	47.672205760053	3
0	209	47.814009210164	2
0	216	48.776190163664	1
0	224	50.708060629717	2
0	225	51.091169537096	1
0	231	52.093156161519	0
0	258	55.864207968378	1
0	262	57.285956994071	2
0	263	58.193416163337	1
0	270	58.325273729601	2
0	271	58.733630341261	1
0	276	59.466901081983	0
0	282	59.570492370145	1
0	284	60.106222488434	0
0	293	60.817208201558	1
0	295	61.028788720942	2
0	298	61.055603143055	1
0	303	61.187088602767	0
0	315	62.262898066579	1
0	316	62.379328810217	0
0	339	64.74767368547	1
0	342	66.111789286681	2
0	348	66.852443840044	3
0	349	67.29940716435	2
0	355	67.902998310381	3
0	357	68.719734671116	4
0	358	68.800837907701	3
0	365	70.623154396633	4
0	367	71.233305189356	5
0	370	72.403738115625	4
0	379	74.788041782955	5
0	381	75.559590944037	6
0	382	75.691807210154	5
0	388	78.50124607868	4
0	397	79.421330282028	3
0	404	79.889605274901	2
0	409	80.092387112663	1
0	416	82.40051728963	0
0	423	82.610657467486	1
0	424	82.91411637426	0
0	445	86.162090411266	1
0	446	88.148549255581	0
0	489	95.969962106297	1
0	492	98.274387860263	0
1	0	0	0
2	0	0	0
2	5	1.879385144195	1
2	26	6.594761506651	0
2	32	6.900191601093	1
2	44	11.130783904602	0
2	94	19.429078959525	1
2	105	20.087738600984	0
2	113	21.217456590567	1
2	121	23.149359414262	0
2	138	29.771682317277	1
2	147	31.527054878251	2
2	148	32.318520920149	1
2	154	33.950525495126	2
2	155	36.360418887332	1
2	159	36.817167235913	2
2	163	39.019393927641	3
2	174	43.442517628294	4
2	180	43.984072748164	3
2	237	52.486868653854	2
2	242	52.541776042743	1
2	247	53.107561036069	0
2	290	60.562058388549	1
2	297	61.049329330599	2
2	309	62.157225231777	1
2	322	63.322040226892	0
2	337	64.744192168622	1
2	344	66.172392801749	2
2	346	66.186994529724	3
2	377	73.168640620214	4
2	395	79.121848743345	5
2	403	79.860714678472	6
2	431	83.501615935672	5
2	437	84.115909472093	6
2	439	85.894854871202	5
2	453	89.127558534575	4
2	458	89.776414535434	3
2	463	91.33676707382	2
2	469	92.536236324413	1
2	475	93.121297157219	2
2	477	93.522226759102	3
2	478	94.448578717289	2
2	483	95.466290715841	1
2	491	97.596489577377	2
2	497	99.220219058134	1
3	17	5.226442253557	3.451908580821
3	22	5.328179012215	0.901875677288
3	28	6.594761506651	1.40456848448
3	39	9.700915865658	7.821530721463
3	46	11.130783904602	2.235149644837
3	50	11.345473050373	4.44528144928
3	60	14.657487481245	1.924090074069
3	67	15.740178164769	0.466877681883
3	79	17.301544265172	1.471340619254
3	84	17.314588133619	1.217387160417
3	97	19.946937401349	3.675437137472
3	102	20.034903854953	1.006729127885
3	107	20.087738600984	0.77511711164
3	118	22.74154313292	3.312464173395
3	123	23.149359414262	2.610578309472
3	133	28.131508195521	6.914051604954
3	141	30.425465038315	6.933881262182
3	150	32.318520920149	6.096143176346
3	157	36.360418887332	6.588736570055
3	170	42.914702959203	11.387648080952
3	177	43.471425007685	5.021736910957
3	182	43.984072748164	3.706286599411
3	193	46.347231036997	12.396705541871
3	204	47.533808257658	2.007803395318
3	211	47.814009210164	2.03853547167
3	218	48.776190163664	1.907200200192
3	227	51.091169537096	4.099841054013
3	233	52.093156161519	4.420950401466
3	239	52.486868653854	1.778808024137
3	244	52.541776042743	15.72460880683
3	249	53.107561036069	14.088167108428
3	253	54.637289979081	11.194772350787
3	265	58.193416163337	3.094341901174
3	273	58.733630341261	2.869422372883
3	278	59.466901081983	2.180944087912
3	286	60.106222488434	1.780948758833
3	300	61.055603143055	1.48511077291
3	305	61.187088602767	0.369880401209
3	311	62.157225231777	1.128436510835
3	318	62.379328810217	1.817270421668
3	324	63.322040226892	1.059142160313
3	329	63.644708338002	2.595379007403
3	351	67.29940716435	3.127018243924
3	360	68.800837907701	4.053164222231
3	372	72.403738115625	6.291948828944
3	384	75.691807210154	8.83936337011
3	390	78.50124607868	10.598247768299
3	399	79.421330282028	10.701595610912
3	406	79.889605274901	9.266450878268
3	411	80.092387112663	8.859081923307
3	418	82.40051728963	7.612475506675
3	426	82.91411637426	7.354525430223
3	433	83.501615935672	0.890958468186
3	441	85.894854871202	21.15066270258
3	448	88.148549255581	21.976156453832
3	455	89.127558534575	2.965468123309
3	460	89.776414535434	23.58942000571
3	465	91.33676707382	18.168126453606
3	471	92.536236324413	13.414387581068
3	480	94.448578717289	14.587864038817
3	485	95.466290715841	11.350381243748
3	494	98.274387860263	5.153090703044
3	499	99.220219058134	3.250256951837
4	17	5.226442253557	3.451908580821
4	39	9.700915865658	7.821530721463
4	50	11.345473050373	4.44528144928
4	67	15.740178164769	0.466877681883
4	79	17.301544265172	1.471340619254
4	118	22.74154313292	3.312464173395
4	133	28.131508195521	6.914051604954
4	157	36.360418887332	6.588736570055
4	170	42.914702959203	11.387648080952
4	193	46.347231036997	12.396705541871
4	244	52.541776042743	15.72460880683
4	249	53.107561036069	14.088167108428
4	253	54.637289979081	11.194772350787
4	265	58.193416163337	3.094341901174
4	318	62.379328810217	1.817270421668
4	329	63.644708338002	2.595379007403
4	351	67.29940716435	3.127018243924
4	441	85.894854871202	21.15066270258
4	448	88.148549255581	21.976156453832
4	460	89.776414535434	23.58942000571
4	465	91.33676707382	18.168126453606
4	471	92.536236324413	13.414387581068
4	480	94.448578717289	14.587864038817
4	485	95.466290715841	11.350381243748
4	494	98.274387860263	5.153090703044
5	22	5.328179012215	0.901875677288
5	28	6.594761506651	1.40456848448
5	46	11.130783904602	2.235149644837
5	60	14.657487481245	1.924090074069
5	84	17.314588133619	1.217387160417
5	97	19.946937401349	3.675437137472
5	102	20.034903854953	1.006729127885
5	107	20.087738600984	0.77511711164
5	123	23.149359414262	2.610578309472
5	141	30.425465038315	6.933881262182
5	150	32.318520920149	6.096143176346
5	177	43.471425007685	5.021736910957
5	182	43.984072748164	3.706286599411
5	204	47.533808257658	2.007803395318
5	211	47.814009210164	2.03853547167
5	218	48.776190163664	1.907200200192
5	227	51.091169537096	4.099841054013
5	233	52.093156161519	4.420950401466
5	239	52.486868653854	1.778808024137
5	273	58.733630341261	2.869422372883
5	278	59.466901081983	2.180944087912
5	286	60.106222488434	1.780948758833
5	300	61.055603143055	1.48511077291
5	305	61.187088602767	0.369880401209
5	311	62.157225231777	1.128436510835
5	324	63.322040226892	1.059142160313
5	360	68.800837907701	4.053164222231
5	372	72.403738115625	6.291948828944
5	384	75.691807210154	8.83936337011
5	390	78.50124607868	10.598247768299
5	399	79.421330282028	10.701595610912
5	406	79.889605274901	9.266450878268
5	411	80.092387112663	8.859081923307
5	418	82.40051728963	7.612475506675
5	426	82.91411637426	7.354525430223
5	433	83.501615935672	0.890958468186
5	455	89.127558534575	2.965468123309
5	499	99.220219058134	3.250256951837

