version 2
run Second-n2-11-20191125-12:37:07-9976
attr configname Second-n2
attr datetime 20191125-12:37:07
attr experiment Second-n2
attr inifile omnetpp.ini
attr iterationvars ""
attr iterationvarsf ""
attr measurement ""
attr network org.omnetpp.queueing.Pizza
attr processid 9976
attr repetition 11
attr replication ""
attr resultdir results_no_transient
attr runnumber 11
attr seedset 11
param **.PS.maxInventoriedPS 2
param **.U1.interArrivalTime exponential(3s)
param **.U2.interArrivalTime exponential(5s)
param **.PS.serviceTimeForInventoryU1 exponential(1.0s)
param **.PS.serviceTimeForInventoryU2 exponential(1.2s)
param **.PS.serviceTimeDirectU1 exponential(1.4s)
param **.PS.serviceTimeDirectU2 exponential(1.4s)
param **.PS.probabilityProducing 0.7
param **.CS.serviceTimeU1 exponential(1.1s)
param **.CS.serviceTimeU2 exponential(1.4s)

vector 0 Pizza.EntryQueueU1 queueLength:vector ETV
attr interpolationmode sample-hold
attr title "queue length, vector"
vector 1 Pizza.CS queueLength:vector ETV
attr interpolationmode sample-hold
attr title "queue length, vector"
vector 2 Pizza.EntryQueueU2 queueLength:vector ETV
attr interpolationmode sample-hold
attr title "queue length, vector"
vector 3 Pizza.sink lifeTime:vector ETV
attr interpolationmode none
attr title "lifetime of arrived jobs, vector"
attr unit s
vector 4 Pizza.sink lifeTimeU2:vector ETV
attr interpolationmode none
attr title "lifetime of arrived jobs, vector"
attr unit s
vector 5 Pizza.sink lifeTimeU1:vector ETV
attr interpolationmode none
attr title "lifetime of arrived jobs, vector"
attr unit s
0	0	0	0
0	7	0.596339664521	1
0	9	1.243784658675	2
0	12	2.039243283073	1
0	22	5.116016474486	2
0	23	5.462739358186	1
0	28	6.838763914095	0
0	40	10.823320433569	1
0	42	11.947619935396	0
0	50	14.172215927425	1
0	52	14.248628681593	2
0	53	16.86716226237	1
0	58	17.449260457252	0
0	73	18.517249638145	1
0	78	19.152757600665	0
0	88	20.497003386102	1
0	90	22.249733674647	2
0	93	22.455208870194	1
0	99	25.730942285741	0
0	105	26.045674233451	1
0	106	26.184770795924	0
0	119	28.037364658141	1
0	123	28.255150287456	2
0	125	28.368077484422	3
0	127	28.587024008007	4
0	129	28.605077270161	5
0	130	28.780093455872	4
0	138	29.633662477056	5
0	139	30.025015841967	4
0	145	30.932650634409	3
0	150	31.208860504524	2
0	155	33.088383215382	1
0	160	34.644544874364	0
0	189	42.967103358692	1
0	190	43.582549007676	0
0	206	46.123268001958	1
0	208	47.087083111056	2
0	210	48.308120718973	3
0	212	48.61144071774	4
0	217	49.502559969151	3
0	222	49.588320035912	2
0	228	49.753651043075	1
0	234	50.826227925468	0
0	244	51.448846453006	1
0	248	54.145472612643	0
0	280	62.914306091769	1
0	281	63.756558442807	0
0	304	67.722057704553	1
0	305	67.778356688855	0
0	326	72.638502675685	1
0	328	74.535355959086	0
0	337	75.597015691095	1
0	338	75.850239944231	0
0	356	81.301242271452	1
0	362	82.587252194497	0
0	374	86.832939290605	1
0	376	88.51648720081	2
0	378	88.924112200172	3
0	382	89.698980558098	2
0	387	90.016159100473	1
0	392	90.315648428807	0
0	407	98.079292152676	1
0	411	98.855747628376	2
1	0	0	0
2	0	0	0
2	5	0.452095681263	1
2	19	3.562916738516	2
2	34	9.306517670869	1
2	66	17.782837840152	2
2	67	17.871547784588	1
2	75	18.625788452996	2
2	77	18.912205911407	3
2	84	19.717743639646	2
2	112	26.558625190051	3
2	115	27.935721760466	2
2	136	29.098017384293	3
2	165	35.576951051024	2
2	174	39.802347617616	1
2	180	40.888522965379	2
2	182	41.751783761118	3
2	183	42.102299809142	2
2	196	44.713153913706	1
2	202	45.181798110262	0
2	214	48.981816679206	1
2	240	51.380268704943	0
2	296	67.201389093152	1
2	297	67.277052055885	0
2	335	75.447297109506	1
2	343	76.655334458131	0
2	354	78.132320992281	1
2	360	81.5375544491	2
2	369	85.607782305531	3
2	370	86.48842354801	2
2	399	94.143647558234	1
2	403	97.75842614244	2
2	409	98.622903813678	3
2	413	99.044342307236	4
3	14	2.039243283073	1.685484509349
3	25	5.462739358186	4.866399693665
3	30	6.838763914095	5.59497925542
3	36	9.306517670869	4.190501196383
3	44	11.947619935396	11.495524254133
3	55	16.86716226237	6.043841828801
3	60	17.449260457252	3.277044529827
3	69	17.871547784588	3.622919102995
3	80	19.152757600665	15.589840862149
3	86	19.717743639646	1.200494001501
3	95	22.455208870194	4.672371030042
3	101	25.730942285741	5.233938899639
3	108	26.184770795924	3.935037121277
3	117	27.935721760466	1.890047527015
3	132	28.780093455872	10.154305002876
3	141	30.025015841967	1.987651183826
3	147	30.932650634409	2.677500346953
3	152	31.208860504524	2.840783020102
3	157	33.088383215382	4.501359207375
3	162	34.644544874364	6.039467604203
3	167	35.576951051024	5.943288573968
3	176	39.802347617616	20.890141706209
3	185	42.102299809142	15.543674619091
3	192	43.582549007676	14.484531623383
3	198	44.713153913706	1.746050555014
3	204	45.181798110262	4.293275144883
3	219	49.502559969151	7.750776208033
3	224	49.588320035912	3.465052033954
3	230	49.753651043075	2.666567932019
3	236	50.826227925468	2.518107206495
3	242	51.380268704943	2.768827987203
3	250	54.145472612643	5.163655933437
3	255	56.319989696488	4.871143243482
3	264	60.786597790677	1.60537737005
3	272	62.347027868265	0.992707778983
3	283	63.756558442807	1.182468107392
3	287	64.027053781544	1.112747689775
3	299	67.277052055885	0.634310773605
3	307	67.778356688855	0.576967595703
3	311	67.948848753235	0.226791048682
3	318	68.614841678865	0.624011410185
3	330	74.535355959086	2.838124735209
3	340	75.850239944231	3.211737268546
3	345	76.655334458131	1.058318767036
3	349	76.922577537928	1.475280428422
3	364	82.587252194497	5.147108780721
3	372	86.48842354801	5.187181276558
3	384	89.698980558098	11.566659565817
3	389	90.016159100473	3.183219809868
3	394	90.315648428807	1.799161227997
3	401	94.143647558234	5.219535358062
4	14	2.039243283073	1.685484509349
4	44	11.947619935396	11.495524254133
4	80	19.152757600665	15.589840862149
4	95	22.455208870194	4.672371030042
4	132	28.780093455872	10.154305002876
4	176	39.802347617616	20.890141706209
4	185	42.102299809142	15.543674619091
4	192	43.582549007676	14.484531623383
4	204	45.181798110262	4.293275144883
4	219	49.502559969151	7.750776208033
4	250	54.145472612643	5.163655933437
4	307	67.778356688855	0.576967595703
4	349	76.922577537928	1.475280428422
4	384	89.698980558098	11.566659565817
5	25	5.462739358186	4.866399693665
5	30	6.838763914095	5.59497925542
5	36	9.306517670869	4.190501196383
5	55	16.86716226237	6.043841828801
5	60	17.449260457252	3.277044529827
5	69	17.871547784588	3.622919102995
5	86	19.717743639646	1.200494001501
5	101	25.730942285741	5.233938899639
5	108	26.184770795924	3.935037121277
5	117	27.935721760466	1.890047527015
5	141	30.025015841967	1.987651183826
5	147	30.932650634409	2.677500346953
5	152	31.208860504524	2.840783020102
5	157	33.088383215382	4.501359207375
5	162	34.644544874364	6.039467604203
5	167	35.576951051024	5.943288573968
5	198	44.713153913706	1.746050555014
5	224	49.588320035912	3.465052033954
5	230	49.753651043075	2.666567932019
5	236	50.826227925468	2.518107206495
5	242	51.380268704943	2.768827987203
5	255	56.319989696488	4.871143243482
5	264	60.786597790677	1.60537737005
5	272	62.347027868265	0.992707778983
5	283	63.756558442807	1.182468107392
5	287	64.027053781544	1.112747689775
5	299	67.277052055885	0.634310773605
5	311	67.948848753235	0.226791048682
5	318	68.614841678865	0.624011410185
5	330	74.535355959086	2.838124735209
5	340	75.850239944231	3.211737268546
5	345	76.655334458131	1.058318767036
5	364	82.587252194497	5.147108780721
5	372	86.48842354801	5.187181276558
5	389	90.016159100473	3.183219809868
5	394	90.315648428807	1.799161227997
5	401	94.143647558234	5.219535358062

