version 2
run Third-n3-2-20191125-12:37:42-11224
attr configname Third-n3
attr datetime 20191125-12:37:42
attr experiment Third-n3
attr inifile omnetpp.ini
attr iterationvars ""
attr iterationvarsf ""
attr measurement ""
attr network org.omnetpp.queueing.Pizza
attr processid 11224
attr repetition 2
attr replication ""
attr resultdir results_no_transient
attr runnumber 2
attr seedset 2
param **.PS.maxInventoriedPS 3
param **.U1.interArrivalTime exponential(4s)
param **.U2.interArrivalTime exponential(6s)
param **.PS.serviceTimeForInventoryU1 exponential(1.4s)
param **.PS.serviceTimeForInventoryU2 exponential(1.4s)
param **.PS.serviceTimeDirectU1 exponential(1.8s)
param **.PS.serviceTimeDirectU2 exponential(1.8s)
param **.PS.probabilityProducing 0.8
param **.CS.serviceTimeU1 exponential(2.3s)
param **.CS.serviceTimeU2 exponential(2.3s)

vector 0 Pizza.EntryQueueU1 queueLength:vector ETV
attr interpolationmode sample-hold
attr title "queue length, vector"
vector 1 Pizza.CS queueLength:vector ETV
attr interpolationmode sample-hold
attr title "queue length, vector"
vector 2 Pizza.EntryQueueU2 queueLength:vector ETV
attr interpolationmode sample-hold
attr title "queue length, vector"
vector 3 Pizza.sink lifeTime:vector ETV
attr interpolationmode none
attr title "lifetime of arrived jobs, vector"
attr unit s
vector 4 Pizza.sink lifeTimeU2:vector ETV
attr interpolationmode none
attr title "lifetime of arrived jobs, vector"
attr unit s
vector 5 Pizza.sink lifeTimeU1:vector ETV
attr interpolationmode none
attr title "lifetime of arrived jobs, vector"
attr unit s
0	0	0	0
0	7	2.290767958509	1
0	14	7.309071664081	0
0	34	14.096145449219	1
0	35	14.435605529208	0
0	42	17.631410370912	1
0	43	17.974563302566	0
0	100	35.289451942936	1
0	105	37.893051093051	0
0	111	38.104155330287	1
0	113	38.613147679828	2
0	115	39.32152196151	3
0	116	39.888325305117	2
0	122	39.964849400354	3
0	125	42.814380453754	4
0	134	47.569549188767	3
0	140	48.573391970604	2
0	151	51.626065673282	3
0	154	55.642500999471	2
0	159	56.216907286752	1
0	164	56.869935829383	0
0	171	58.549881591082	1
0	172	61.911471691419	0
0	204	69.883879725613	1
0	211	73.970806723463	0
0	246	86.218315371016	1
0	247	88.260223467494	0
0	253	88.967562690001	1
0	257	90.696063508186	2
0	258	92.287103015652	1
0	266	93.392874203475	0
1	0	0	0
2	0	0	0
2	5	1.385616726738	1
2	11	6.17216427014	2
2	21	8.128289683113	1
2	25	8.490874284271	2
2	28	12.517871424763	1
2	49	18.720844848996	2
2	51	19.177647590589	1
2	56	20.137617335668	0
2	85	29.967577169314	1
2	86	30.444329633176	0
2	90	31.069840158798	1
2	95	33.818018916651	2
2	96	33.932009830815	1
2	104	37.777103824593	2
2	128	43.473547725706	3
2	131	45.746172610188	4
2	133	47.542540362818	5
2	149	50.8894773649	6
2	153	53.62695652605	7
2	177	63.519608463639	6
2	183	65.043793329816	7
2	185	65.637549382817	6
2	190	66.435091573296	5
2	195	67.331857499388	4
2	200	67.43939434328	3
2	208	72.399917874257	4
2	217	75.122566726316	3
2	224	76.219122388207	2
2	228	76.606999299203	3
2	230	78.043652549321	4
2	234	79.926895568292	5
2	235	81.102906811578	4
2	240	83.645702982247	3
2	265	92.564087475213	4
2	273	96.477030963791	3
2	278	97.717065063576	2
2	284	99.781787533511	1
3	16	7.309071664081	6.081064358423
3	23	8.128289683113	5.837521724604
3	30	12.517871424763	11.132254698025
3	37	14.435605529208	8.263441259068
3	45	17.974563302566	3.878417853347
3	53	19.177647590589	1.546237219677
3	58	20.137617335668	11.646743051397
3	62	21.544454132548	2.823609283552
3	70	25.640134957934	0.312806862341
3	78	26.39827471257	0.576878892596
3	88	30.444329633176	0.990186106644
3	98	33.932009830815	3.964432661501
3	107	37.893051093051	6.823210934253
3	118	39.888325305117	4.598873362181
3	136	47.569549188767	9.46539385848
3	142	48.573391970604	9.960244290776
3	156	55.642500999471	16.320979037961
3	161	56.216907286752	16.252057886398
3	166	56.869935829383	14.055555375629
3	174	61.911471691419	10.285406018137
3	179	63.519608463639	4.969726872557
3	187	65.637549382817	31.819530466166
3	192	66.435091573296	28.657987748703
3	197	67.331857499388	23.858309773682
3	202	67.43939434328	21.693221733092
3	213	73.970806723463	26.428266360645
3	219	75.122566726316	5.238687000703
3	226	76.219122388207	25.329645023307
3	237	81.102906811578	27.475950285528
3	242	83.645702982247	18.601909652431
3	249	88.260223467494	15.860305593237
3	260	92.287103015652	6.068787644636
3	268	93.392874203475	4.425311513474
3	275	96.477030963791	5.780967455605
3	280	97.717065063576	21.110065764373
3	286	99.781787533511	21.73813498419
4	16	7.309071664081	6.081064358423
4	30	12.517871424763	11.132254698025
4	37	14.435605529208	8.263441259068
4	58	20.137617335668	11.646743051397
4	62	21.544454132548	2.823609283552
4	98	33.932009830815	3.964432661501
4	107	37.893051093051	6.823210934253
4	187	65.637549382817	31.819530466166
4	192	66.435091573296	28.657987748703
4	197	67.331857499388	23.858309773682
4	202	67.43939434328	21.693221733092
4	213	73.970806723463	26.428266360645
4	226	76.219122388207	25.329645023307
4	237	81.102906811578	27.475950285528
4	242	83.645702982247	18.601909652431
4	249	88.260223467494	15.860305593237
4	280	97.717065063576	21.110065764373
4	286	99.781787533511	21.73813498419
5	23	8.128289683113	5.837521724604
5	45	17.974563302566	3.878417853347
5	53	19.177647590589	1.546237219677
5	70	25.640134957934	0.312806862341
5	78	26.39827471257	0.576878892596
5	88	30.444329633176	0.990186106644
5	118	39.888325305117	4.598873362181
5	136	47.569549188767	9.46539385848
5	142	48.573391970604	9.960244290776
5	156	55.642500999471	16.320979037961
5	161	56.216907286752	16.252057886398
5	166	56.869935829383	14.055555375629
5	174	61.911471691419	10.285406018137
5	179	63.519608463639	4.969726872557
5	219	75.122566726316	5.238687000703
5	260	92.287103015652	6.068787644636
5	268	93.392874203475	4.425311513474
5	275	96.477030963791	5.780967455605

