version 2
run Third-n5-10-20191125-12:38:03-10480
attr configname Third-n5
attr datetime 20191125-12:38:03
attr experiment Third-n5
attr inifile omnetpp.ini
attr iterationvars ""
attr iterationvarsf ""
attr measurement ""
attr network org.omnetpp.queueing.Pizza
attr processid 10480
attr repetition 10
attr replication ""
attr resultdir results_no_transient
attr runnumber 10
attr seedset 10
param **.PS.maxInventoriedPS 5
param **.U1.interArrivalTime exponential(4s)
param **.U2.interArrivalTime exponential(6s)
param **.PS.serviceTimeForInventoryU1 exponential(1.4s)
param **.PS.serviceTimeForInventoryU2 exponential(1.4s)
param **.PS.serviceTimeDirectU1 exponential(1.8s)
param **.PS.serviceTimeDirectU2 exponential(1.8s)
param **.PS.probabilityProducing 0.8
param **.CS.serviceTimeU1 exponential(2.3s)
param **.CS.serviceTimeU2 exponential(2.3s)

vector 0 Pizza.EntryQueueU1 queueLength:vector ETV
attr interpolationmode sample-hold
attr title "queue length, vector"
vector 1 Pizza.CS queueLength:vector ETV
attr interpolationmode sample-hold
attr title "queue length, vector"
vector 2 Pizza.EntryQueueU2 queueLength:vector ETV
attr interpolationmode sample-hold
attr title "queue length, vector"
vector 3 Pizza.sink lifeTime:vector ETV
attr interpolationmode none
attr title "lifetime of arrived jobs, vector"
attr unit s
vector 4 Pizza.sink lifeTimeU2:vector ETV
attr interpolationmode none
attr title "lifetime of arrived jobs, vector"
attr unit s
vector 5 Pizza.sink lifeTimeU1:vector ETV
attr interpolationmode none
attr title "lifetime of arrived jobs, vector"
attr unit s
0	0	0	0
0	10	5.901737779903	1
0	14	6.920257362895	2
0	15	7.459240497746	1
0	20	7.671962811305	0
0	26	8.154878635698	1
0	31	10.320271663308	0
0	58	20.418926283357	1
0	60	20.864448813783	2
0	64	21.376227615608	1
0	69	21.509857071792	0
0	77	24.711348276587	1
0	78	25.272429376754	0
0	119	34.28352743197	1
0	121	35.052827642489	0
0	129	39.903767880902	1
0	130	40.006148096423	0
0	136	40.625138250402	1
0	138	40.813619474471	0
0	144	41.017620417392	1
0	147	42.956396910892	2
0	148	43.28837180251	1
0	154	44.689913642396	0
0	193	54.738073636765	1
0	195	55.685091231022	0
0	202	56.250992415467	1
0	204	56.427206901525	2
0	205	56.663002645572	1
0	211	57.486409334019	2
0	216	59.976637442885	1
0	222	60.45417014233	2
0	224	61.032252926994	3
0	225	61.633671955271	2
0	231	62.399310347046	1
0	238	63.229747503124	0
0	244	64.675840652168	1
0	246	65.146971120434	0
0	258	66.571506019758	1
0	264	74.361116371171	0
0	282	79.144105770527	1
0	283	81.181953231951	0
1	0	0	0
2	0	0	0
2	5	2.255262173034	1
2	28	8.280229921312	2
2	38	12.500917117299	1
2	43	14.291342211524	0
2	63	21.260918471594	1
2	84	25.579568847922	2
2	87	26.148462372474	3
2	88	27.15884729836	2
2	93	27.437194861116	1
2	98	27.691612617806	0
2	102	28.294515529725	1
2	105	30.559508799549	0
2	168	45.863306823266	1
2	170	46.321610124524	0
2	213	57.688082508612	1
2	251	65.4954041713	0
2	261	70.315242727333	1
2	263	74.31490131309	2
2	270	75.316931841921	1
2	276	76.757454821946	0
3	17	7.459240497746	5.329800090463
3	22	7.671962811305	1.770225031402
3	33	10.320271663308	3.400014300413
3	40	12.500917117299	4.346038481601
3	45	14.291342211524	12.03608003849
3	50	17.77604041359	9.495810492278
3	66	21.376227615608	2.919423309596
3	71	21.509857071792	1.090930788435
3	80	25.272429376754	4.407980562971
3	90	27.15884729836	2.447499021773
3	95	27.437194861116	6.176276389522
3	100	27.691612617806	2.112043769884
3	107	30.559508799549	4.411046427075
3	112	33.438116570042	5.143601040317
3	123	35.052827642489	0.852706770078
3	132	40.006148096423	5.722620664453
3	140	40.813619474471	0.909851593569
3	150	43.28837180251	2.663233552108
3	156	44.689913642396	3.672293225004
3	161	45.121906491888	2.165509580996
3	172	46.321610124524	1.071899821002
3	176	46.633921315169	0.770614491903
3	186	51.772470585302	0.556627462115
3	197	55.685091231022	1.110135620405
3	207	56.663002645572	1.924929008807
3	218	59.976637442885	3.725645027418
3	227	61.633671955271	5.206465053746
3	233	62.399310347046	4.912901013027
3	240	63.229747503124	2.775577360794
3	248	65.146971120434	4.11471819344
3	253	65.4954041713	0.819563519132
3	266	74.361116371171	16.673033862559
3	272	75.316931841921	8.745425822163
3	278	76.757454821946	6.442212094613
3	285	81.181953231951	6.867051918861
3	290	82.618560643271	3.474454872744
3	298	88.66546588693	1.805702462378
3	305	93.944995407299	0.993124516708
3	313	97.789029601441	0.819464978937
4	17	7.459240497746	5.329800090463
4	45	14.291342211524	12.03608003849
4	50	17.77604041359	9.495810492278
4	66	21.376227615608	2.919423309596
4	95	27.437194861116	6.176276389522
4	100	27.691612617806	2.112043769884
4	107	30.559508799549	4.411046427075
4	112	33.438116570042	5.143601040317
4	123	35.052827642489	0.852706770078
4	176	46.633921315169	0.770614491903
4	186	51.772470585302	0.556627462115
4	266	74.361116371171	16.673033862559
4	278	76.757454821946	6.442212094613
4	285	81.181953231951	6.867051918861
4	313	97.789029601441	0.819464978937
5	22	7.671962811305	1.770225031402
5	33	10.320271663308	3.400014300413
5	40	12.500917117299	4.346038481601
5	71	21.509857071792	1.090930788435
5	80	25.272429376754	4.407980562971
5	90	27.15884729836	2.447499021773
5	132	40.006148096423	5.722620664453
5	140	40.813619474471	0.909851593569
5	150	43.28837180251	2.663233552108
5	156	44.689913642396	3.672293225004
5	161	45.121906491888	2.165509580996
5	172	46.321610124524	1.071899821002
5	197	55.685091231022	1.110135620405
5	207	56.663002645572	1.924929008807
5	218	59.976637442885	3.725645027418
5	227	61.633671955271	5.206465053746
5	233	62.399310347046	4.912901013027
5	240	63.229747503124	2.775577360794
5	248	65.146971120434	4.11471819344
5	253	65.4954041713	0.819563519132
5	272	75.316931841921	8.745425822163
5	290	82.618560643271	3.474454872744
5	298	88.66546588693	1.805702462378
5	305	93.944995407299	0.993124516708

