version 2
run Third-n3-5-20191125-12:37:45-1260
attr configname Third-n3
attr datetime 20191125-12:37:45
attr experiment Third-n3
attr inifile omnetpp.ini
attr iterationvars ""
attr iterationvarsf ""
attr measurement ""
attr network org.omnetpp.queueing.Pizza
attr processid 1260
attr repetition 5
attr replication ""
attr resultdir results_no_transient
attr runnumber 5
attr seedset 5
param **.PS.maxInventoriedPS 3
param **.U1.interArrivalTime exponential(4s)
param **.U2.interArrivalTime exponential(6s)
param **.PS.serviceTimeForInventoryU1 exponential(1.4s)
param **.PS.serviceTimeForInventoryU2 exponential(1.4s)
param **.PS.serviceTimeDirectU1 exponential(1.8s)
param **.PS.serviceTimeDirectU2 exponential(1.8s)
param **.PS.probabilityProducing 0.8
param **.CS.serviceTimeU1 exponential(2.3s)
param **.CS.serviceTimeU2 exponential(2.3s)

vector 0 Pizza.EntryQueueU1 queueLength:vector ETV
attr interpolationmode sample-hold
attr title "queue length, vector"
vector 1 Pizza.CS queueLength:vector ETV
attr interpolationmode sample-hold
attr title "queue length, vector"
vector 2 Pizza.EntryQueueU2 queueLength:vector ETV
attr interpolationmode sample-hold
attr title "queue length, vector"
vector 3 Pizza.sink lifeTime:vector ETV
attr interpolationmode none
attr title "lifetime of arrived jobs, vector"
attr unit s
vector 4 Pizza.sink lifeTimeU2:vector ETV
attr interpolationmode none
attr title "lifetime of arrived jobs, vector"
attr unit s
vector 5 Pizza.sink lifeTimeU1:vector ETV
attr interpolationmode none
attr title "lifetime of arrived jobs, vector"
attr unit s
0	0	0	0
0	5	1.004079910768	1
0	7	1.930391765611	2
0	11	3.738964224312	3
0	13	4.115420356294	4
0	14	5.085741223811	3
0	23	7.676024802913	2
0	29	7.89978038264	3
0	30	8.314930500473	2
0	35	8.585287280659	1
0	39	8.589153753283	2
0	44	9.502555838954	3
0	45	9.969379227906	2
0	53	12.076440836646	1
0	59	12.46917779268	2
0	62	12.989191816918	1
0	73	19.640043373559	2
0	75	20.019698663254	3
0	76	20.281128207579	2
0	81	20.337723940594	1
0	85	20.85476154668	2
0	89	21.770178580812	3
0	93	25.769795795403	2
0	99	27.436332807403	1
0	105	27.817873462809	2
0	107	27.840879740846	3
0	109	29.040425215129	4
0	112	34.140289823993	5
0	113	37.193446155263	4
0	118	37.706001958623	3
0	128	38.539451327749	4
0	129	40.44971164087	3
0	134	40.603079104846	2
0	138	41.075104947894	3
0	142	41.855497684388	4
0	143	42.480415764422	3
0	150	44.467400454399	2
0	155	44.728729178552	1
0	159	45.018154026842	2
0	163	45.490828619194	3
0	164	45.546932990093	2
0	170	50.028390220785	1
0	178	52.348709110245	0
0	205	58.890788893496	1
0	206	62.82789566082	0
0	223	66.34953510311	1
0	225	67.377294073953	2
0	229	70.880766863172	3
0	230	71.887348243311	2
0	235	72.091924057148	1
0	243	76.358540282505	0
0	269	82.087970362604	1
0	274	84.820549289688	0
0	283	89.675917828452	1
0	285	89.758326444072	2
0	289	91.033350052225	1
0	295	92.421224680322	2
0	301	94.751231575343	1
0	308	96.371262691801	2
0	311	97.351198433193	3
0	312	97.54303625124	2
1	0	0	0
2	0	0	0
2	61	12.61578498944	1
2	69	13.549846117029	2
2	71	18.493990640599	3
2	124	37.841350610103	4
2	126	37.854650631479	5
2	147	42.994490708287	6
2	177	51.83486864213	7
2	183	52.847983280488	6
2	189	53.992102576574	7
2	192	56.854326276827	6
2	198	58.672356028073	5
2	211	63.472122729248	4
2	216	63.919385068873	3
2	227	69.720755724697	4
2	248	78.000910990063	3
2	253	78.083228930253	2
2	260	79.811989951069	1
2	265	81.308686001697	0
2	271	83.002064563702	1
2	279	88.527741837805	0
2	297	92.430332954902	1
2	299	92.763168824391	2
3	16	5.085741223811	4.745175382083
3	25	7.676024802913	6.671944892145
3	32	8.314930500473	6.384538734862
3	37	8.585287280659	4.846323056347
3	47	9.969379227906	5.853958871612
3	55	12.076440836646	4.176660454006
3	64	12.989191816918	4.400038063635
3	78	20.281128207579	10.778572368625
3	83	20.337723940594	7.868546147914
3	95	25.769795795403	6.129752421844
3	101	27.436332807403	7.416634144149
3	115	37.193446155263	16.338684608583
3	120	37.706001958623	15.935823377811
3	131	40.44971164087	12.631838178061
3	136	40.603079104846	12.762199364
3	145	42.480415764422	13.439990549293
3	152	44.467400454399	10.327110630406
3	157	44.728729178552	6.189277850803
3	166	45.546932990093	4.471828042199
3	172	50.028390220785	8.172892536397
3	180	52.348709110245	7.330555083403
3	185	52.847983280488	7.357154661294
3	194	56.854326276827	44.238541287387
3	200	58.672356028073	45.122509911044
3	208	62.82789566082	44.333905020221
3	213	63.472122729248	4.581333835752
3	218	63.919385068873	26.07803445877
3	232	71.887348243311	34.032697611832
3	237	72.091924057148	5.742388954038
3	245	76.358540282505	8.981246208552
3	250	78.000910990063	7.120144126891
3	255	78.083228930253	35.088738221966
3	262	79.811989951069	27.977121308939
3	267	81.308686001697	27.316583425123
3	276	84.820549289688	15.099793564991
3	281	88.527741837805	6.439771475201
3	291	91.033350052225	8.031285488523
3	303	94.751231575343	5.075313746891
3	314	97.54303625124	7.784709807168
4	16	5.085741223811	4.745175382083
4	194	56.854326276827	44.238541287387
4	200	58.672356028073	45.122509911044
4	208	62.82789566082	44.333905020221
4	218	63.919385068873	26.07803445877
4	232	71.887348243311	34.032697611832
4	255	78.083228930253	35.088738221966
4	262	79.811989951069	27.977121308939
4	267	81.308686001697	27.316583425123
4	276	84.820549289688	15.099793564991
4	291	91.033350052225	8.031285488523
5	25	7.676024802913	6.671944892145
5	32	8.314930500473	6.384538734862
5	37	8.585287280659	4.846323056347
5	47	9.969379227906	5.853958871612
5	55	12.076440836646	4.176660454006
5	64	12.989191816918	4.400038063635
5	78	20.281128207579	10.778572368625
5	83	20.337723940594	7.868546147914
5	95	25.769795795403	6.129752421844
5	101	27.436332807403	7.416634144149
5	115	37.193446155263	16.338684608583
5	120	37.706001958623	15.935823377811
5	131	40.44971164087	12.631838178061
5	136	40.603079104846	12.762199364
5	145	42.480415764422	13.439990549293
5	152	44.467400454399	10.327110630406
5	157	44.728729178552	6.189277850803
5	166	45.546932990093	4.471828042199
5	172	50.028390220785	8.172892536397
5	180	52.348709110245	7.330555083403
5	185	52.847983280488	7.357154661294
5	213	63.472122729248	4.581333835752
5	237	72.091924057148	5.742388954038
5	245	76.358540282505	8.981246208552
5	250	78.000910990063	7.120144126891
5	281	88.527741837805	6.439771475201
5	303	94.751231575343	5.075313746891
5	314	97.54303625124	7.784709807168

