version 2
run Third-n5-5-20191125-12:37:55-5332
attr configname Third-n5
attr datetime 20191125-12:37:55
attr experiment Third-n5
attr inifile omnetpp.ini
attr iterationvars ""
attr iterationvarsf ""
attr measurement ""
attr network org.omnetpp.queueing.Pizza
attr processid 5332
attr repetition 5
attr replication ""
attr resultdir results_no_transient
attr runnumber 5
attr seedset 5
param **.PS.maxInventoriedPS 5
param **.U1.interArrivalTime exponential(4s)
param **.U2.interArrivalTime exponential(6s)
param **.PS.serviceTimeForInventoryU1 exponential(1.4s)
param **.PS.serviceTimeForInventoryU2 exponential(1.4s)
param **.PS.serviceTimeDirectU1 exponential(1.8s)
param **.PS.serviceTimeDirectU2 exponential(1.8s)
param **.PS.probabilityProducing 0.8
param **.CS.serviceTimeU1 exponential(2.3s)
param **.CS.serviceTimeU2 exponential(2.3s)

vector 0 Pizza.EntryQueueU1 queueLength:vector ETV
attr interpolationmode sample-hold
attr title "queue length, vector"
vector 1 Pizza.CS queueLength:vector ETV
attr interpolationmode sample-hold
attr title "queue length, vector"
vector 2 Pizza.EntryQueueU2 queueLength:vector ETV
attr interpolationmode sample-hold
attr title "queue length, vector"
vector 3 Pizza.sink lifeTime:vector ETV
attr interpolationmode none
attr title "lifetime of arrived jobs, vector"
attr unit s
vector 4 Pizza.sink lifeTimeU2:vector ETV
attr interpolationmode none
attr title "lifetime of arrived jobs, vector"
attr unit s
vector 5 Pizza.sink lifeTimeU1:vector ETV
attr interpolationmode none
attr title "lifetime of arrived jobs, vector"
attr unit s
0	0	0	0
0	5	1.004079910768	1
0	7	1.930391765611	2
0	11	3.738964224312	3
0	13	4.115420356294	4
0	14	5.085741223811	3
0	23	7.676024802913	2
0	29	7.89978038264	3
0	30	8.314930500473	2
0	35	8.585287280659	1
0	39	8.589153753283	2
0	44	9.502555838954	3
0	45	9.969379227906	2
0	53	12.076440836646	1
0	59	12.46917779268	2
0	64	13.091885211073	3
0	65	16.199688545652	2
0	70	16.417990337226	1
0	75	16.474586070241	0
0	99	26.381119045795	1
0	100	26.682145908975	0
0	116	36.295682828871	1
0	118	38.331956876269	2
0	120	39.112349612763	3
0	123	42.042204040221	2
0	131	45.431015581527	1
0	138	45.834634967429	2
0	140	47.324574428807	3
0	142	47.797249021159	4
0	150	50.369473374706	5
0	152	51.65770676526	6
0	153	51.706449644184	5
0	160	55.653854013152	6
0	162	57.548452756857	7
0	163	58.297430020183	6
0	168	59.124369695053	5
0	175	61.583789955919	6
0	178	64.730772141902	5
0	184	66.652469736563	4
0	189	67.045367759895	3
0	194	67.526246253247	2
0	203	69.899689570918	1
0	210	71.463835062059	0
0	218	72.069558721334	1
0	221	77.907977074232	0
0	227	83.566456225001	1
0	229	85.265220110423	2
0	231	87.00514476522	3
0	233	87.43026529063	4
0	236	89.846317204365	3
0	242	90.077326781691	4
0	244	90.919149544301	3
0	253	91.81191976781	2
0	259	96.174989560673	1
0	265	97.535872777548	0
1	0	0	0
2	0	0	0
2	61	12.61578498944	1
2	81	20.410620857308	0
2	122	41.585711298893	1
2	130	44.09270261606	2
2	144	48.073429978977	3
2	146	49.809491607064	4
2	148	50.194876965117	5
2	209	70.29481737657	6
2	216	71.836455832834	7
2	235	88.018648282818	8
2	250	90.919945051153	9
2	270	99.179929138181	8
3	16	5.085741223811	4.745175382083
3	25	7.676024802913	6.671944892145
3	32	8.314930500473	6.384538734862
3	37	8.585287280659	4.846323056347
3	47	9.969379227906	5.853958871612
3	55	12.076440836646	4.176660454006
3	67	16.199688545652	7.610534792369
3	72	16.417990337226	6.915434498272
3	77	16.474586070241	4.005408277561
3	83	20.410620857308	7.318735646235
3	89	22.315598732298	9.699813742858
3	102	26.682145908975	0.689738647713
3	106	27.194701712335	0.81358266654
3	125	42.042204040221	9.173081262556
3	133	45.431015581527	9.135332752656
3	155	51.706449644184	13.374492767915
3	165	58.297430020183	19.18508040742
3	170	59.124369695053	13.289734727624
3	180	64.730772141902	17.406197713095
3	186	66.652469736563	18.855220715404
3	191	67.045367759895	16.675894385189
3	196	67.526246253247	15.868539487987
3	205	69.899689570918	14.245835557766
3	212	71.463835062059	13.915382305202
3	223	77.907977074232	16.324187118313
3	238	89.846317204365	17.776758483031
3	246	90.919149544301	7.3526933193
3	255	91.81191976781	6.546699657387
3	261	96.174989560673	9.169844795453
3	267	97.535872777548	10.105607486918
3	272	99.179929138181	9.10260235649
4	16	5.085741223811	4.745175382083
4	89	22.315598732298	9.699813742858
4	102	26.682145908975	0.689738647713
5	25	7.676024802913	6.671944892145
5	32	8.314930500473	6.384538734862
5	37	8.585287280659	4.846323056347
5	47	9.969379227906	5.853958871612
5	55	12.076440836646	4.176660454006
5	67	16.199688545652	7.610534792369
5	72	16.417990337226	6.915434498272
5	77	16.474586070241	4.005408277561
5	83	20.410620857308	7.318735646235
5	106	27.194701712335	0.81358266654
5	125	42.042204040221	9.173081262556
5	133	45.431015581527	9.135332752656
5	155	51.706449644184	13.374492767915
5	165	58.297430020183	19.18508040742
5	170	59.124369695053	13.289734727624
5	180	64.730772141902	17.406197713095
5	186	66.652469736563	18.855220715404
5	191	67.045367759895	16.675894385189
5	196	67.526246253247	15.868539487987
5	205	69.899689570918	14.245835557766
5	212	71.463835062059	13.915382305202
5	223	77.907977074232	16.324187118313
5	238	89.846317204365	17.776758483031
5	246	90.919149544301	7.3526933193
5	255	91.81191976781	6.546699657387
5	261	96.174989560673	9.169844795453
5	267	97.535872777548	10.105607486918
5	272	99.179929138181	9.10260235649

