version 2
run Third-n2-4-20191125-12:37:37-7408
attr configname Third-n2
attr datetime 20191125-12:37:37
attr experiment Third-n2
attr inifile omnetpp.ini
attr iterationvars ""
attr iterationvarsf ""
attr measurement ""
attr network org.omnetpp.queueing.Pizza
attr processid 7408
attr repetition 4
attr replication ""
attr resultdir results_no_transient
attr runnumber 4
attr seedset 4
param **.PS.maxInventoriedPS 2
param **.U1.interArrivalTime exponential(4s)
param **.U2.interArrivalTime exponential(6s)
param **.PS.serviceTimeForInventoryU1 exponential(1.4s)
param **.PS.serviceTimeForInventoryU2 exponential(1.4s)
param **.PS.serviceTimeDirectU1 exponential(1.8s)
param **.PS.serviceTimeDirectU2 exponential(1.8s)
param **.PS.probabilityProducing 0.8
param **.CS.serviceTimeU1 exponential(2.3s)
param **.CS.serviceTimeU2 exponential(2.3s)

vector 0 Pizza.EntryQueueU1 queueLength:vector ETV
attr interpolationmode sample-hold
attr title "queue length, vector"
vector 1 Pizza.CS queueLength:vector ETV
attr interpolationmode sample-hold
attr title "queue length, vector"
vector 2 Pizza.EntryQueueU2 queueLength:vector ETV
attr interpolationmode sample-hold
attr title "queue length, vector"
vector 3 Pizza.sink lifeTime:vector ETV
attr interpolationmode none
attr title "lifetime of arrived jobs, vector"
attr unit s
vector 4 Pizza.sink lifeTimeU1:vector ETV
attr interpolationmode none
attr title "lifetime of arrived jobs, vector"
attr unit s
vector 5 Pizza.sink lifeTimeU2:vector ETV
attr interpolationmode none
attr title "lifetime of arrived jobs, vector"
attr unit s
0	0	0	0
0	17	16.81811321791	1
0	19	17.984779141996	2
0	20	24.754643265525	1
0	27	27.324325037112	2
0	29	28.205341315337	3
0	30	28.230694852415	2
0	38	31.603202736445	3
0	40	35.241793547106	4
0	45	37.656999095256	3
0	50	37.760878135326	2
0	57	41.593453036012	1
0	64	41.925935267457	2
0	67	45.177410784319	1
0	73	45.6760080925	0
0	87	49.974242253899	1
0	89	55.096040383577	0
0	104	57.187709529722	1
0	106	57.985029923891	2
0	111	59.510343076093	1
0	117	60.673389284213	0
0	128	62.045169865667	1
0	130	63.928870996621	2
0	131	64.027838995776	1
0	138	65.662315707867	2
0	139	66.696963734546	1
0	145	66.832717113024	2
0	150	67.36757265528	1
0	155	67.987129368266	0
0	167	70.755296593041	1
0	171	75.887310416958	0
0	190	82.510740888473	1
0	191	82.970558424982	0
0	208	86.133015735381	1
0	211	91.024865769641	0
0	227	92.713619040387	1
0	232	94.52164744852	2
0	234	94.609070661443	3
0	236	94.808076552741	4
0	242	97.749577216735	5
0	245	98.863147411477	4
1	0	0	0
2	0	0	0
2	5	13.85291418384	1
2	9	16.149876476012	0
2	42	35.454687909356	1
2	44	35.508848187148	2
2	56	41.197477191897	3
2	66	44.635243651157	4
2	79	48.182570352521	5
2	81	48.716450486652	4
2	94	55.179790683177	3
2	100	56.99196839355	2
2	110	59.311844095966	3
2	123	60.966670291943	4
2	126	61.86290142218	5
2	147	67.025157026577	6
2	149	67.316552781384	7
2	161	70.124158593626	6
2	176	76.900773338379	5
2	181	77.825907163059	4
2	187	80.868028727276	5
2	197	83.162284226035	4
2	202	83.474589886175	3
2	210	88.800990018507	4
2	216	91.177605098864	3
2	221	91.707600702309	2
2	229	93.139338207252	3
2	238	95.880864512018	4
2	240	96.578841372958	5
2	244	98.779302763578	6
3	11	16.149876476012	2.501267199274
3	22	24.754643265525	10.901729081685
3	32	28.230694852415	11.412581634505
3	47	37.656999095256	19.67221995326
3	52	37.760878135326	10.436553098214
3	59	41.593453036012	13.388111720675
3	69	45.177410784319	13.574208047874
3	75	45.6760080925	10.434214545394
3	83	48.716450486652	6.790515219195
3	91	55.096040383577	19.641352474221
3	96	55.179790683177	5.205548429278
3	102	56.99196839355	21.483120206402
3	113	59.510343076093	18.312865884196
3	119	60.673389284213	3.485679754491
3	133	64.027838995776	6.042809071885
3	141	66.696963734546	4.651793868879
3	152	67.36757265528	3.438701658659
3	157	67.987129368266	2.324813660399
3	163	70.124158593626	3.291441480602
3	173	75.887310416958	31.252066765801
3	178	76.900773338379	6.145476745338
3	183	77.825907163059	29.643336810538
3	193	82.970558424982	23.658714329016
3	199	83.162284226035	0.651543337562
3	204	83.474589886175	22.507919594232
3	213	91.024865769641	29.161964347461
3	218	91.177605098864	5.044589363483
3	223	91.707600702309	24.682443675732
3	247	98.863147411477	31.546594630093
4	11	16.149876476012	2.501267199274
4	32	28.230694852415	11.412581634505
4	47	37.656999095256	19.67221995326
4	52	37.760878135326	10.436553098214
4	59	41.593453036012	13.388111720675
4	69	45.177410784319	13.574208047874
4	75	45.6760080925	10.434214545394
4	83	48.716450486652	6.790515219195
4	96	55.179790683177	5.205548429278
4	119	60.673389284213	3.485679754491
4	133	64.027838995776	6.042809071885
4	141	66.696963734546	4.651793868879
4	152	67.36757265528	3.438701658659
4	157	67.987129368266	2.324813660399
4	163	70.124158593626	3.291441480602
4	178	76.900773338379	6.145476745338
4	199	83.162284226035	0.651543337562
4	218	91.177605098864	5.044589363483
5	22	24.754643265525	10.901729081685
5	91	55.096040383577	19.641352474221
5	102	56.99196839355	21.483120206402
5	113	59.510343076093	18.312865884196
5	173	75.887310416958	31.252066765801
5	183	77.825907163059	29.643336810538
5	193	82.970558424982	23.658714329016
5	204	83.474589886175	22.507919594232
5	213	91.024865769641	29.161964347461
5	223	91.707600702309	24.682443675732
5	247	98.863147411477	31.546594630093

