version 2
run Third-n5-2-20191125-12:37:52-8188
attr configname Third-n5
attr datetime 20191125-12:37:52
attr experiment Third-n5
attr inifile omnetpp.ini
attr iterationvars ""
attr iterationvarsf ""
attr measurement ""
attr network org.omnetpp.queueing.Pizza
attr processid 8188
attr repetition 2
attr replication ""
attr resultdir results_no_transient
attr runnumber 2
attr seedset 2
param **.PS.maxInventoriedPS 5
param **.U1.interArrivalTime exponential(4s)
param **.U2.interArrivalTime exponential(6s)
param **.PS.serviceTimeForInventoryU1 exponential(1.4s)
param **.PS.serviceTimeForInventoryU2 exponential(1.4s)
param **.PS.serviceTimeDirectU1 exponential(1.8s)
param **.PS.serviceTimeDirectU2 exponential(1.8s)
param **.PS.probabilityProducing 0.8
param **.CS.serviceTimeU1 exponential(2.3s)
param **.CS.serviceTimeU2 exponential(2.3s)

vector 0 Pizza.EntryQueueU1 queueLength:vector ETV
attr interpolationmode sample-hold
attr title "queue length, vector"
vector 1 Pizza.CS queueLength:vector ETV
attr interpolationmode sample-hold
attr title "queue length, vector"
vector 2 Pizza.EntryQueueU2 queueLength:vector ETV
attr interpolationmode sample-hold
attr title "queue length, vector"
vector 3 Pizza.sink lifeTime:vector ETV
attr interpolationmode none
attr title "lifetime of arrived jobs, vector"
attr unit s
vector 4 Pizza.sink lifeTimeU2:vector ETV
attr interpolationmode none
attr title "lifetime of arrived jobs, vector"
attr unit s
vector 5 Pizza.sink lifeTimeU1:vector ETV
attr interpolationmode none
attr title "lifetime of arrived jobs, vector"
attr unit s
0	0	0	0
0	7	2.290767958509	1
0	14	7.309071664081	0
0	36	14.096145449219	1
0	40	15.292455569405	2
0	43	16.642548810784	1
0	49	17.384776070314	2
0	50	17.453125169952	1
0	56	17.654836940931	2
0	57	17.737214111471	1
0	64	18.060890515695	2
0	66	19.085686169489	3
0	68	19.305334417996	2
0	74	20.088953808787	3
0	75	20.29552052464	2
0	80	20.813767938546	1
0	86	20.823795801777	2
0	90	23.256565997126	1
0	96	23.463185740405	2
0	100	26.886243649592	1
0	106	28.480520639488	0
0	152	42.518083713082	1
0	153	48.757113337629	0
0	177	59.592360503384	1
0	178	59.923386972995	0
0	217	76.92409765139	1
0	220	78.05511801516	0
0	244	85.348892256004	1
0	246	87.022556329083	2
0	248	87.501188469003	3
0	252	89.424268795652	4
0	257	93.228013787352	3
0	262	95.692509278871	2
0	268	96.291814834118	1
0	277	98.783119673341	0
1	0	0	0
2	0	0	0
2	5	1.385616726738	1
2	11	6.17216427014	2
2	21	8.128289683113	1
2	25	8.490874284271	2
2	30	12.784910243756	1
2	34	13.010067735331	2
2	88	22.242131491916	3
2	112	29.351693511873	2
2	117	30.671955241709	1
2	123	31.694952216778	2
2	124	32.122831501197	1
2	129	35.803935727156	0
2	203	73.407072223204	1
2	204	74.584249332218	0
2	219	77.928359568728	1
2	226	78.083657806891	2
2	228	79.664155860158	1
2	234	81.025125323291	2
2	237	83.617876550569	3
2	238	84.928196701859	2
2	250	88.421975646679	3
2	254	90.676759833987	4
2	256	90.932938002138	5
2	274	97.180903138167	6
2	282	99.113899920235	5
3	16	7.309071664081	6.081064358423
3	23	8.128289683113	5.837521724604
3	32	12.784910243756	11.399293517018
3	45	16.642548810784	10.470384540644
3	52	17.453125169952	3.356979720733
3	59	17.737214111471	2.444758542066
3	70	19.305334417996	1.920558347682
3	77	20.29552052464	2.640683583709
3	82	20.813767938546	2.752877422851
3	92	23.256565997126	4.170879827637
3	102	26.886243649592	6.797289840805
3	108	28.480520639488	7.656724837711
3	114	29.351693511873	5.888507771468
3	119	30.671955241709	22.181080957438
3	126	32.122831501197	19.112763765866
3	131	35.803935727156	13.56180423524
3	135	36.000956701679	4.306004484901
3	142	38.78325864125	2.486198288333
3	155	48.757113337629	6.517048927355
3	160	51.541959929259	9.023876216177
3	169	55.323452059425	1.276879797042
3	180	59.923386972995	3.300938210198
3	184	61.26254109609	1.670180592706
3	195	71.534256913361	1.151760002853
3	206	74.584249332218	2.998711534297
3	210	75.13496641143	1.727894188226
3	222	78.05511801516	2.010001465403
3	230	79.664155860158	2.740058208768
3	240	84.928196701859	6.999837133131
3	259	93.228013787352	15.144355980461
3	264	95.692509278871	10.343617022867
3	270	96.291814834118	9.269258505035
3	279	98.783119673341	11.281931204338
3	284	99.113899920235	9.689631124583
4	16	7.309071664081	6.081064358423
4	32	12.784910243756	11.399293517018
4	45	16.642548810784	10.470384540644
4	119	30.671955241709	22.181080957438
4	126	32.122831501197	19.112763765866
4	131	35.803935727156	13.56180423524
4	135	36.000956701679	4.306004484901
4	142	38.78325864125	2.486198288333
4	169	55.323452059425	1.276879797042
4	210	75.13496641143	1.727894188226
4	222	78.05511801516	2.010001465403
4	240	84.928196701859	6.999837133131
4	259	93.228013787352	15.144355980461
5	23	8.128289683113	5.837521724604
5	52	17.453125169952	3.356979720733
5	59	17.737214111471	2.444758542066
5	70	19.305334417996	1.920558347682
5	77	20.29552052464	2.640683583709
5	82	20.813767938546	2.752877422851
5	92	23.256565997126	4.170879827637
5	102	26.886243649592	6.797289840805
5	108	28.480520639488	7.656724837711
5	114	29.351693511873	5.888507771468
5	155	48.757113337629	6.517048927355
5	160	51.541959929259	9.023876216177
5	180	59.923386972995	3.300938210198
5	184	61.26254109609	1.670180592706
5	195	71.534256913361	1.151760002853
5	206	74.584249332218	2.998711534297
5	230	79.664155860158	2.740058208768
5	264	95.692509278871	10.343617022867
5	270	96.291814834118	9.269258505035
5	279	98.783119673341	11.281931204338
5	284	99.113899920235	9.689631124583

