version 2
run Third-n4-2-20191125-12:37:47-2836
attr configname Third-n4
attr datetime 20191125-12:37:47
attr experiment Third-n4
attr inifile omnetpp.ini
attr iterationvars ""
attr iterationvarsf ""
attr measurement ""
attr network org.omnetpp.queueing.Pizza
attr processid 2836
attr repetition 2
attr replication ""
attr resultdir results_no_transient
attr runnumber 2
attr seedset 2
param **.PS.maxInventoriedPS 4
param **.U1.interArrivalTime exponential(4s)
param **.U2.interArrivalTime exponential(6s)
param **.PS.serviceTimeForInventoryU1 exponential(1.4s)
param **.PS.serviceTimeForInventoryU2 exponential(1.4s)
param **.PS.serviceTimeDirectU1 exponential(1.8s)
param **.PS.serviceTimeDirectU2 exponential(1.8s)
param **.PS.probabilityProducing 0.8
param **.CS.serviceTimeU1 exponential(2.3s)
param **.CS.serviceTimeU2 exponential(2.3s)

vector 0 Pizza.EntryQueueU1 queueLength:vector ETV
attr interpolationmode sample-hold
attr title "queue length, vector"
vector 1 Pizza.CS queueLength:vector ETV
attr interpolationmode sample-hold
attr title "queue length, vector"
vector 2 Pizza.EntryQueueU2 queueLength:vector ETV
attr interpolationmode sample-hold
attr title "queue length, vector"
vector 3 Pizza.sink lifeTime:vector ETV
attr interpolationmode none
attr title "lifetime of arrived jobs, vector"
attr unit s
vector 4 Pizza.sink lifeTimeU2:vector ETV
attr interpolationmode none
attr title "lifetime of arrived jobs, vector"
attr unit s
vector 5 Pizza.sink lifeTimeU1:vector ETV
attr interpolationmode none
attr title "lifetime of arrived jobs, vector"
attr unit s
0	0	0	0
0	7	2.290767958509	1
0	14	7.309071664081	0
0	35	14.096145449219	1
0	40	18.80093215021	0
0	46	19.184498705727	1
0	48	20.004016438233	0
0	72	26.682320252606	1
0	75	27.232968623643	0
0	82	27.7071159064	1
0	84	28.44195789939	2
0	85	29.213525449681	1
0	93	30.667996515421	0
0	99	30.96480752065	1
0	100	32.286450963148	0
0	109	35.316230460449	1
0	112	35.916128615614	0
0	135	40.142165523952	1
0	136	41.152716467219	0
0	142	43.210237614711	1
0	143	44.833820693178	0
0	150	46.353113834716	1
0	158	51.637800258473	0
0	164	53.96433837056	1
0	169	63.348549615132	0
0	178	65.298336505091	1
0	179	66.67894727682	0
0	205	78.205336478971	1
0	206	79.302223859919	0
0	213	79.768872109934	1
0	214	81.262921141373	0
0	220	81.77193298446	1
0	222	81.794172377991	2
0	224	83.701225703019	3
0	225	84.332593057118	2
0	236	88.004649058966	1
0	243	88.916376197448	2
0	244	90.500855758186	1
0	250	90.877354541715	2
0	254	93.021284445751	3
0	255	96.15644819697	2
0	261	96.224017176491	3
0	263	96.702649316411	4
0	264	97.11880503899	3
0	269	97.217006670115	2
0	275	98.62572964306	3
1	0	0	0
2	0	0	0
2	5	1.385616726738	1
2	11	6.17216427014	2
2	21	8.128289683113	1
2	25	8.490874284271	2
2	29	12.784910243756	1
2	33	13.010067735331	2
2	37	14.233348437098	3
2	53	21.622514453404	2
2	60	23.465412193683	3
2	61	23.542187965681	2
2	67	24.074492555828	3
2	68	25.471315017265	2
2	91	29.523614115665	3
2	111	35.660304206288	4
2	118	37.51040560551	3
2	124	38.381578477895	2
2	129	39.701840207731	1
2	152	47.134966300675	2
2	157	51.478325970209	3
2	167	54.867248405828	4
2	175	64.531631407381	5
2	185	68.386646527658	4
2	191	68.466991292083	5
2	193	68.747522189193	6
2	194	71.687584737856	5
2	199	73.026738860951	4
2	231	84.932726799878	5
2	235	86.369380049996	6
2	277	99.006571956917	7
3	16	7.309071664081	6.081064358423
3	23	8.128289683113	5.837521724604
3	31	12.784910243756	11.399293517018
3	42	18.80093215021	12.62876788007
3	50	20.004016438233	5.907870989014
3	55	21.622514453404	2.438015747677
3	63	23.542187965681	15.05131368141
3	70	25.471315017265	12.461247281934
3	77	27.232968623643	12.999620186545
3	87	29.213525449681	2.531205197075
3	95	30.667996515421	2.960880609021
3	102	32.286450963148	3.844493063758
3	114	35.916128615614	4.951321094964
3	120	37.51040560551	2.194175145061
3	126	38.381578477895	14.916166284212
3	131	39.701840207731	15.627347651903
3	138	41.152716467219	11.629102351554
3	145	44.833820693178	4.691655169226
3	160	51.637800258473	8.427562643762
3	171	63.348549615132	16.995435780416
3	181	66.67894727682	12.71460890626
3	187	68.386646527658	3.088310022567
3	196	71.687584737856	36.027280531568
3	201	73.026738860951	25.891772560276
3	208	79.302223859919	27.82389788971
3	216	81.262921141373	3.057584662402
3	227	84.332593057118	4.563720947184
3	238	88.004649058966	6.232716074506
3	246	90.500855758186	8.706683380195
3	257	96.15644819697	12.455222493951
3	266	97.11880503899	8.202428841542
3	271	97.217006670115	6.3396521284
4	16	7.309071664081	6.081064358423
4	31	12.784910243756	11.399293517018
4	42	18.80093215021	12.62876788007
4	63	23.542187965681	15.05131368141
4	70	25.471315017265	12.461247281934
4	77	27.232968623643	12.999620186545
4	126	38.381578477895	14.916166284212
4	131	39.701840207731	15.627347651903
4	138	41.152716467219	11.629102351554
4	196	71.687584737856	36.027280531568
4	201	73.026738860951	25.891772560276
4	208	79.302223859919	27.82389788971
5	23	8.128289683113	5.837521724604
5	50	20.004016438233	5.907870989014
5	55	21.622514453404	2.438015747677
5	87	29.213525449681	2.531205197075
5	95	30.667996515421	2.960880609021
5	102	32.286450963148	3.844493063758
5	114	35.916128615614	4.951321094964
5	120	37.51040560551	2.194175145061
5	145	44.833820693178	4.691655169226
5	160	51.637800258473	8.427562643762
5	171	63.348549615132	16.995435780416
5	181	66.67894727682	12.71460890626
5	187	68.386646527658	3.088310022567
5	216	81.262921141373	3.057584662402
5	227	84.332593057118	4.563720947184
5	238	88.004649058966	6.232716074506
5	246	90.500855758186	8.706683380195
5	257	96.15644819697	12.455222493951
5	266	97.11880503899	8.202428841542
5	271	97.217006670115	6.3396521284

