version 2
run Third-n3-9-20191125-12:37:48-5528
attr configname Third-n3
attr datetime 20191125-12:37:48
attr experiment Third-n3
attr inifile omnetpp.ini
attr iterationvars ""
attr iterationvarsf ""
attr measurement ""
attr network org.omnetpp.queueing.Pizza
attr processid 5528
attr repetition 9
attr replication ""
attr resultdir results_no_transient
attr runnumber 9
attr seedset 9
param **.PS.maxInventoriedPS 3
param **.U1.interArrivalTime exponential(4s)
param **.U2.interArrivalTime exponential(6s)
param **.PS.serviceTimeForInventoryU1 exponential(1.4s)
param **.PS.serviceTimeForInventoryU2 exponential(1.4s)
param **.PS.serviceTimeDirectU1 exponential(1.8s)
param **.PS.serviceTimeDirectU2 exponential(1.8s)
param **.PS.probabilityProducing 0.8
param **.CS.serviceTimeU1 exponential(2.3s)
param **.CS.serviceTimeU2 exponential(2.3s)

vector 0 Pizza.EntryQueueU1 queueLength:vector ETV
attr interpolationmode sample-hold
attr title "queue length, vector"
vector 1 Pizza.CS queueLength:vector ETV
attr interpolationmode sample-hold
attr title "queue length, vector"
vector 2 Pizza.EntryQueueU2 queueLength:vector ETV
attr interpolationmode sample-hold
attr title "queue length, vector"
vector 3 Pizza.sink lifeTime:vector ETV
attr interpolationmode none
attr title "lifetime of arrived jobs, vector"
attr unit s
vector 4 Pizza.sink lifeTimeU1:vector ETV
attr interpolationmode none
attr title "lifetime of arrived jobs, vector"
attr unit s
vector 5 Pizza.sink lifeTimeU2:vector ETV
attr interpolationmode none
attr title "lifetime of arrived jobs, vector"
attr unit s
0	0	0	0
0	18	2.829327048168	1
0	19	2.921640467866	0
0	31	4.845295499398	1
0	34	5.364494512469	0
0	73	34.163922375178	1
0	77	34.605226818863	2
0	81	34.935780437394	3
0	85	37.636849726706	4
0	87	38.577040374716	5
0	88	41.70313968115	4
0	96	46.465331887411	5
0	98	47.28626001997	6
0	99	49.834015460481	5
0	106	51.716435569423	6
0	108	51.907738231235	7
0	110	54.587493039343	6
0	115	54.988697603844	5
0	121	56.565895288789	4
0	128	57.587605850565	5
0	129	61.837202165632	4
0	134	64.513730711867	3
0	141	66.287755080298	2
0	146	68.755933938676	1
0	154	70.259238659468	0
0	163	72.987466812429	1
0	165	73.536964834979	2
0	168	73.899085981569	1
0	174	74.134394178796	2
0	178	75.423100428668	1
0	183	75.504523786878	0
0	198	82.298940761105	1
0	205	86.401778881558	0
0	214	88.822445785126	1
0	215	89.409543566945	0
0	226	89.786942551731	1
0	230	92.499404304457	0
0	236	92.705747733796	1
0	238	92.738461317617	2
0	239	94.06773766224	1
0	247	94.987265510146	2
0	249	95.567034481798	3
0	251	96.033921711755	2
0	258	97.008794827694	3
0	259	97.905381283913	2
0	267	99.837163445226	1
0	274	99.930166138637	0
1	0	0	0
2	0	0	0
2	50	17.08057666701	1
2	52	19.693923474531	0
2	75	34.301193930407	1
2	83	35.416542551783	2
2	94	41.707602752448	3
2	138	65.365759922022	4
2	161	72.660598742686	5
2	167	73.725362640545	6
2	176	74.161338816755	7
2	190	81.029451741029	6
2	196	81.340073301583	7
2	200	82.676185180387	8
2	202	85.194834324311	9
2	204	85.222280076712	10
2	212	88.74541396481	11
2	220	89.495713667616	10
2	228	91.057229931031	11
2	245	94.283520142214	12
2	266	99.158030689078	13
2	273	99.85258716166	14
3	9	1.616699494875	1.574986115594
3	21	2.921640467866	0.201949293538
3	25	3.341282796989	0.511955748821
3	36	5.364494512469	0.933882318791
3	43	8.145534147763	3.300238648365
3	54	19.693923474531	2.787823348859
3	58	22.420814475664	5.340237808654
3	66	30.395627995731	1.441499224516
3	90	41.70313968115	9.420571842082
3	101	49.834015460481	15.670093085303
3	112	54.587493039343	19.98226622048
3	117	54.988697603844	20.05291716645
3	123	56.565895288789	18.929045562083
3	131	61.837202165632	23.260161790916
3	136	64.513730711867	18.048398824456
3	143	66.287755080298	19.001495060328
3	148	68.755933938676	17.039498369253
3	156	70.259238659468	18.351500428233
3	170	73.899085981569	16.311480131004
3	180	75.423100428668	2.435633616239
3	185	75.504523786878	1.967558951899
3	192	81.029451741029	6.895057562233
3	207	86.401778881558	52.100584951151
3	217	89.409543566945	7.11060280584
3	222	89.495713667616	0.67326788249
3	232	92.499404304457	57.082861752674
3	241	94.06773766224	4.280795110509
3	253	96.033921711755	3.328173977959
3	261	97.905381283913	5.166919966296
3	269	99.837163445226	4.84989793508
3	276	99.930166138637	4.363131656839
4	9	1.616699494875	1.574986115594
4	25	3.341282796989	0.511955748821
4	43	8.145534147763	3.300238648365
4	54	19.693923474531	2.787823348859
4	66	30.395627995731	1.441499224516
4	90	41.70313968115	9.420571842082
4	101	49.834015460481	15.670093085303
4	112	54.587493039343	19.98226622048
4	117	54.988697603844	20.05291716645
4	123	56.565895288789	18.929045562083
4	131	61.837202165632	23.260161790916
4	136	64.513730711867	18.048398824456
4	143	66.287755080298	19.001495060328
4	148	68.755933938676	17.039498369253
4	156	70.259238659468	18.351500428233
4	170	73.899085981569	16.311480131004
4	180	75.423100428668	2.435633616239
4	185	75.504523786878	1.967558951899
4	192	81.029451741029	6.895057562233
4	217	89.409543566945	7.11060280584
4	222	89.495713667616	0.67326788249
4	241	94.06773766224	4.280795110509
4	253	96.033921711755	3.328173977959
4	261	97.905381283913	5.166919966296
4	269	99.837163445226	4.84989793508
4	276	99.930166138637	4.363131656839
5	21	2.921640467866	0.201949293538
5	36	5.364494512469	0.933882318791
5	58	22.420814475664	5.340237808654
5	207	86.401778881558	52.100584951151
5	232	92.499404304457	57.082861752674

