version 2
run Third-n5-4-20191125-12:37:54-7828
attr configname Third-n5
attr datetime 20191125-12:37:54
attr experiment Third-n5
attr inifile omnetpp.ini
attr iterationvars ""
attr iterationvarsf ""
attr measurement ""
attr network org.omnetpp.queueing.Pizza
attr processid 7828
attr repetition 4
attr replication ""
attr resultdir results_no_transient
attr runnumber 4
attr seedset 4
param **.PS.maxInventoriedPS 5
param **.U1.interArrivalTime exponential(4s)
param **.U2.interArrivalTime exponential(6s)
param **.PS.serviceTimeForInventoryU1 exponential(1.4s)
param **.PS.serviceTimeForInventoryU2 exponential(1.4s)
param **.PS.serviceTimeDirectU1 exponential(1.8s)
param **.PS.serviceTimeDirectU2 exponential(1.8s)
param **.PS.probabilityProducing 0.8
param **.CS.serviceTimeU1 exponential(2.3s)
param **.CS.serviceTimeU2 exponential(2.3s)

vector 0 Pizza.EntryQueueU1 queueLength:vector ETV
attr interpolationmode sample-hold
attr title "queue length, vector"
vector 1 Pizza.CS queueLength:vector ETV
attr interpolationmode sample-hold
attr title "queue length, vector"
vector 2 Pizza.EntryQueueU2 queueLength:vector ETV
attr interpolationmode sample-hold
attr title "queue length, vector"
vector 3 Pizza.sink lifeTime:vector ETV
attr interpolationmode none
attr title "lifetime of arrived jobs, vector"
attr unit s
vector 4 Pizza.sink lifeTimeU1:vector ETV
attr interpolationmode none
attr title "lifetime of arrived jobs, vector"
attr unit s
vector 5 Pizza.sink lifeTimeU2:vector ETV
attr interpolationmode none
attr title "lifetime of arrived jobs, vector"
attr unit s
0	0	0	0
0	18	16.81811321791	1
0	25	20.827284776736	2
0	27	22.816068472439	3
0	28	24.754643265525	2
0	36	26.4546592831	3
0	37	26.935284384012	2
0	42	28.253094860062	1
0	47	28.346459291708	0
0	53	30.584994257107	1
0	56	32.949878724683	2
0	57	32.974235808912	1
0	63	33.2615025692	2
0	64	33.419093434926	1
0	70	33.997060192283	2
0	75	36.097054925617	3
0	76	37.68531503658	2
0	83	41.833058720178	1
0	89	42.773567405906	0
0	101	44.267379382732	1
0	104	44.412665252554	0
0	121	46.149752571133	1
0	124	46.897124818865	0
0	167	63.778596566047	1
0	168	64.009718947426	0
0	189	67.400871412955	1
0	190	71.512642752469	0
0	206	74.250599814574	1
0	207	74.39036402793	0
0	229	77.835313657826	1
0	230	79.662906948057	0
0	236	81.226491768736	1
0	238	83.753820951268	0
0	244	83.902165187749	1
0	246	85.395669554988	0
0	260	88.10649811322	1
0	261	91.798711272868	0
1	0	0	0
2	0	0	0
2	5	13.85291418384	1
2	9	16.149876476012	0
2	73	35.454687909356	1
2	82	39.958186766639	2
2	94	43.232026632553	1
2	103	44.383240920162	2
2	109	44.99308585476	1
2	115	45.4466467503	0
2	204	74.250450861944	1
2	213	75.080417487472	2
2	214	75.429980362606	1
2	220	75.544408750102	0
2	227	77.821943792238	1
2	251	85.766020651739	0
3	11	16.149876476012	2.501267199274
3	30	24.754643265525	10.901729081685
3	39	26.935284384012	10.117171166102
3	44	28.253094860062	7.425810083326
3	49	28.346459291708	5.530390819269
3	59	32.974235808912	6.519576525812
3	66	33.419093434926	2.834099177819
3	78	37.68531503658	4.735436311897
3	85	41.833058720178	8.571556150978
3	91	42.773567405906	8.776507213623
3	96	43.232026632553	7.134971706936
3	106	44.412665252554	8.957977343198
3	111	44.99308585476	0.725706472028
3	117	45.4466467503	5.488459983661
3	126	46.897124818865	2.513883898703
3	130	47.008826524874	0.859073953741
3	137	48.036831219548	0.619556712986
3	148	52.091946155432	1.300237516873
3	159	60.825801948898	5.405886518159
3	170	64.009718947426	3.040968494972
3	175	64.201444748479	0.422848182432
3	182	66.292578882768	0.230090227329
3	192	71.512642752469	5.176102654326
3	197	73.64069343588	6.239822022925
3	209	74.39036402793	0.408889309969
3	216	75.429980362606	1.179380548032
3	222	75.544408750102	1.293957888158
3	232	79.662906948057	4.582489460585
3	240	83.753820951268	5.918507293442
3	248	85.395669554988	4.169177786252
3	253	85.766020651739	1.86385546399
3	263	91.798711272868	13.97676748063
3	268	92.946103176384	4.839605063164
3	276	94.4190363248	0.695409666472
3	283	97.442514711662	0.27452432801
4	11	16.149876476012	2.501267199274
4	39	26.935284384012	10.117171166102
4	44	28.253094860062	7.425810083326
4	49	28.346459291708	5.530390819269
4	59	32.974235808912	6.519576525812
4	66	33.419093434926	2.834099177819
4	78	37.68531503658	4.735436311897
4	85	41.833058720178	8.571556150978
4	91	42.773567405906	8.776507213623
4	96	43.232026632553	7.134971706936
4	111	44.99308585476	0.725706472028
4	130	47.008826524874	0.859073953741
4	148	52.091946155432	1.300237516873
4	159	60.825801948898	5.405886518159
4	175	64.201444748479	0.422848182432
4	197	73.64069343588	6.239822022925
4	209	74.39036402793	0.408889309969
4	216	75.429980362606	1.179380548032
4	240	83.753820951268	5.918507293442
4	248	85.395669554988	4.169177786252
4	253	85.766020651739	1.86385546399
4	268	92.946103176384	4.839605063164
5	30	24.754643265525	10.901729081685
5	106	44.412665252554	8.957977343198
5	117	45.4466467503	5.488459983661
5	126	46.897124818865	2.513883898703
5	137	48.036831219548	0.619556712986
5	170	64.009718947426	3.040968494972
5	182	66.292578882768	0.230090227329
5	192	71.512642752469	5.176102654326
5	222	75.544408750102	1.293957888158
5	232	79.662906948057	4.582489460585
5	263	91.798711272868	13.97676748063
5	276	94.4190363248	0.695409666472
5	283	97.442514711662	0.27452432801

