version 2
run Third-n5-19-20191125-12:38:14-5488
attr configname Third-n5
attr datetime 20191125-12:38:14
attr experiment Third-n5
attr inifile omnetpp.ini
attr iterationvars ""
attr iterationvarsf ""
attr measurement ""
attr network org.omnetpp.queueing.Pizza
attr processid 5488
attr repetition 19
attr replication ""
attr resultdir results_no_transient
attr runnumber 19
attr seedset 19
param **.PS.maxInventoriedPS 5
param **.U1.interArrivalTime exponential(4s)
param **.U2.interArrivalTime exponential(6s)
param **.PS.serviceTimeForInventoryU1 exponential(1.4s)
param **.PS.serviceTimeForInventoryU2 exponential(1.4s)
param **.PS.serviceTimeDirectU1 exponential(1.8s)
param **.PS.serviceTimeDirectU2 exponential(1.8s)
param **.PS.probabilityProducing 0.8
param **.CS.serviceTimeU1 exponential(2.3s)
param **.CS.serviceTimeU2 exponential(2.3s)

vector 0 Pizza.EntryQueueU1 queueLength:vector ETV
attr interpolationmode sample-hold
attr title "queue length, vector"
vector 1 Pizza.CS queueLength:vector ETV
attr interpolationmode sample-hold
attr title "queue length, vector"
vector 2 Pizza.EntryQueueU2 queueLength:vector ETV
attr interpolationmode sample-hold
attr title "queue length, vector"
vector 3 Pizza.sink lifeTime:vector ETV
attr interpolationmode none
attr title "lifetime of arrived jobs, vector"
attr unit s
vector 4 Pizza.sink lifeTimeU1:vector ETV
attr interpolationmode none
attr title "lifetime of arrived jobs, vector"
attr unit s
vector 5 Pizza.sink lifeTimeU2:vector ETV
attr interpolationmode none
attr title "lifetime of arrived jobs, vector"
attr unit s
0	0	0	0
0	30	10.178522957092	1
0	31	10.488162937289	0
0	40	12.948386717813	1
0	42	14.905992279367	2
0	43	15.130215206424	1
0	49	15.707207321216	2
0	53	16.203608100071	1
0	59	18.357744261713	0
0	67	19.823199451439	1
0	68	20.726709205611	0
0	81	25.370875993952	1
0	82	25.591582333857	0
0	89	28.584222991459	1
0	91	30.479923641373	2
0	92	30.743122404237	1
0	98	31.237854409214	2
0	100	31.450483139939	3
0	101	31.708509806096	2
0	110	33.078217061063	3
0	112	33.119808142501	4
0	116	33.542883833641	5
0	118	34.350882792139	6
0	119	34.564098596061	5
0	126	37.666960098347	4
0	132	38.010488543779	5
0	135	39.883717717731	6
0	137	39.930803540801	7
0	139	44.961345671309	8
0	141	45.191618535376	9
0	142	45.83953220461	8
0	147	48.230624893799	7
0	153	50.799964866234	6
0	162	55.34222859802	7
0	163	56.192378072432	6
0	169	59.189488621804	5
0	174	60.79007226199	4
0	180	61.855476866158	5
0	181	62.114404866153	4
0	191	66.09655143799	3
0	196	67.439491956477	2
0	202	67.713006753855	1
0	210	69.047508801461	2
0	213	69.729004056398	1
0	220	70.927647290576	2
0	221	74.504561770154	1
0	228	76.371394416456	2
0	229	76.936827753887	1
0	235	80.794697261212	2
0	240	82.522255805779	1
0	246	83.394038780462	0
0	255	85.640723931611	1
0	256	85.685436682915	0
0	277	87.834615570262	1
0	278	91.11879679052	0
0	299	94.712405185606	1
0	301	96.902048387488	0
1	0	0	0
2	0	0	0
2	28	10.132916285404	1
2	38	11.966321863363	2
2	51	15.771310423691	3
2	74	22.89891122989	2
2	114	33.301746661639	3
2	189	64.310558796084	4
2	208	67.79173905504	5
2	212	69.670574492812	6
2	239	82.256951645647	7
2	253	83.98015394196	8
2	262	86.192308791468	7
2	268	86.332666735148	8
2	269	86.9720213275	7
2	283	91.345860252213	6
2	288	93.935374753529	5
2	293	94.352515315674	4
2	308	99.199205399053	3
3	7	1.71052345113	1.300028150124
3	15	3.821194064259	0.443549822001
3	33	10.488162937289	4.348319154208
3	45	15.130215206424	4.951692249332
3	55	16.203608100071	3.255221382258
3	61	18.357744261713	3.451751982346
3	70	20.726709205611	5.019501884395
3	76	22.89891122989	3.075711778451
3	84	25.591582333857	15.458666048453
3	94	30.743122404237	5.372246410285
3	103	31.708509806096	3.124286814637
3	121	34.564098596061	4.084174954688
3	128	37.666960098347	6.429105689133
3	144	45.83953220461	14.389049064671
3	149	48.230624893799	15.152407832736
3	155	50.799964866234	17.680156723733
3	165	56.192378072432	22.649494238791
3	171	59.189488621804	24.838605829665
3	176	60.79007226199	22.779583718211
3	183	62.114404866153	22.230687148422
3	193	66.09655143799	26.165747897189
3	198	67.439491956477	22.478146285168
3	204	67.713006753855	22.521388218479
3	215	69.729004056398	14.386775458378
3	223	74.504561770154	12.649084903996
3	231	76.936827753887	7.889318952426
3	242	82.522255805779	11.594608515203
3	248	83.394038780462	7.022644364006
3	258	85.685436682915	4.890739421703
3	264	86.192308791468	0.551584859857
3	271	86.9720213275	75.005699464137
3	280	91.11879679052	75.347486366829
3	285	91.345860252213	3.511244681951
3	290	93.935374753529	60.63362809189
3	295	94.352515315674	30.04195651959
3	303	96.902048387488	29.110309332448
3	310	99.199205399053	4.486800213447
4	7	1.71052345113	1.300028150124
4	33	10.488162937289	4.348319154208
4	45	15.130215206424	4.951692249332
4	55	16.203608100071	3.255221382258
4	61	18.357744261713	3.451751982346
4	70	20.726709205611	5.019501884395
4	76	22.89891122989	3.075711778451
4	94	30.743122404237	5.372246410285
4	103	31.708509806096	3.124286814637
4	121	34.564098596061	4.084174954688
4	128	37.666960098347	6.429105689133
4	144	45.83953220461	14.389049064671
4	149	48.230624893799	15.152407832736
4	155	50.799964866234	17.680156723733
4	165	56.192378072432	22.649494238791
4	171	59.189488621804	24.838605829665
4	176	60.79007226199	22.779583718211
4	183	62.114404866153	22.230687148422
4	193	66.09655143799	26.165747897189
4	198	67.439491956477	22.478146285168
4	204	67.713006753855	22.521388218479
4	215	69.729004056398	14.386775458378
4	223	74.504561770154	12.649084903996
4	231	76.936827753887	7.889318952426
4	242	82.522255805779	11.594608515203
4	248	83.394038780462	7.022644364006
4	258	85.685436682915	4.890739421703
4	264	86.192308791468	0.551584859857
4	285	91.345860252213	3.511244681951
4	310	99.199205399053	4.486800213447
5	15	3.821194064259	0.443549822001
5	84	25.591582333857	15.458666048453
5	271	86.9720213275	75.005699464137
5	280	91.11879679052	75.347486366829
5	290	93.935374753529	60.63362809189
5	295	94.352515315674	30.04195651959
5	303	96.902048387488	29.110309332448

