version 2
run Third-n2-6-20191125-12:37:39-9836
attr configname Third-n2
attr datetime 20191125-12:37:39
attr experiment Third-n2
attr inifile omnetpp.ini
attr iterationvars ""
attr iterationvarsf ""
attr measurement ""
attr network org.omnetpp.queueing.Pizza
attr processid 9836
attr repetition 6
attr replication ""
attr resultdir results_no_transient
attr runnumber 6
attr seedset 6
param **.PS.maxInventoriedPS 2
param **.U1.interArrivalTime exponential(4s)
param **.U2.interArrivalTime exponential(6s)
param **.PS.serviceTimeForInventoryU1 exponential(1.4s)
param **.PS.serviceTimeForInventoryU2 exponential(1.4s)
param **.PS.serviceTimeDirectU1 exponential(1.8s)
param **.PS.serviceTimeDirectU2 exponential(1.8s)
param **.PS.probabilityProducing 0.8
param **.CS.serviceTimeU1 exponential(2.3s)
param **.CS.serviceTimeU2 exponential(2.3s)

vector 0 Pizza.EntryQueueU1 queueLength:vector ETV
attr interpolationmode sample-hold
attr title "queue length, vector"
vector 1 Pizza.CS queueLength:vector ETV
attr interpolationmode sample-hold
attr title "queue length, vector"
vector 2 Pizza.EntryQueueU2 queueLength:vector ETV
attr interpolationmode sample-hold
attr title "queue length, vector"
vector 3 Pizza.sink lifeTime:vector ETV
attr interpolationmode none
attr title "lifetime of arrived jobs, vector"
attr unit s
vector 4 Pizza.sink lifeTimeU1:vector ETV
attr interpolationmode none
attr title "lifetime of arrived jobs, vector"
attr unit s
vector 5 Pizza.sink lifeTimeU2:vector ETV
attr interpolationmode none
attr title "lifetime of arrived jobs, vector"
attr unit s
0	0	0	0
0	16	10.9673232238	1
0	17	11.796376726956	0
0	24	13.990789176693	1
0	26	16.543405505668	0
0	40	19.316227995523	1
0	44	29.138958387701	2
0	45	29.176475843797	1
0	52	31.70137577621	2
0	54	33.98263525928	1
0	60	34.152695343355	2
0	63	34.350604165595	1
0	72	37.190839366671	0
0	86	40.634095482634	1
0	89	41.788626383262	0
0	96	43.100628541236	1
0	97	45.352085231006	0
0	107	48.48678297469	1
0	111	57.031554800215	2
0	112	57.209059706406	1
0	119	58.201712070202	2
0	121	60.167237291314	3
0	122	60.355376821084	2
0	129	63.202839781846	1
0	137	65.317677777651	2
0	138	66.233013165934	1
0	144	69.622094476529	0
0	150	69.871221979955	1
0	151	70.390015570903	0
0	170	72.913456039421	1
0	172	73.439861573689	0
0	182	76.198069169312	1
0	184	76.995897508384	2
0	187	78.419642423954	1
0	192	79.085572225034	0
0	198	79.609329555446	1
0	199	82.200565608269	0
0	239	95.92870650131	1
0	240	96.599489832288	0
1	0	0	0
2	0	0	0
2	33	17.678919129941	1
2	34	18.53241479473	0
2	42	23.898748607952	1
2	62	34.182814267055	2
2	71	36.833366660917	3
2	78	37.633349489618	4
2	79	37.772003342487	3
2	88	40.730954947464	4
2	103	48.258095495333	3
2	158	71.638037174189	4
2	159	71.855670734542	3
2	164	72.514969930217	2
2	178	74.084096847836	3
2	186	77.807503053477	4
2	203	83.587962365912	5
2	206	85.692481039509	4
2	211	86.812399071414	3
2	218	87.693618163115	2
2	224	88.403790787794	3
2	226	90.330814794263	2
2	231	92.600844492647	1
2	235	92.842478872331	2
2	246	98.111701952563	1
2	250	98.79193216887	2
3	8	9.455388172705	0.520907141449
3	19	11.796376726956	1.24814820359
3	28	16.543405505668	5.576082281868
3	36	18.53241479473	4.541625618037
3	47	29.176475843797	11.497556713856
3	56	33.98263525928	14.666407263757
3	65	34.350604165595	5.211645777894
3	74	37.190839366671	5.489463590461
3	81	37.772003342487	3.619307999132
3	91	41.788626383262	17.88987777531
3	99	45.352085231006	4.717989748372
3	105	48.258095495333	5.157466954097
3	114	57.209059706406	23.026245439351
3	124	60.355376821084	11.868593846394
3	131	63.202839781846	6.171284981631
3	140	66.233013165934	8.031301095732
3	146	69.622094476529	9.454857185215
3	153	70.390015570903	5.072337793252
3	161	71.855670734542	1.984448754587
3	166	72.514969930217	35.6816032693
3	174	73.439861573689	35.806512084071
3	189	78.419642423954	5.506186384533
3	194	79.085572225034	2.887503055722
3	201	82.200565608269	5.204668099885
3	208	85.692481039509	6.083151484063
3	213	86.812399071414	46.08144412395
3	220	87.693618163115	16.055580988926
3	228	90.330814794263	16.246717946427
3	233	92.600844492647	14.79334143917
3	242	96.599489832288	13.011527466376
3	248	98.111701952563	2.182995451253
4	8	9.455388172705	0.520907141449
4	19	11.796376726956	1.24814820359
4	28	16.543405505668	5.576082281868
4	36	18.53241479473	4.541625618037
4	56	33.98263525928	14.666407263757
4	65	34.350604165595	5.211645777894
4	74	37.190839366671	5.489463590461
4	81	37.772003342487	3.619307999132
4	99	45.352085231006	4.717989748372
4	105	48.258095495333	5.157466954097
4	124	60.355376821084	11.868593846394
4	131	63.202839781846	6.171284981631
4	140	66.233013165934	8.031301095732
4	146	69.622094476529	9.454857185215
4	153	70.390015570903	5.072337793252
4	161	71.855670734542	1.984448754587
4	189	78.419642423954	5.506186384533
4	194	79.085572225034	2.887503055722
4	201	82.200565608269	5.204668099885
4	208	85.692481039509	6.083151484063
4	248	98.111701952563	2.182995451253
5	47	29.176475843797	11.497556713856
5	91	41.788626383262	17.88987777531
5	114	57.209059706406	23.026245439351
5	166	72.514969930217	35.6816032693
5	174	73.439861573689	35.806512084071
5	213	86.812399071414	46.08144412395
5	220	87.693618163115	16.055580988926
5	228	90.330814794263	16.246717946427
5	233	92.600844492647	14.79334143917
5	242	96.599489832288	13.011527466376

