version 2
run Third-n4-14-20191125-12:38:02-10768
attr configname Third-n4
attr datetime 20191125-12:38:02
attr experiment Third-n4
attr inifile omnetpp.ini
attr iterationvars ""
attr iterationvarsf ""
attr measurement ""
attr network org.omnetpp.queueing.Pizza
attr processid 10768
attr repetition 14
attr replication ""
attr resultdir results_no_transient
attr runnumber 14
attr seedset 14
param **.PS.maxInventoriedPS 4
param **.U1.interArrivalTime exponential(4s)
param **.U2.interArrivalTime exponential(6s)
param **.PS.serviceTimeForInventoryU1 exponential(1.4s)
param **.PS.serviceTimeForInventoryU2 exponential(1.4s)
param **.PS.serviceTimeDirectU1 exponential(1.8s)
param **.PS.serviceTimeDirectU2 exponential(1.8s)
param **.PS.probabilityProducing 0.8
param **.CS.serviceTimeU1 exponential(2.3s)
param **.CS.serviceTimeU2 exponential(2.3s)

vector 0 Pizza.EntryQueueU1 queueLength:vector ETV
attr interpolationmode sample-hold
attr title "queue length, vector"
vector 1 Pizza.CS queueLength:vector ETV
attr interpolationmode sample-hold
attr title "queue length, vector"
vector 2 Pizza.EntryQueueU2 queueLength:vector ETV
attr interpolationmode sample-hold
attr title "queue length, vector"
vector 3 Pizza.sink lifeTime:vector ETV
attr interpolationmode none
attr title "lifetime of arrived jobs, vector"
attr unit s
vector 4 Pizza.sink lifeTimeU1:vector ETV
attr interpolationmode none
attr title "lifetime of arrived jobs, vector"
attr unit s
vector 5 Pizza.sink lifeTimeU2:vector ETV
attr interpolationmode none
attr title "lifetime of arrived jobs, vector"
attr unit s
0	0	0	0
0	26	12.921474105548	1
0	29	13.601412545419	0
0	84	44.145622878207	1
0	86	44.192150949784	2
0	90	44.449665290232	3
0	91	46.945984214582	2
0	96	47.141351986947	1
0	104	49.709001538904	2
0	107	53.960974372257	3
0	109	54.803041449766	4
0	110	58.075592930374	3
0	117	59.111079347824	2
0	125	59.82146343578	3
0	128	61.733031070428	2
0	133	62.644266650058	1
0	138	63.08784480008	0
0	158	65.138726013047	1
0	160	65.5974421131	2
0	163	66.729033321905	1
0	169	68.033562036295	2
0	171	68.960194612456	1
0	177	69.650744162287	2
0	178	70.73759970143	1
0	183	71.119594543963	0
0	187	73.339376732503	1
0	195	75.73202357885	2
0	197	76.037697435155	3
0	199	77.286028695682	2
0	205	77.434190144867	3
0	208	78.917776865317	2
0	214	80.790857125392	3
0	216	81.315027058173	2
0	221	81.514490619279	1
0	228	82.991771769947	0
0	245	86.670437197055	1
0	247	86.729257860118	2
0	248	90.254513044545	1
0	255	95.757071402391	0
0	269	97.663158503186	1
0	271	98.075681270198	2
0	273	98.976177922359	1
0	278	99.598176803745	0
1	0	0	0
2	0	0	0
2	88	44.311073876284	1
2	123	59.119435842509	2
2	127	61.156698295062	3
2	145	64.472691256431	2
2	151	64.87380246047	3
2	152	65.124096841043	2
2	162	66.068984880603	3
2	189	73.936452535846	4
2	191	74.501640245581	5
2	207	77.864596906276	6
2	234	83.058912006219	7
2	237	84.165087499344	6
2	254	90.925593474102	7
2	262	97.439498724202	8
2	263	97.513646093605	7
2	283	99.732397756005	6
3	7	4.841322362366	1.955602056708
3	17	9.701079122962	0.881228344075
3	31	13.601412545419	3.777477304531
3	36	14.403785542981	1.482311437433
3	44	15.889047369443	0.590960113452
3	51	26.758433437496	0.272715076569
3	60	34.81732926492	2.570483713323
3	68	38.961905917909	0.287810727033
3	77	42.780768802496	2.915245969807
3	93	46.945984214582	3.157082222282
3	98	47.141351986947	2.99572910874
3	112	58.075592930374	13.88344198059
3	119	59.111079347824	14.661414057592
3	130	61.733031070428	12.024029531524
3	135	62.644266650058	8.683292277801
3	140	63.08784480008	8.284803350314
3	147	64.472691256431	4.651227820651
3	154	65.124096841043	20.813022964759
3	165	66.729033321905	7.609597479396
3	173	68.960194612456	3.821468599409
3	180	70.73759970143	5.14015758833
3	185	71.119594543963	3.086032507668
3	201	77.286028695682	7.635284533395
3	210	78.917776865317	5.578400132814
3	218	81.315027058173	5.583003479323
3	223	81.514490619279	5.476793184124
3	230	82.991771769947	5.55758162508
3	239	84.165087499344	3.374230373952
3	250	90.254513044545	29.097814749483
3	257	95.757071402391	9.086634205336
3	265	97.513646093605	10.784388233487
3	275	98.976177922359	34.102375461889
3	280	99.598176803745	1.935018300559
3	285	99.732397756005	1.656716485807
4	7	4.841322362366	1.955602056708
4	17	9.701079122962	0.881228344075
4	31	13.601412545419	3.777477304531
4	36	14.403785542981	1.482311437433
4	51	26.758433437496	0.272715076569
4	60	34.81732926492	2.570483713323
4	68	38.961905917909	0.287810727033
4	77	42.780768802496	2.915245969807
4	98	47.141351986947	2.99572910874
4	112	58.075592930374	13.88344198059
4	119	59.111079347824	14.661414057592
4	130	61.733031070428	12.024029531524
4	135	62.644266650058	8.683292277801
4	140	63.08784480008	8.284803350314
4	147	64.472691256431	4.651227820651
4	173	68.960194612456	3.821468599409
4	180	70.73759970143	5.14015758833
4	185	71.119594543963	3.086032507668
4	201	77.286028695682	7.635284533395
4	210	78.917776865317	5.578400132814
4	218	81.315027058173	5.583003479323
4	223	81.514490619279	5.476793184124
4	230	82.991771769947	5.55758162508
4	239	84.165087499344	3.374230373952
4	257	95.757071402391	9.086634205336
4	265	97.513646093605	10.784388233487
4	280	99.598176803745	1.935018300559
4	285	99.732397756005	1.656716485807
5	44	15.889047369443	0.590960113452
5	93	46.945984214582	3.157082222282
5	154	65.124096841043	20.813022964759
5	165	66.729033321905	7.609597479396
5	250	90.254513044545	29.097814749483
5	275	98.976177922359	34.102375461889

