version 2
run Third-n5-6-20191125-12:37:56-11164
attr configname Third-n5
attr datetime 20191125-12:37:56
attr experiment Third-n5
attr inifile omnetpp.ini
attr iterationvars ""
attr iterationvarsf ""
attr measurement ""
attr network org.omnetpp.queueing.Pizza
attr processid 11164
attr repetition 6
attr replication ""
attr resultdir results_no_transient
attr runnumber 6
attr seedset 6
param **.PS.maxInventoriedPS 5
param **.U1.interArrivalTime exponential(4s)
param **.U2.interArrivalTime exponential(6s)
param **.PS.serviceTimeForInventoryU1 exponential(1.4s)
param **.PS.serviceTimeForInventoryU2 exponential(1.4s)
param **.PS.serviceTimeDirectU1 exponential(1.8s)
param **.PS.serviceTimeDirectU2 exponential(1.8s)
param **.PS.probabilityProducing 0.8
param **.CS.serviceTimeU1 exponential(2.3s)
param **.CS.serviceTimeU2 exponential(2.3s)

vector 0 Pizza.EntryQueueU1 queueLength:vector ETV
attr interpolationmode sample-hold
attr title "queue length, vector"
vector 1 Pizza.CS queueLength:vector ETV
attr interpolationmode sample-hold
attr title "queue length, vector"
vector 2 Pizza.EntryQueueU2 queueLength:vector ETV
attr interpolationmode sample-hold
attr title "queue length, vector"
vector 3 Pizza.sink lifeTime:vector ETV
attr interpolationmode none
attr title "lifetime of arrived jobs, vector"
attr unit s
vector 4 Pizza.sink lifeTimeU1:vector ETV
attr interpolationmode none
attr title "lifetime of arrived jobs, vector"
attr unit s
vector 5 Pizza.sink lifeTimeU2:vector ETV
attr interpolationmode none
attr title "lifetime of arrived jobs, vector"
attr unit s
0	0	0	0
0	16	10.9673232238	1
0	17	11.796376726956	0
0	24	13.990789176693	1
0	26	16.543405505668	0
0	39	19.316227995523	1
0	40	23.326989105443	0
0	52	26.172271768259	1
0	54	26.396329469613	2
0	59	30.766858664743	1
0	65	30.877733049412	2
0	67	31.411054935212	3
0	69	31.765685925172	4
0	72	32.740050436408	3
0	77	34.158306945104	2
0	82	34.837256912482	1
0	90	37.934295711718	0
0	105	44.412577872091	1
0	107	46.520427397567	0
0	113	46.94958349394	1
0	115	47.897541320916	0
0	152	59.447397399422	1
0	155	61.709045607379	0
0	162	63.265694903718	1
0	168	70.340976589943	0
0	181	71.871300238378	1
0	182	74.121899774258	0
0	195	78.864566870863	1
0	196	79.345876279648	0
0	204	80.207294617599	1
0	205	80.540418274614	0
0	220	84.793723541335	1
0	222	84.962746868213	2
0	225	85.778697151421	1
0	231	86.864537297736	0
0	258	97.152378533259	1
0	260	98.66808162934	2
1	0	0	0
2	0	0	0
2	46	23.898748607952	1
2	48	25.936959779442	0
2	89	36.436555778778	1
2	96	42.847539511395	0
2	102	44.017452120499	1
2	120	48.095473635095	0
2	136	54.25532691297	1
2	138	55.086714983262	0
2	154	59.963866583158	1
2	164	64.783558848843	2
2	167	65.980301357451	3
2	173	71.006906391023	2
2	179	71.760760669886	3
2	188	75.957835827966	2
2	211	83.16965268156	1
2	216	83.836276824395	0
2	256	96.239826088683	1
3	8	9.455388172705	0.520907141449
3	19	11.796376726956	1.24814820359
3	28	16.543405505668	5.576082281868
3	32	16.932443246778	2.941654070085
3	42	23.326989105443	5.648069975502
3	50	25.936959779442	6.620731783919
3	61	30.766858664743	6.868110056791
3	74	32.740050436408	6.567778668149
3	79	34.158306945104	7.761977475491
3	84	34.837256912482	3.95952386307
3	92	37.934295711718	6.523240776506
3	98	42.847539511395	11.081853586223
3	109	46.520427397567	10.083871618789
3	117	47.897541320916	3.484963448825
3	122	48.095473635095	1.145890141155
3	126	48.236756937589	4.21930481709
3	140	55.086714983262	2.834660490399
3	144	55.568839398945	1.313512485975
3	157	61.709045607379	4.276538522859
3	170	70.340976589943	10.893579190521
3	175	71.006906391023	7.741211487305
3	184	74.121899774258	14.1580331911
3	190	75.957835827966	4.086535589588
3	198	79.345876279648	14.562317430805
3	207	80.540418274614	1.675851403751
3	213	83.16965268156	2.962358063961
3	218	83.836276824395	17.855975466944
3	227	85.778697151421	14.017936481535
3	233	86.864537297736	2.070813756401
3	237	87.739003988703	2.77625712049
3	246	91.295873395775	0.286275242822
4	8	9.455388172705	0.520907141449
4	19	11.796376726956	1.24814820359
4	28	16.543405505668	5.576082281868
4	32	16.932443246778	2.941654070085
4	50	25.936959779442	6.620731783919
4	74	32.740050436408	6.567778668149
4	79	34.158306945104	7.761977475491
4	84	34.837256912482	3.95952386307
4	92	37.934295711718	6.523240776506
4	98	42.847539511395	11.081853586223
4	117	47.897541320916	3.484963448825
4	122	48.095473635095	1.145890141155
4	157	61.709045607379	4.276538522859
4	170	70.340976589943	10.893579190521
4	175	71.006906391023	7.741211487305
4	190	75.957835827966	4.086535589588
4	207	80.540418274614	1.675851403751
4	213	83.16965268156	2.962358063961
4	233	86.864537297736	2.070813756401
4	237	87.739003988703	2.77625712049
4	246	91.295873395775	0.286275242822
5	42	23.326989105443	5.648069975502
5	61	30.766858664743	6.868110056791
5	109	46.520427397567	10.083871618789
5	126	48.236756937589	4.21930481709
5	140	55.086714983262	2.834660490399
5	144	55.568839398945	1.313512485975
5	184	74.121899774258	14.1580331911
5	198	79.345876279648	14.562317430805
5	218	83.836276824395	17.855975466944
5	227	85.778697151421	14.017936481535

