version 2
run Third-n5-8-20191125-12:37:59-3036
attr configname Third-n5
attr datetime 20191125-12:37:59
attr experiment Third-n5
attr inifile omnetpp.ini
attr iterationvars ""
attr iterationvarsf ""
attr measurement ""
attr network org.omnetpp.queueing.Pizza
attr processid 3036
attr repetition 8
attr replication ""
attr resultdir results_no_transient
attr runnumber 8
attr seedset 8
param **.PS.maxInventoriedPS 5
param **.U1.interArrivalTime exponential(4s)
param **.U2.interArrivalTime exponential(6s)
param **.PS.serviceTimeForInventoryU1 exponential(1.4s)
param **.PS.serviceTimeForInventoryU2 exponential(1.4s)
param **.PS.serviceTimeDirectU1 exponential(1.8s)
param **.PS.serviceTimeDirectU2 exponential(1.8s)
param **.PS.probabilityProducing 0.8
param **.CS.serviceTimeU1 exponential(2.3s)
param **.CS.serviceTimeU2 exponential(2.3s)

vector 0 Pizza.EntryQueueU1 queueLength:vector ETV
attr interpolationmode sample-hold
attr title "queue length, vector"
vector 1 Pizza.CS queueLength:vector ETV
attr interpolationmode sample-hold
attr title "queue length, vector"
vector 2 Pizza.EntryQueueU2 queueLength:vector ETV
attr interpolationmode sample-hold
attr title "queue length, vector"
vector 3 Pizza.sink lifeTime:vector ETV
attr interpolationmode none
attr title "lifetime of arrived jobs, vector"
attr unit s
vector 4 Pizza.sink lifeTimeU2:vector ETV
attr interpolationmode none
attr title "lifetime of arrived jobs, vector"
attr unit s
vector 5 Pizza.sink lifeTimeU1:vector ETV
attr interpolationmode none
attr title "lifetime of arrived jobs, vector"
attr unit s
0	0	0	0
0	31	14.077283905029	1
0	33	14.775973036721	0
0	47	16.981657138982	1
0	49	17.528858741778	2
0	51	18.959091631617	3
0	52	19.305184454153	2
0	60	20.514295322747	3
0	61	20.639705281108	2
0	68	21.614502878604	1
0	73	21.681554546823	0
0	102	32.130841439896	1
0	104	32.415494324676	2
0	105	33.276084903708	1
0	112	36.600757785114	2
0	114	36.73088427647	3
0	116	36.864859322156	4
0	117	36.927454367249	3
0	124	37.517897181147	2
0	129	38.214348878739	1
0	137	39.296025373181	2
0	138	39.574463661722	1
0	143	39.95088368888	0
0	149	40.449324078455	1
0	151	40.872485607279	2
0	154	42.900723229166	1
0	160	43.206232490068	2
0	162	43.980769475633	1
0	168	45.624200400862	0
0	207	57.223315910263	1
0	208	57.397831122159	0
0	217	62.324876303637	1
0	218	63.508589881793	0
0	264	77.237374689879	1
0	265	78.962171060733	0
0	272	79.395825970304	1
0	274	82.536196370613	0
0	296	91.129868765742	1
0	298	93.212843839187	0
1	0	0	0
2	0	0	0
2	67	20.821417105865	1
2	79	22.419467690798	0
2	87	27.538678925871	1
2	88	28.844913308648	0
2	123	37.504305566942	1
2	174	45.65524297993	0
2	225	64.347326379931	1
2	226	65.660625299858	0
2	288	89.854430134699	1
2	289	90.606705676033	0
3	10	2.300462636808	2.233402647177
3	24	12.189805680156	3.921985477552
3	35	14.775973036721	0.784733275278
3	40	15.343901544923	1.266617639894
3	54	19.305184454153	2.5958221699
3	63	20.639705281108	3.658048142126
3	70	21.614502878604	4.085644136826
3	75	21.681554546823	2.722462915206
3	81	22.419467690798	1.905172368051
3	90	28.844913308648	8.023496202783
3	94	29.569207255448	2.030528329577
3	107	33.276084903708	2.33857324888
3	119	36.927454367249	4.796612927353
3	126	37.517897181147	5.102402856471
3	131	38.214348878739	1.613591093625
3	140	39.574463661722	2.843579385252
3	145	39.95088368888	3.086024366724
3	156	42.900723229166	3.604697855985
3	164	43.980769475633	3.531445397178
3	170	45.624200400862	4.751714793583
3	176	45.65524297993	2.449010489862
3	182	46.954151333569	9.449845766627
3	190	49.399275794391	0.841463926778
3	200	56.06876063599	2.034633698597
3	210	57.397831122159	0.626375196046
3	220	63.508589881793	6.28527397153
3	228	65.660625299858	3.335748996221
3	232	67.386065443657	3.038739063726
3	241	72.022946998893	2.955782657749
3	248	73.553727848356	0.779585537435
3	257	75.416580383699	0.815839612021
3	267	78.962171060733	2.320581983921
3	276	82.536196370613	5.298821680734
3	281	89.431802847921	10.035976877617
3	291	90.606705676033	1.12297669384
3	300	93.212843839187	3.358413704488
3	304	93.44402811635	2.314159350608
4	10	2.300462636808	2.233402647177
4	90	28.844913308648	8.023496202783
4	94	29.569207255448	2.030528329577
4	107	33.276084903708	2.33857324888
4	182	46.954151333569	9.449845766627
4	232	67.386065443657	3.038739063726
4	257	75.416580383699	0.815839612021
4	300	93.212843839187	3.358413704488
5	24	12.189805680156	3.921985477552
5	35	14.775973036721	0.784733275278
5	40	15.343901544923	1.266617639894
5	54	19.305184454153	2.5958221699
5	63	20.639705281108	3.658048142126
5	70	21.614502878604	4.085644136826
5	75	21.681554546823	2.722462915206
5	81	22.419467690798	1.905172368051
5	119	36.927454367249	4.796612927353
5	126	37.517897181147	5.102402856471
5	131	38.214348878739	1.613591093625
5	140	39.574463661722	2.843579385252
5	145	39.95088368888	3.086024366724
5	156	42.900723229166	3.604697855985
5	164	43.980769475633	3.531445397178
5	170	45.624200400862	4.751714793583
5	176	45.65524297993	2.449010489862
5	190	49.399275794391	0.841463926778
5	200	56.06876063599	2.034633698597
5	210	57.397831122159	0.626375196046
5	220	63.508589881793	6.28527397153
5	228	65.660625299858	3.335748996221
5	241	72.022946998893	2.955782657749
5	248	73.553727848356	0.779585537435
5	267	78.962171060733	2.320581983921
5	276	82.536196370613	5.298821680734
5	281	89.431802847921	10.035976877617
5	291	90.606705676033	1.12297669384
5	304	93.44402811635	2.314159350608

