version 2
run Third-n2-2-20191125-12:37:36-2736
attr configname Third-n2
attr datetime 20191125-12:37:36
attr experiment Third-n2
attr inifile omnetpp.ini
attr iterationvars ""
attr iterationvarsf ""
attr measurement ""
attr network org.omnetpp.queueing.Pizza
attr processid 2736
attr repetition 2
attr replication ""
attr resultdir results_no_transient
attr runnumber 2
attr seedset 2
param **.PS.maxInventoriedPS 2
param **.U1.interArrivalTime exponential(4s)
param **.U2.interArrivalTime exponential(6s)
param **.PS.serviceTimeForInventoryU1 exponential(1.4s)
param **.PS.serviceTimeForInventoryU2 exponential(1.4s)
param **.PS.serviceTimeDirectU1 exponential(1.8s)
param **.PS.serviceTimeDirectU2 exponential(1.8s)
param **.PS.probabilityProducing 0.8
param **.CS.serviceTimeU1 exponential(2.3s)
param **.CS.serviceTimeU2 exponential(2.3s)

vector 0 Pizza.EntryQueueU1 queueLength:vector ETV
attr interpolationmode sample-hold
attr title "queue length, vector"
vector 1 Pizza.CS queueLength:vector ETV
attr interpolationmode sample-hold
attr title "queue length, vector"
vector 2 Pizza.EntryQueueU2 queueLength:vector ETV
attr interpolationmode sample-hold
attr title "queue length, vector"
vector 3 Pizza.sink lifeTime:vector ETV
attr interpolationmode none
attr title "lifetime of arrived jobs, vector"
attr unit s
vector 4 Pizza.sink lifeTimeU2:vector ETV
attr interpolationmode none
attr title "lifetime of arrived jobs, vector"
attr unit s
vector 5 Pizza.sink lifeTimeU1:vector ETV
attr interpolationmode none
attr title "lifetime of arrived jobs, vector"
attr unit s
0	0	0	0
0	7	2.290767958509	1
0	14	7.309071664081	0
0	54	19.184498705727	1
0	58	19.963620287072	2
0	60	22.778399443892	3
0	62	24.188097459836	4
0	64	24.458158330453	5
0	66	25.81613090175	6
0	67	27.49991471107	5
0	73	27.961201107534	4
0	79	28.051451606275	5
0	81	29.076247260069	6
0	83	29.879791456444	5
0	89	30.079514899367	6
0	94	31.801577693531	7
0	95	31.860348282482	6
0	102	33.633696865433	7
0	105	34.212746150554	6
0	110	35.337941195331	5
0	116	36.273086804061	6
0	120	39.743128912002	7
0	124	44.569063975505	8
0	125	46.134646430506	7
0	130	46.698071375983	6
0	135	47.659387130653	5
0	142	49.624167113463	4
0	147	50.361188161089	3
0	154	56.090555332117	2
0	158	57.92771420794	3
0	160	59.752700315373	4
0	165	62.614488859997	3
0	174	66.676516233173	4
0	175	67.656024722033	3
0	181	70.440871313663	2
0	186	70.867283989122	1
0	193	78.383133228206	0
0	199	80.780881282888	1
0	206	85.749203571444	2
0	207	87.775433724313	1
0	212	88.467182234576	0
0	235	94.382159112518	1
0	239	95.33992794593	2
0	240	95.63428907611	1
0	247	96.672732998701	0
0	254	98.83558266837	1
1	0	0	0
2	0	0	0
2	5	1.385616726738	1
2	11	6.17216427014	2
2	19	7.60295916181	1
2	25	8.490874284271	2
2	28	10.54794813529	1
2	33	12.135577526515	0
2	46	14.314307833119	1
2	48	18.521298140911	0
2	52	19.054996809539	1
2	92	30.301729129857	2
2	104	34.086003561746	3
2	122	43.538824286608	4
2	151	55.013486380995	5
2	172	64.616366970454	6
2	201	81.617364172251	7
2	204	85.11080971076	8
2	219	89.317891135706	9
2	220	89.618942237429	8
2	226	90.71549789932	7
2	231	91.726748224498	6
3	16	7.309071664081	6.081064358423
3	21	7.60295916181	5.312191203301
3	30	10.54794813529	9.162331408552
3	35	12.135577526515	5.963413256375
3	39	13.901723925898	5.410849641627
3	50	18.521298140911	4.425152691692
3	69	27.49991471107	13.185606877951
3	75	27.961201107534	8.776702401807
3	85	29.879791456444	9.916171169372
3	97	31.860348282482	9.08194883859
3	107	34.212746150554	10.024648690718
3	112	35.337941195331	10.879782864878
3	127	46.134646430506	20.318515528756
3	132	46.698071375983	18.646619769708
3	137	47.659387130653	18.583139870584
3	144	49.624167113463	19.544652214096
3	149	50.361188161089	18.559610467558
3	156	56.090555332117	22.456858466684
3	167	62.614488859997	26.341402055936
3	177	67.656024722033	27.912895810031
3	183	70.440871313663	25.871807338158
3	188	70.867283989122	12.939569781182
3	195	78.383133228206	18.630432912833
3	209	87.775433724313	21.09891749114
3	214	88.467182234576	7.686300951688
3	222	89.618942237429	3.869738665985
3	228	90.71549789932	71.660501089781
3	233	91.726748224498	61.425019094641
3	242	95.63428907611	61.548285514364
3	249	96.672732998701	2.290573886183
4	16	7.309071664081	6.081064358423
4	30	10.54794813529	9.162331408552
4	35	12.135577526515	5.963413256375
4	39	13.901723925898	5.410849641627
4	69	27.49991471107	13.185606877951
4	228	90.71549789932	71.660501089781
4	233	91.726748224498	61.425019094641
4	242	95.63428907611	61.548285514364
5	21	7.60295916181	5.312191203301
5	50	18.521298140911	4.425152691692
5	75	27.961201107534	8.776702401807
5	85	29.879791456444	9.916171169372
5	97	31.860348282482	9.08194883859
5	107	34.212746150554	10.024648690718
5	112	35.337941195331	10.879782864878
5	127	46.134646430506	20.318515528756
5	132	46.698071375983	18.646619769708
5	137	47.659387130653	18.583139870584
5	144	49.624167113463	19.544652214096
5	149	50.361188161089	18.559610467558
5	156	56.090555332117	22.456858466684
5	167	62.614488859997	26.341402055936
5	177	67.656024722033	27.912895810031
5	183	70.440871313663	25.871807338158
5	188	70.867283989122	12.939569781182
5	195	78.383133228206	18.630432912833
5	209	87.775433724313	21.09891749114
5	214	88.467182234576	7.686300951688
5	222	89.618942237429	3.869738665985
5	249	96.672732998701	2.290573886183

