version 2
run Third-n2-5-20191125-12:37:38-4744
attr configname Third-n2
attr datetime 20191125-12:37:38
attr experiment Third-n2
attr inifile omnetpp.ini
attr iterationvars ""
attr iterationvarsf ""
attr measurement ""
attr network org.omnetpp.queueing.Pizza
attr processid 4744
attr repetition 5
attr replication ""
attr resultdir results_no_transient
attr runnumber 5
attr seedset 5
param **.PS.maxInventoriedPS 2
param **.U1.interArrivalTime exponential(4s)
param **.U2.interArrivalTime exponential(6s)
param **.PS.serviceTimeForInventoryU1 exponential(1.4s)
param **.PS.serviceTimeForInventoryU2 exponential(1.4s)
param **.PS.serviceTimeDirectU1 exponential(1.8s)
param **.PS.serviceTimeDirectU2 exponential(1.8s)
param **.PS.probabilityProducing 0.8
param **.CS.serviceTimeU1 exponential(2.3s)
param **.CS.serviceTimeU2 exponential(2.3s)

vector 0 Pizza.EntryQueueU1 queueLength:vector ETV
attr interpolationmode sample-hold
attr title "queue length, vector"
vector 1 Pizza.CS queueLength:vector ETV
attr interpolationmode sample-hold
attr title "queue length, vector"
vector 2 Pizza.EntryQueueU2 queueLength:vector ETV
attr interpolationmode sample-hold
attr title "queue length, vector"
vector 3 Pizza.sink lifeTime:vector ETV
attr interpolationmode none
attr title "lifetime of arrived jobs, vector"
attr unit s
vector 4 Pizza.sink lifeTimeU2:vector ETV
attr interpolationmode none
attr title "lifetime of arrived jobs, vector"
attr unit s
vector 5 Pizza.sink lifeTimeU1:vector ETV
attr interpolationmode none
attr title "lifetime of arrived jobs, vector"
attr unit s
0	0	0	0
0	5	1.004079910768	1
0	7	1.930391765611	2
0	11	3.738964224312	3
0	13	4.115420356294	4
0	14	5.085741223811	3
0	23	7.676024802913	2
0	29	7.89978038264	3
0	31	9.010920726223	4
0	32	9.014990806969	3
0	37	9.285347587155	2
0	41	9.700294096866	3
0	46	10.613696182537	4
0	47	10.669439534402	3
0	53	12.227785160034	2
0	62	12.998362231253	1
0	67	13.356418996829	0
0	78	14.57762298523	1
0	79	15.668107295413	0
0	119	32.19563468494	1
0	121	35.903230552729	0
0	135	40.371410035002	1
0	137	41.151802771496	2
0	142	46.623362179855	1
0	147	47.123619499608	0
0	156	47.874088126162	1
0	158	48.236088213679	2
0	162	49.726027675057	3
0	172	52.298252028604	4
0	173	52.691966603312	3
0	180	59.083908037201	4
0	181	60.170444047902	3
0	188	60.522063993497	4
0	191	65.776846494751	3
0	197	67.698544089412	2
0	202	68.091442112744	1
0	207	68.572320606096	0
0	211	71.007832758912	1
0	216	72.260297736672	0
0	222	72.827364565456	1
0	225	74.952967787572	0
0	247	85.326048375683	1
0	248	86.514703587251	0
0	256	87.26024622124	1
0	258	87.403407856352	2
0	260	87.587535927187	1
0	267	89.261165183701	2
0	269	89.732295701867	3
0	271	91.515475035323	4
0	272	92.10478520669	3
0	278	94.118424688589	4
0	280	95.71895475665	3
0	286	97.010689715401	4
0	287	99.426147304767	3
0	293	99.869918168676	4
1	0	0	0
2	0	0	0
2	60	12.61578498944	1
2	72	13.772851894711	0
2	117	32.192489134416	1
2	126	35.908328894256	0
2	133	38.79123139005	1
2	139	41.845642461147	2
2	141	44.352633778314	3
2	152	47.191570027281	2
2	160	49.096618291995	3
2	164	49.805630180524	4
2	166	51.541691808611	5
2	168	51.927077166664	6
2	215	72.027017578117	7
2	231	81.156141560066	6
2	238	81.538050122587	7
2	240	84.086195950719	8
2	241	84.992643229891	7
2	254	86.696082932914	8
3	16	5.085741223811	4.745175382083
3	25	7.676024802913	6.671944892145
3	34	9.014990806969	7.084599041358
3	39	9.285347587155	5.546383362843
3	49	10.669439534402	6.554019178108
3	55	12.227785160034	4.328004777394
3	64	12.998362231253	3.98744150503
3	69	13.356418996829	3.656124899963
3	74	13.772851894711	3.159155712174
3	81	15.668107295413	3.052322305973
3	85	15.895547908791	1.317924923561
3	93	25.895066306808	2.767938786159
3	102	27.024560952937	0.003780095928
3	109	29.824352566856	2.348489601957
3	123	35.903230552729	3.730602145826
3	128	35.908328894256	3.712694209316
3	144	46.623362179855	14.430873045439
3	149	47.123619499608	6.752209464606
3	154	47.191570027281	6.039767255785
3	175	52.691966603312	13.900735213262
3	183	60.170444047902	12.29635592174
3	193	65.776846494751	17.540758281072
3	199	67.698544089412	17.972516414355
3	204	68.091442112744	15.79319008414
3	209	68.572320606096	9.488412568895
3	218	72.260297736672	11.738233743175
3	227	74.952967787572	3.94513502866
3	233	81.156141560066	8.32877699461
3	243	84.992643229891	43.147000768744
3	250	86.514703587251	42.162069808937
3	262	87.587535927187	2.261487551504
3	274	92.10478520669	4.84453898545
3	282	95.71895475665	8.315546900298
3	289	99.426147304767	10.164982121066
4	16	5.085741223811	4.745175382083
4	81	15.668107295413	3.052322305973
4	93	25.895066306808	2.767938786159
4	102	27.024560952937	0.003780095928
4	144	46.623362179855	14.430873045439
4	175	52.691966603312	13.900735213262
4	243	84.992643229891	43.147000768744
4	250	86.514703587251	42.162069808937
5	25	7.676024802913	6.671944892145
5	34	9.014990806969	7.084599041358
5	39	9.285347587155	5.546383362843
5	49	10.669439534402	6.554019178108
5	55	12.227785160034	4.328004777394
5	64	12.998362231253	3.98744150503
5	69	13.356418996829	3.656124899963
5	74	13.772851894711	3.159155712174
5	85	15.895547908791	1.317924923561
5	109	29.824352566856	2.348489601957
5	123	35.903230552729	3.730602145826
5	128	35.908328894256	3.712694209316
5	149	47.123619499608	6.752209464606
5	154	47.191570027281	6.039767255785
5	183	60.170444047902	12.29635592174
5	193	65.776846494751	17.540758281072
5	199	67.698544089412	17.972516414355
5	204	68.091442112744	15.79319008414
5	209	68.572320606096	9.488412568895
5	218	72.260297736672	11.738233743175
5	227	74.952967787572	3.94513502866
5	233	81.156141560066	8.32877699461
5	262	87.587535927187	2.261487551504
5	274	92.10478520669	4.84453898545
5	282	95.71895475665	8.315546900298
5	289	99.426147304767	10.164982121066

