version 2
run Third-n3-14-20191125-12:37:55-2652
attr configname Third-n3
attr datetime 20191125-12:37:55
attr experiment Third-n3
attr inifile omnetpp.ini
attr iterationvars ""
attr iterationvarsf ""
attr measurement ""
attr network org.omnetpp.queueing.Pizza
attr processid 2652
attr repetition 14
attr replication ""
attr resultdir results_no_transient
attr runnumber 14
attr seedset 14
param **.PS.maxInventoriedPS 3
param **.U1.interArrivalTime exponential(4s)
param **.U2.interArrivalTime exponential(6s)
param **.PS.serviceTimeForInventoryU1 exponential(1.4s)
param **.PS.serviceTimeForInventoryU2 exponential(1.4s)
param **.PS.serviceTimeDirectU1 exponential(1.8s)
param **.PS.serviceTimeDirectU2 exponential(1.8s)
param **.PS.probabilityProducing 0.8
param **.CS.serviceTimeU1 exponential(2.3s)
param **.CS.serviceTimeU2 exponential(2.3s)

vector 0 Pizza.EntryQueueU1 queueLength:vector ETV
attr interpolationmode sample-hold
attr title "queue length, vector"
vector 1 Pizza.CS queueLength:vector ETV
attr interpolationmode sample-hold
attr title "queue length, vector"
vector 2 Pizza.EntryQueueU2 queueLength:vector ETV
attr interpolationmode sample-hold
attr title "queue length, vector"
vector 3 Pizza.sink lifeTime:vector ETV
attr interpolationmode none
attr title "lifetime of arrived jobs, vector"
attr unit s
vector 4 Pizza.sink lifeTimeU1:vector ETV
attr interpolationmode none
attr title "lifetime of arrived jobs, vector"
attr unit s
vector 5 Pizza.sink lifeTimeU2:vector ETV
attr interpolationmode none
attr title "lifetime of arrived jobs, vector"
attr unit s
0	0	0	0
0	26	12.921474105548	1
0	28	13.601412545419	0
0	57	26.485718360927	1
0	58	26.609717122718	0
0	65	27.912943768699	1
0	67	30.969911734346	2
0	73	32.161339376159	3
0	74	32.418077999541	2
0	80	32.661879770999	3
0	82	32.880153583034	2
0	89	37.731872761968	3
0	91	37.840553741572	4
0	98	42.226232286614	3
0	104	43.331131519454	4
0	106	43.67090155835	5
0	108	45.346825502493	4
0	114	45.767327349835	5
0	115	46.730805800052	4
0	120	47.727368931836	3
0	128	51.614515830877	2
0	133	54.236467553481	1
0	140	55.661357483554	0
0	153	62.162804077345	1
0	154	62.277737245097	0
0	160	63.099021479511	1
0	164	64.231900757097	2
0	168	64.69827492442	3
0	169	65.153759528127	2
0	176	67.489468804179	3
0	178	68.169622129304	2
0	183	68.543882839501	1
0	189	70.664846567375	0
0	195	71.369749309484	1
0	197	71.746541115974	2
0	198	72.040618504024	1
0	205	73.988512223104	2
0	206	74.205493698569	1
0	213	75.295788759441	2
0	219	78.758665492736	3
0	220	79.021698804697	2
0	228	80.468134941117	1
0	233	80.607003080977	0
0	244	84.638245564399	1
0	246	86.135095476757	2
0	248	86.445471417748	3
0	253	88.307339454358	2
0	259	88.486020512351	3
0	260	88.958506804309	2
0	268	91.662458106819	3
0	271	95.826113539882	2
0	277	98.298492874649	1
0	283	99.761024703403	0
1	0	0	0
2	0	0	0
2	50	18.932869284722	1
2	51	25.95939021543	0
2	69	31.19729068612	1
2	71	31.806814692964	2
2	93	39.053722245177	3
2	95	39.123514352543	4
2	97	39.509785863216	5
2	139	54.318147829441	6
2	149	60.812390017972	7
2	151	61.665073800537	8
2	162	63.164215281693	9
2	166	64.359397701826	10
2	217	78.673655161814	11
2	227	80.118642260429	12
2	239	80.638981985053	13
2	240	80.690685467667	12
2	266	90.639635353589	13
3	7	4.841322362366	1.955602056708
3	17	9.701079122962	0.881228344075
3	30	13.601412545419	3.777477304531
3	34	14.16980815772	1.248334052172
3	43	16.376317938107	1.078230682116
3	53	25.95939021543	8.568156009277
3	60	26.609717122718	7.676847837996
3	76	32.418077999541	5.932359638614
3	84	32.880153583034	4.967209814335
3	100	42.226232286614	11.256320552268
3	110	45.346825502493	13.185486126334
3	117	46.730805800052	14.068926029053
3	122	47.727368931836	9.995496169868
3	130	51.614515830877	13.773962089305
3	135	54.236467553481	10.905336034027
3	142	55.661357483554	11.990455925204
3	156	62.277737245097	16.510409895262
3	171	65.153759528127	2.990955450782
3	180	68.169622129304	5.070600649793
3	185	68.543882839501	4.311982082404
3	191	70.664846567375	5.966571642955
3	200	72.040618504024	4.551149699845
3	208	74.205493698569	2.835744389085
3	222	79.021698804697	7.275157688723
3	230	80.468134941117	6.479622718013
3	235	80.607003080977	5.311214321536
3	242	80.690685467667	1.932019974931
3	255	88.307339454358	57.110048768238
3	262	88.958506804309	4.32026123991
3	273	95.826113539882	9.691018063125
3	279	98.298492874649	11.853021456901
3	285	99.761024703403	11.275004191052
4	7	4.841322362366	1.955602056708
4	17	9.701079122962	0.881228344075
4	30	13.601412545419	3.777477304531
4	34	14.16980815772	1.248334052172
4	76	32.418077999541	5.932359638614
4	84	32.880153583034	4.967209814335
4	100	42.226232286614	11.256320552268
4	110	45.346825502493	13.185486126334
4	117	46.730805800052	14.068926029053
4	122	47.727368931836	9.995496169868
4	130	51.614515830877	13.773962089305
4	135	54.236467553481	10.905336034027
4	142	55.661357483554	11.990455925204
4	156	62.277737245097	16.510409895262
4	171	65.153759528127	2.990955450782
4	180	68.169622129304	5.070600649793
4	185	68.543882839501	4.311982082404
4	191	70.664846567375	5.966571642955
4	200	72.040618504024	4.551149699845
4	208	74.205493698569	2.835744389085
4	222	79.021698804697	7.275157688723
4	230	80.468134941117	6.479622718013
4	235	80.607003080977	5.311214321536
4	242	80.690685467667	1.932019974931
4	262	88.958506804309	4.32026123991
4	273	95.826113539882	9.691018063125
4	279	98.298492874649	11.853021456901
4	285	99.761024703403	11.275004191052
5	43	16.376317938107	1.078230682116
5	53	25.95939021543	8.568156009277
5	60	26.609717122718	7.676847837996
5	255	88.307339454358	57.110048768238

