version 2
run Third-n4-10-20191125-12:37:56-4708
attr configname Third-n4
attr datetime 20191125-12:37:56
attr experiment Third-n4
attr inifile omnetpp.ini
attr iterationvars ""
attr iterationvarsf ""
attr measurement ""
attr network org.omnetpp.queueing.Pizza
attr processid 4708
attr repetition 10
attr replication ""
attr resultdir results_no_transient
attr runnumber 10
attr seedset 10
param **.PS.maxInventoriedPS 4
param **.U1.interArrivalTime exponential(4s)
param **.U2.interArrivalTime exponential(6s)
param **.PS.serviceTimeForInventoryU1 exponential(1.4s)
param **.PS.serviceTimeForInventoryU2 exponential(1.4s)
param **.PS.serviceTimeDirectU1 exponential(1.8s)
param **.PS.serviceTimeDirectU2 exponential(1.8s)
param **.PS.probabilityProducing 0.8
param **.CS.serviceTimeU1 exponential(2.3s)
param **.CS.serviceTimeU2 exponential(2.3s)

vector 0 Pizza.EntryQueueU1 queueLength:vector ETV
attr interpolationmode sample-hold
attr title "queue length, vector"
vector 1 Pizza.CS queueLength:vector ETV
attr interpolationmode sample-hold
attr title "queue length, vector"
vector 2 Pizza.EntryQueueU2 queueLength:vector ETV
attr interpolationmode sample-hold
attr title "queue length, vector"
vector 3 Pizza.sink lifeTime:vector ETV
attr interpolationmode none
attr title "lifetime of arrived jobs, vector"
attr unit s
vector 4 Pizza.sink lifeTimeU2:vector ETV
attr interpolationmode none
attr title "lifetime of arrived jobs, vector"
attr unit s
vector 5 Pizza.sink lifeTimeU1:vector ETV
attr interpolationmode none
attr title "lifetime of arrived jobs, vector"
attr unit s
0	0	0	0
0	10	5.901737779903	1
0	14	6.920257362895	2
0	15	7.459240497746	1
0	20	7.671962811305	0
0	26	8.154878635698	1
0	31	10.320271663308	0
0	57	20.418926283357	1
0	59	21.225586971382	2
0	60	21.876954622972	1
0	65	22.133130077967	0
0	72	23.557976540193	1
0	73	23.788612722226	0
0	79	23.790375594427	1
0	81	23.837807843324	2
0	84	26.787434427521	3
0	87	27.551185027188	2
0	94	28.400597855251	3
0	96	28.491240732363	2
0	101	28.601713383155	1
0	107	28.884680573088	2
0	108	28.900843253253	1
0	113	29.244482001419	0
0	123	32.057312262112	1
0	126	33.461002363723	2
0	127	33.715369949247	1
0	132	34.13015791171	0
0	181	50.307232731063	1
0	183	50.602445273439	0
0	202	54.622058988013	1
0	210	58.120898818922	2
0	211	60.052701536195	1
0	218	61.046895386678	0
0	228	63.883741944683	1
0	229	64.999941679652	0
0	235	65.10015682798	1
0	237	65.203068532308	2
0	239	65.359946786276	3
0	241	66.623846701977	2
0	248	66.804185318585	3
0	249	68.499477226231	2
0	258	70.138487261733	3
0	260	70.404119538139	4
0	263	71.665815303706	3
0	270	72.368534730589	4
0	272	78.895060160398	3
0	278	79.776249287043	2
0	283	80.000393920386	1
0	288	80.162605651914	0
0	310	87.471643603532	1
0	314	87.90814095597	2
0	315	89.414946886736	1
0	321	90.780640386233	2
0	324	91.474216405169	3
0	325	91.493054246986	2
0	331	91.681401347473	3
0	334	92.138843946029	4
0	336	92.927299117203	5
0	340	95.6937380452	6
0	341	95.768079184785	5
0	347	96.335914342363	4
0	352	96.595892212597	3
0	358	96.836298551702	4
0	359	97.222056755827	3
0	366	99.374191519058	4
1	0	0	0
2	0	0	0
2	5	2.255262173034	1
2	28	8.280229921312	2
2	38	12.500917117299	1
2	43	14.291342211524	0
2	86	27.507001726929	1
2	119	29.814240016263	2
2	138	34.937629289758	1
2	143	35.314542165187	0
2	150	40.516622328388	1
2	152	43.159294358462	2
2	153	43.891565802782	1
2	159	46.149776981591	0
2	165	46.815490462512	1
2	166	48.486524717332	0
2	197	54.300102495442	1
2	198	54.412398712993	0
2	204	55.030727756976	1
2	208	55.295049486063	2
2	217	60.173640386752	3
2	226	63.416291152032	4
2	255	68.985350071332	5
2	262	71.063983542391	6
2	296	82.3056925122	5
2	301	82.392632313316	4
2	306	86.372886186171	3
2	338	94.191928411619	4
3	17	7.459240497746	5.329800090463
3	22	7.671962811305	1.770225031402
3	33	10.320271663308	3.400014300413
3	40	12.500917117299	4.346038481601
3	45	14.291342211524	12.03608003849
3	50	17.77604041359	9.495810492278
3	62	21.876954622972	3.42015031696
3	67	22.133130077967	1.71420379461
3	75	23.788612722226	2.563025750844
3	89	27.551185027188	3.993208486995
3	98	28.491240732363	4.700865137936
3	103	28.601713383155	4.763905539831
3	110	28.900843253253	2.113408825732
3	115	29.244482001419	0.843884146168
3	129	33.715369949247	4.830689376159
3	134	34.13015791171	2.072845649598
3	140	34.937629289758	1.476626926035
3	145	35.314542165187	7.807540438258
3	155	43.891565802782	14.077325786519
3	161	46.149776981591	5.633154653203
3	168	48.486524717332	5.32723035887
3	173	49.41757329587	2.602082833358
3	185	50.602445273439	0.83836243915
3	190	51.124451185783	0.81721845472
3	200	54.412398712993	3.008302183825
3	213	60.052701536195	5.752599040753
3	220	61.046895386678	6.424836398665
3	231	64.999941679652	6.87904286073
3	243	66.623846701977	2.740104757294
3	251	68.499477226231	3.399320398251
3	265	71.665815303706	6.462746771398
3	274	78.895060160398	13.535113374122
3	280	79.776249287043	12.972063968458
3	285	80.000393920386	9.861906658653
3	290	80.162605651914	9.758486113775
3	298	82.3056925122	9.937157781611
3	303	82.392632313316	27.36190455634
3	308	86.372886186171	31.077836700108
3	317	89.414946886736	29.241306499984
3	327	91.493054246986	4.021410643454
3	343	95.768079184785	7.859938228815
3	349	96.335914342363	5.55527395613
3	354	96.595892212597	5.121675807428
3	361	97.222056755827	5.540655408354
4	17	7.459240497746	5.329800090463
4	45	14.291342211524	12.03608003849
4	50	17.77604041359	9.495810492278
4	62	21.876954622972	3.42015031696
4	145	35.314542165187	7.807540438258
4	155	43.891565802782	14.077325786519
4	161	46.149776981591	5.633154653203
4	168	48.486524717332	5.32723035887
4	173	49.41757329587	2.602082833358
4	200	54.412398712993	3.008302183825
4	213	60.052701536195	5.752599040753
4	303	82.392632313316	27.36190455634
4	308	86.372886186171	31.077836700108
4	317	89.414946886736	29.241306499984
5	22	7.671962811305	1.770225031402
5	33	10.320271663308	3.400014300413
5	40	12.500917117299	4.346038481601
5	67	22.133130077967	1.71420379461
5	75	23.788612722226	2.563025750844
5	89	27.551185027188	3.993208486995
5	98	28.491240732363	4.700865137936
5	103	28.601713383155	4.763905539831
5	110	28.900843253253	2.113408825732
5	115	29.244482001419	0.843884146168
5	129	33.715369949247	4.830689376159
5	134	34.13015791171	2.072845649598
5	140	34.937629289758	1.476626926035
5	185	50.602445273439	0.83836243915
5	190	51.124451185783	0.81721845472
5	220	61.046895386678	6.424836398665
5	231	64.999941679652	6.87904286073
5	243	66.623846701977	2.740104757294
5	251	68.499477226231	3.399320398251
5	265	71.665815303706	6.462746771398
5	274	78.895060160398	13.535113374122
5	280	79.776249287043	12.972063968458
5	285	80.000393920386	9.861906658653
5	290	80.162605651914	9.758486113775
5	298	82.3056925122	9.937157781611
5	327	91.493054246986	4.021410643454
5	343	95.768079184785	7.859938228815
5	349	96.335914342363	5.55527395613
5	354	96.595892212597	5.121675807428
5	361	97.222056755827	5.540655408354

