version 2
run Third-n2-8-20191125-12:37:40-8924
attr configname Third-n2
attr datetime 20191125-12:37:40
attr experiment Third-n2
attr inifile omnetpp.ini
attr iterationvars ""
attr iterationvarsf ""
attr measurement ""
attr network org.omnetpp.queueing.Pizza
attr processid 8924
attr repetition 8
attr replication ""
attr resultdir results_no_transient
attr runnumber 8
attr seedset 8
param **.PS.maxInventoriedPS 2
param **.U1.interArrivalTime exponential(4s)
param **.U2.interArrivalTime exponential(6s)
param **.PS.serviceTimeForInventoryU1 exponential(1.4s)
param **.PS.serviceTimeForInventoryU2 exponential(1.4s)
param **.PS.serviceTimeDirectU1 exponential(1.8s)
param **.PS.serviceTimeDirectU2 exponential(1.8s)
param **.PS.probabilityProducing 0.8
param **.CS.serviceTimeU1 exponential(2.3s)
param **.CS.serviceTimeU2 exponential(2.3s)

vector 0 Pizza.EntryQueueU1 queueLength:vector ETV
attr interpolationmode sample-hold
attr title "queue length, vector"
vector 1 Pizza.CS queueLength:vector ETV
attr interpolationmode sample-hold
attr title "queue length, vector"
vector 2 Pizza.EntryQueueU2 queueLength:vector ETV
attr interpolationmode sample-hold
attr title "queue length, vector"
vector 3 Pizza.sink lifeTime:vector ETV
attr interpolationmode none
attr title "lifetime of arrived jobs, vector"
attr unit s
vector 4 Pizza.sink lifeTimeU2:vector ETV
attr interpolationmode none
attr title "lifetime of arrived jobs, vector"
attr unit s
vector 5 Pizza.sink lifeTimeU1:vector ETV
attr interpolationmode none
attr title "lifetime of arrived jobs, vector"
attr unit s
0	0	0	0
0	19	10.326829234263	1
0	20	12.997580096958	0
0	51	27.853530515993	1
0	53	28.074781389273	2
0	57	29.062483142667	3
0	59	29.334777997396	4
0	61	30.716827713194	5
0	64	31.268107473971	4
0	71	32.162349596371	3
0	77	33.312977533941	2
0	84	35.887927898277	1
0	90	36.625841042252	0
0	126	47.269303240636	1
0	127	47.326231866669	0
0	144	54.646368070965	1
0	147	54.805126522611	2
0	149	55.636576022023	1
0	156	56.299722777555	0
0	163	56.68006913853	1
0	165	57.103230667354	2
0	170	59.436977550143	3
0	171	60.598161066962	2
0	176	62.191184836237	1
0	182	63.377749914618	2
0	184	64.439455304225	1
0	195	65.774237417221	0
0	202	67.716382896413	1
0	205	69.290777975273	0
0	243	79.156307625742	1
0	244	79.347378048917	0
0	265	87.203788533525	1
0	271	90.204554001002	2
0	276	94.854430783359	1
0	284	95.345045579695	2
0	285	96.026863909223	1
0	291	96.700846514364	2
0	293	98.823909492342	3
0	296	99.806302836866	2
1	0	0	0
2	0	0	0
2	34	20.821417105865	1
2	36	24.687342912484	0
2	49	26.621903846238	1
2	55	29.058662227162	2
2	63	30.924179222287	3
2	96	37.695889230722	4
2	98	39.107919951049	3
2	103	39.472496500197	2
2	108	39.750392335439	1
2	113	44.031113204165	0
2	142	54.457921277288	1
2	155	56.274751792746	2
2	167	57.729610672768	3
2	192	65.611408921651	4
2	194	65.768948928045	5
2	204	69.192574973708	6
2	211	72.439659140397	5
2	218	73.718949789066	6
2	219	75.598262195586	5
2	225	77.632895894183	4
2	230	77.709043821612	3
2	236	77.824943272146	4
2	237	77.968863312498	3
2	251	80.812976150783	2
2	256	81.449028612464	1
2	261	87.063705760829	0
2	269	88.458860942585	1
2	273	90.308839763144	2
2	275	93.707641937068	3
2	282	94.889259461635	4
2	303	99.84636092021	5
3	10	2.300462636808	2.233402647177
3	22	12.997580096958	4.729759894354
3	27	14.800589009661	4.473759775398
3	38	24.687342912484	3.921985477552
3	42	25.688115338182	4.866698232317
3	66	31.268107473971	4.7793304802
3	73	32.162349596371	4.308819080378
3	79	33.312977533941	5.238196144668
3	86	35.887927898277	6.82544475561
3	92	36.625841042252	7.291063044856
3	100	39.107919951049	8.391092237855
3	105	39.472496500197	12.850592653959
3	110	39.750392335439	10.691730108277
3	115	44.031113204165	13.106933981878
3	119	45.650532541665	7.954643310943
3	129	47.326231866669	0.341581510813
3	134	47.403267517938	0.133964277302
3	151	55.636576022023	2.017065018707
3	158	56.299722777555	1.65335470659
3	173	60.598161066962	5.793034544351
3	178	62.191184836237	5.511115697707
3	186	64.439455304225	7.336224636871
3	197	65.774237417221	6.337259867078
3	207	69.290777975273	5.913028060655
3	213	72.439659140397	4.723276243984
3	221	75.598262195586	21.140340918298
3	227	77.632895894183	21.358144101437
3	232	77.709043821612	19.979433148844
3	239	77.968863312498	12.357454390847
3	246	79.347378048917	13.578429120872
3	253	80.812976150783	1.656668525041
3	258	81.449028612464	12.256453638756
3	263	87.063705760829	13.344755971763
3	278	94.854430783359	17.029487511213
3	287	96.026863909223	8.823075375698
3	298	99.806302836866	9.601748835864
4	10	2.300462636808	2.233402647177
4	42	25.688115338182	4.866698232317
4	105	39.472496500197	12.850592653959
4	110	39.750392335439	10.691730108277
4	115	44.031113204165	13.106933981878
4	119	45.650532541665	7.954643310943
4	221	75.598262195586	21.140340918298
4	227	77.632895894183	21.358144101437
4	232	77.709043821612	19.979433148844
4	239	77.968863312498	12.357454390847
4	246	79.347378048917	13.578429120872
4	258	81.449028612464	12.256453638756
4	263	87.063705760829	13.344755971763
4	278	94.854430783359	17.029487511213
5	22	12.997580096958	4.729759894354
5	27	14.800589009661	4.473759775398
5	38	24.687342912484	3.921985477552
5	66	31.268107473971	4.7793304802
5	73	32.162349596371	4.308819080378
5	79	33.312977533941	5.238196144668
5	86	35.887927898277	6.82544475561
5	92	36.625841042252	7.291063044856
5	100	39.107919951049	8.391092237855
5	129	47.326231866669	0.341581510813
5	134	47.403267517938	0.133964277302
5	151	55.636576022023	2.017065018707
5	158	56.299722777555	1.65335470659
5	173	60.598161066962	5.793034544351
5	178	62.191184836237	5.511115697707
5	186	64.439455304225	7.336224636871
5	197	65.774237417221	6.337259867078
5	207	69.290777975273	5.913028060655
5	213	72.439659140397	4.723276243984
5	253	80.812976150783	1.656668525041
5	287	96.026863909223	8.823075375698
5	298	99.806302836866	9.601748835864

