version 2
run Third-n5-12-20191125-12:38:09-6460
attr configname Third-n5
attr datetime 20191125-12:38:09
attr experiment Third-n5
attr inifile omnetpp.ini
attr iterationvars ""
attr iterationvarsf ""
attr measurement ""
attr network org.omnetpp.queueing.Pizza
attr processid 6460
attr repetition 12
attr replication ""
attr resultdir results_no_transient
attr runnumber 12
attr seedset 12
param **.PS.maxInventoriedPS 5
param **.U1.interArrivalTime exponential(4s)
param **.U2.interArrivalTime exponential(6s)
param **.PS.serviceTimeForInventoryU1 exponential(1.4s)
param **.PS.serviceTimeForInventoryU2 exponential(1.4s)
param **.PS.serviceTimeDirectU1 exponential(1.8s)
param **.PS.serviceTimeDirectU2 exponential(1.8s)
param **.PS.probabilityProducing 0.8
param **.CS.serviceTimeU1 exponential(2.3s)
param **.CS.serviceTimeU2 exponential(2.3s)

vector 0 Pizza.EntryQueueU1 queueLength:vector ETV
attr interpolationmode sample-hold
attr title "queue length, vector"
vector 1 Pizza.CS queueLength:vector ETV
attr interpolationmode sample-hold
attr title "queue length, vector"
vector 2 Pizza.EntryQueueU2 queueLength:vector ETV
attr interpolationmode sample-hold
attr title "queue length, vector"
vector 3 Pizza.sink lifeTime:vector ETV
attr interpolationmode none
attr title "lifetime of arrived jobs, vector"
attr unit s
vector 4 Pizza.sink lifeTimeU1:vector ETV
attr interpolationmode none
attr title "lifetime of arrived jobs, vector"
attr unit s
vector 5 Pizza.sink lifeTimeU2:vector ETV
attr interpolationmode none
attr title "lifetime of arrived jobs, vector"
attr unit s
0	0	0	0
0	16	6.058772836419	1
0	17	7.347231324444	0
0	23	7.459481980149	1
0	28	12.637321568175	2
0	29	14.581599610948	1
0	39	20.18568855005	0
0	52	24.183049439894	1
0	54	24.267166934598	2
0	55	25.452093816477	1
0	60	25.736390177025	0
0	81	30.730306669573	1
0	83	31.448574610622	2
0	86	32.398546921905	1
0	93	33.036000510858	2
0	95	33.795039616529	3
0	100	34.651892567762	2
0	106	35.911613518807	1
0	114	39.630080968699	2
0	116	41.08105079218	3
0	119	43.254792277179	4
0	123	45.461746971425	5
0	125	47.949884801084	6
0	127	48.033032451939	7
0	128	48.162188860326	6
0	136	49.90488342924	7
0	137	50.107339638448	6
0	143	51.130455332707	7
0	144	52.432986894933	6
0	151	53.253898100966	5
0	157	54.95763412593	4
0	163	55.072193843803	3
0	168	55.777473976539	2
0	174	56.306942632966	3
0	175	56.523842809044	2
0	181	58.084913244922	1
0	186	58.95099985407	0
0	210	65.931560920363	1
0	215	69.066603057065	2
0	216	69.249704810589	1
0	221	69.29142563478	0
0	230	73.444177084386	1
0	231	75.825921926666	0
0	265	83.769708065804	1
0	267	83.782881589935	2
0	268	83.874708362781	1
0	278	88.541505138984	2
0	279	89.680002592156	1
0	284	91.763116570217	0
0	305	98.394866474586	1
0	306	98.403795108685	0
1	0	0	0
2	0	0	0
2	5	3.545945608248	1
2	9	5.379515078339	2
2	12	5.467608403752	3
2	14	5.674934520679	4
2	38	19.533490513518	5
2	46	23.547360067983	4
2	67	28.528177052993	3
2	72	29.722221577269	2
2	77	30.127854187212	1
2	97	33.80169908848	2
2	99	34.5796442893	3
2	121	45.037777329587	4
2	193	60.90117726992	5
2	194	61.09193252812	4
2	201	62.494498925268	5
2	202	62.59617034702	4
2	213	67.312103994918	5
2	236	76.923366551195	4
2	242	77.808619644367	3
2	247	77.980495256813	2
2	253	79.178348682512	1
2	259	83.654710159696	0
2	276	85.851190263591	1
2	290	92.030066159598	2
2	291	92.382764782418	1
2	297	94.204356747482	0
2	303	97.522101142234	1
2	312	98.821154504123	2
2	313	99.493803112235	1
3	19	7.347231324444	6.677517636111
3	31	14.581599610948	8.522826774529
3	41	20.18568855005	12.726206569901
3	48	23.547360067983	10.910038499808
3	57	25.452093816477	21.906148208229
3	62	25.736390177025	1.553340737131
3	69	28.528177052993	4.261010118395
3	74	29.722221577269	24.34270649893
3	79	30.127854187212	24.66024578346
3	88	32.398546921905	26.723612401226
3	102	34.651892567762	3.921585898189
3	108	35.911613518807	4.463038908185
3	130	48.162188860326	15.126188349468
3	139	50.107339638448	16.312300021919
3	146	52.432986894933	12.802905926234
3	153	53.253898100966	12.172847308786
3	159	54.95763412593	11.702841848751
3	165	55.072193843803	9.610446872378
3	170	55.777473976539	7.827589175455
3	177	56.523842809044	8.490810357105
3	183	58.084913244922	8.180029815682
3	188	58.95099985407	7.820544521363
3	196	61.09193252812	4.784989895154
3	204	62.59617034702	43.062679833502
3	218	69.249704810589	35.448005722109
3	223	69.29142563478	3.359864714417
3	233	75.825921926666	6.759318869601
3	238	76.923366551195	3.479189466809
3	244	77.808619644367	43.228975355067
3	249	77.980495256813	32.942717927226
3	255	79.178348682512	18.277171412592
3	261	83.654710159696	21.160211234428
3	270	83.874708362781	16.562604367863
3	281	89.680002592156	5.910294526352
3	286	91.763116570217	7.980234980282
3	293	92.382764782418	3.841259643434
3	299	94.204356747482	8.353166483891
3	308	98.403795108685	6.373728949087
3	315	99.493803112235	1.098936637649
4	19	7.347231324444	6.677517636111
4	31	14.581599610948	8.522826774529
4	41	20.18568855005	12.726206569901
4	48	23.547360067983	10.910038499808
4	62	25.736390177025	1.553340737131
4	69	28.528177052993	4.261010118395
4	102	34.651892567762	3.921585898189
4	108	35.911613518807	4.463038908185
4	130	48.162188860326	15.126188349468
4	139	50.107339638448	16.312300021919
4	146	52.432986894933	12.802905926234
4	153	53.253898100966	12.172847308786
4	159	54.95763412593	11.702841848751
4	165	55.072193843803	9.610446872378
4	170	55.777473976539	7.827589175455
4	177	56.523842809044	8.490810357105
4	183	58.084913244922	8.180029815682
4	188	58.95099985407	7.820544521363
4	196	61.09193252812	4.784989895154
4	223	69.29142563478	3.359864714417
4	233	75.825921926666	6.759318869601
4	238	76.923366551195	3.479189466809
4	281	89.680002592156	5.910294526352
4	286	91.763116570217	7.980234980282
4	293	92.382764782418	3.841259643434
4	315	99.493803112235	1.098936637649
5	57	25.452093816477	21.906148208229
5	74	29.722221577269	24.34270649893
5	79	30.127854187212	24.66024578346
5	88	32.398546921905	26.723612401226
5	204	62.59617034702	43.062679833502
5	218	69.249704810589	35.448005722109
5	244	77.808619644367	43.228975355067
5	249	77.980495256813	32.942717927226
5	255	79.178348682512	18.277171412592
5	261	83.654710159696	21.160211234428
5	270	83.874708362781	16.562604367863
5	299	94.204356747482	8.353166483891
5	308	98.403795108685	6.373728949087

