version 2
run Third-n5-13-20191125-12:38:10-9248
attr configname Third-n5
attr datetime 20191125-12:38:10
attr experiment Third-n5
attr inifile omnetpp.ini
attr iterationvars ""
attr iterationvarsf ""
attr measurement ""
attr network org.omnetpp.queueing.Pizza
attr processid 9248
attr repetition 13
attr replication ""
attr resultdir results_no_transient
attr runnumber 13
attr seedset 13
param **.PS.maxInventoriedPS 5
param **.U1.interArrivalTime exponential(4s)
param **.U2.interArrivalTime exponential(6s)
param **.PS.serviceTimeForInventoryU1 exponential(1.4s)
param **.PS.serviceTimeForInventoryU2 exponential(1.4s)
param **.PS.serviceTimeDirectU1 exponential(1.8s)
param **.PS.serviceTimeDirectU2 exponential(1.8s)
param **.PS.probabilityProducing 0.8
param **.CS.serviceTimeU1 exponential(2.3s)
param **.CS.serviceTimeU2 exponential(2.3s)

vector 0 Pizza.EntryQueueU1 queueLength:vector ETV
attr interpolationmode sample-hold
attr title "queue length, vector"
vector 1 Pizza.CS queueLength:vector ETV
attr interpolationmode sample-hold
attr title "queue length, vector"
vector 2 Pizza.EntryQueueU2 queueLength:vector ETV
attr interpolationmode sample-hold
attr title "queue length, vector"
vector 3 Pizza.sink lifeTime:vector ETV
attr interpolationmode none
attr title "lifetime of arrived jobs, vector"
attr unit s
vector 4 Pizza.sink lifeTimeU2:vector ETV
attr interpolationmode none
attr title "lifetime of arrived jobs, vector"
attr unit s
vector 5 Pizza.sink lifeTimeU1:vector ETV
attr interpolationmode none
attr title "lifetime of arrived jobs, vector"
attr unit s
0	0	0	0
0	5	6.014953201419	1
0	14	12.970373519663	2
0	18	17.414309722575	1
0	25	19.290304524335	2
0	28	22.841530880302	1
0	35	24.38260326292	2
0	36	24.422035019358	1
0	41	25.404292827926	0
0	49	26.746888056051	1
0	51	27.596411389293	0
0	57	27.729973653851	1
0	59	27.859668366973	2
0	60	29.057229764897	1
0	66	31.342947271854	0
0	73	31.776936968447	1
0	80	34.907060869126	0
0	102	38.480127745269	1
0	103	39.927912757901	0
0	122	45.727532286638	1
0	123	45.813879360141	0
0	132	46.894253501935	1
0	133	47.588020755272	0
0	154	52.814542530291	1
0	157	53.413309279827	0
0	163	53.739184908075	1
0	164	53.863359208637	0
0	191	58.298234870198	1
0	192	58.752707800505	0
0	202	60.781499927591	1
0	205	66.293943385237	2
0	206	68.402612960471	1
0	214	74.024494281998	0
0	237	84.908099108244	1
0	238	86.865991377451	0
0	245	87.323075560165	1
0	246	90.319255375791	0
0	252	90.661526619006	1
0	253	90.763746381173	0
1	0	0	0
2	0	0	0
2	7	7.236128373723	1
2	27	20.644716159109	2
2	75	32.316737685846	3
2	78	33.631883020773	4
2	86	36.410576039397	3
2	91	36.410603727062	2
2	96	37.0630258035	1
2	109	40.042511949088	2
2	111	40.673897085903	1
2	116	42.92206761005	0
2	129	45.818298431045	1
2	139	47.85913520856	0
2	145	51.384514558337	1
2	146	51.528674598925	0
2	150	52.275417504316	1
2	156	52.89927448312	2
2	170	53.887013059755	3
2	174	55.61769752292	2
2	180	56.813078768694	1
2	185	56.81978304434	0
2	198	58.935298993727	1
2	200	59.010488658064	2
2	213	71.476898499563	3
2	219	74.094040665086	2
2	223	74.200886184723	3
2	225	77.253973366412	4
2	228	77.894290085443	3
2	232	78.133557534232	4
2	258	91.720340940846	3
2	263	95.979244749236	2
2	272	98.097487157866	3
2	273	98.73772270473	2
2	278	99.234616313367	1
3	20	17.414309722575	11.805422302929
3	30	22.841530880302	16.826577678883
3	38	24.422035019358	11.451661499695
3	43	25.404292827926	6.113988303591
3	53	27.596411389293	3.213808126373
3	62	29.057229764897	2.310341708846
3	68	31.342947271854	3.612973618003
3	82	34.907060869126	7.047392502153
3	88	36.410576039397	4.63363907095
3	93	36.410603727062	29.174475353339
3	98	37.0630258035	16.418309644391
3	105	39.927912757901	7.611175072055
3	113	40.673897085903	2.193769340634
3	118	42.92206761005	9.290184589277
3	125	45.813879360141	5.771367411053
3	135	47.588020755272	1.860488468634
3	141	47.85913520856	0.964881706625
3	148	51.528674598925	5.71037616788
3	159	53.413309279827	2.02879472149
3	166	53.863359208637	1.048816678346
3	176	55.61769752292	1.878512614845
3	182	56.813078768694	4.537661264378
3	187	56.81978304434	3.92050856122
3	194	58.752707800505	4.86569474075
3	208	68.402612960471	10.104378090273
3	216	74.024494281998	13.242994354407
3	221	74.094040665086	7.800097279849
3	230	77.894290085443	18.958991091716
3	240	86.865991377451	27.855502719387
3	248	90.319255375791	5.411156267547
3	255	90.763746381173	3.440670821008
3	260	91.720340940846	1.05881432184
3	265	95.979244749236	24.502346249673
3	275	98.73772270473	24.536836520007
3	280	99.234616313367	21.980642946955
4	20	17.414309722575	11.805422302929
4	93	36.410603727062	29.174475353339
4	98	37.0630258035	16.418309644391
4	105	39.927912757901	7.611175072055
4	118	42.92206761005	9.290184589277
4	125	45.813879360141	5.771367411053
4	148	51.528674598925	5.71037616788
4	159	53.413309279827	2.02879472149
4	182	56.813078768694	4.537661264378
4	187	56.81978304434	3.92050856122
4	194	58.752707800505	4.86569474075
4	230	77.894290085443	18.958991091716
4	240	86.865991377451	27.855502719387
4	265	95.979244749236	24.502346249673
4	275	98.73772270473	24.536836520007
4	280	99.234616313367	21.980642946955
5	30	22.841530880302	16.826577678883
5	38	24.422035019358	11.451661499695
5	43	25.404292827926	6.113988303591
5	53	27.596411389293	3.213808126373
5	62	29.057229764897	2.310341708846
5	68	31.342947271854	3.612973618003
5	82	34.907060869126	7.047392502153
5	88	36.410576039397	4.63363907095
5	113	40.673897085903	2.193769340634
5	135	47.588020755272	1.860488468634
5	141	47.85913520856	0.964881706625
5	166	53.863359208637	1.048816678346
5	176	55.61769752292	1.878512614845
5	208	68.402612960471	10.104378090273
5	216	74.024494281998	13.242994354407
5	221	74.094040665086	7.800097279849
5	248	90.319255375791	5.411156267547
5	255	90.763746381173	3.440670821008
5	260	91.720340940846	1.05881432184

