version 2
run Third-n2-15-20191125-12:37:47-11216
attr configname Third-n2
attr datetime 20191125-12:37:47
attr experiment Third-n2
attr inifile omnetpp.ini
attr iterationvars ""
attr iterationvarsf ""
attr measurement ""
attr network org.omnetpp.queueing.Pizza
attr processid 11216
attr repetition 15
attr replication ""
attr resultdir results_no_transient
attr runnumber 15
attr seedset 15
param **.PS.maxInventoriedPS 2
param **.U1.interArrivalTime exponential(4s)
param **.U2.interArrivalTime exponential(6s)
param **.PS.serviceTimeForInventoryU1 exponential(1.4s)
param **.PS.serviceTimeForInventoryU2 exponential(1.4s)
param **.PS.serviceTimeDirectU1 exponential(1.8s)
param **.PS.serviceTimeDirectU2 exponential(1.8s)
param **.PS.probabilityProducing 0.8
param **.CS.serviceTimeU1 exponential(2.3s)
param **.CS.serviceTimeU2 exponential(2.3s)

vector 0 Pizza.EntryQueueU1 queueLength:vector ETV
attr interpolationmode sample-hold
attr title "queue length, vector"
vector 1 Pizza.CS queueLength:vector ETV
attr interpolationmode sample-hold
attr title "queue length, vector"
vector 2 Pizza.EntryQueueU2 queueLength:vector ETV
attr interpolationmode sample-hold
attr title "queue length, vector"
vector 3 Pizza.sink lifeTime:vector ETV
attr interpolationmode none
attr title "lifetime of arrived jobs, vector"
attr unit s
vector 4 Pizza.sink lifeTimeU1:vector ETV
attr interpolationmode none
attr title "lifetime of arrived jobs, vector"
attr unit s
vector 5 Pizza.sink lifeTimeU2:vector ETV
attr interpolationmode none
attr title "lifetime of arrived jobs, vector"
attr unit s
0	0	0	0
0	5	8.345496996421	1
0	7	8.569083940082	2
0	9	9.039654571862	3
0	17	10.834429848333	4
0	23	15.176464933403	3
0	28	15.252445976091	2
0	36	15.925222711067	3
0	38	18.1620517633	2
0	47	22.286008878645	1
0	53	22.799902733481	0
0	64	23.95638713054	1
0	65	24.083137209899	0
0	74	26.522208716878	1
0	76	27.557381630016	2
0	78	28.021030701127	3
0	85	30.618741690275	4
0	86	31.10448928406	3
0	92	32.039723586281	4
0	97	33.173512613902	3
0	102	34.426313020999	2
0	106	36.421722531494	3
0	109	36.89247599848	2
0	118	38.486699868435	3
0	123	40.339386897221	2
0	128	40.666664504214	1
0	135	41.352117840796	0
0	141	42.042460460683	1
0	142	42.307807591114	0
0	150	43.642973579016	1
0	151	45.653085962045	0
0	175	54.046793708762	1
0	179	55.529703902384	2
0	180	56.809929824417	1
0	191	60.730501528878	2
0	192	62.369395953136	1
0	199	64.372175588528	2
0	200	64.496921893115	1
0	206	65.410406686462	0
0	220	71.317832810339	1
0	221	71.442726786178	0
0	235	75.366465411815	1
0	237	76.814098393815	2
0	239	77.031674494691	3
0	240	77.235763910812	2
0	245	77.598061795245	1
0	251	78.431587417717	2
0	252	78.519212339603	1
0	258	80.295527665772	2
0	259	80.976333541792	1
0	264	82.128647211727	0
0	290	90.388490920156	1
0	291	93.965969825238	0
0	314	99.587942542359	1
0	316	99.946605194863	2
1	0	0	0
2	0	0	0
2	15	10.078533028402	1
2	20	12.257057425381	2
2	22	13.687429468911	3
2	34	15.412714017054	4
2	46	20.215541958621	5
2	58	23.872781539812	4
2	70	24.818566640463	3
2	80	29.1560325751	4
2	96	32.910008644179	5
2	116	38.241793256138	6
2	120	38.731207368122	7
2	157	45.869217231391	8
2	160	46.537111852519	9
2	161	49.262369540278	8
2	166	53.168144219407	7
2	171	53.73168788155	6
2	187	58.748447400547	7
2	189	60.727583000292	8
2	212	65.670237950214	7
2	218	67.650475699914	8
2	227	72.44076225897	7
2	269	85.271449657524	6
2	274	85.538664272098	5
2	279	87.370321598348	4
2	283	87.624344490623	5
2	296	94.521214168612	4
2	302	96.75648568544	3
2	309	98.678994232783	4
2	310	99.354307966772	3
3	25	15.176464933403	7.619389574444
3	30	15.252445976091	6.90694897967
3	40	18.1620517633	9.592967823218
3	49	22.286008878645	13.246354306783
3	55	22.799902733481	11.965472885148
3	60	23.872781539812	7.947558828745
3	67	24.083137209899	14.004604181497
3	72	24.818566640463	0.862179509923
3	88	31.10448928406	18.847431858679
3	99	33.173512613902	6.651303897024
3	104	34.426313020999	6.868931390983
3	111	36.89247599848	8.871445297353
3	125	40.339386897221	9.720645206946
3	130	40.666664504214	8.626940917933
3	137	41.352117840796	4.930395309302
3	144	42.307807591114	3.821107722679
3	153	45.653085962045	3.610625501362
3	163	49.262369540278	5.619395961262
3	168	53.168144219407	39.480714750496
3	173	53.73168788155	38.318973864496
3	182	56.809929824417	36.594387865796
3	194	62.369395953136	8.322602244374
3	202	64.496921893115	8.967217990731
3	208	65.410406686462	4.679905157584
3	214	65.670237950214	1.298062361686
3	223	71.442726786178	42.286694211078
3	229	72.44076225897	1.122929448631
3	242	77.235763910812	44.325755266633
3	247	77.598061795245	2.23159638343
3	254	78.519212339603	1.705113945788
3	261	80.976333541792	3.944659047101
3	266	82.128647211727	3.69705979401
3	271	85.271449657524	4.975921991752
3	276	85.538664272098	47.29687101596
3	281	87.370321598348	48.639114230226
3	293	93.965969825238	48.096752593847
3	298	94.521214168612	4.132723248456
3	304	96.75648568544	50.219373832921
3	312	99.354307966772	40.605860566225
4	25	15.176464933403	7.619389574444
4	30	15.252445976091	6.90694897967
4	40	18.1620517633	9.592967823218
4	49	22.286008878645	13.246354306783
4	55	22.799902733481	11.965472885148
4	60	23.872781539812	7.947558828745
4	72	24.818566640463	0.862179509923
4	99	33.173512613902	6.651303897024
4	104	34.426313020999	6.868931390983
4	111	36.89247599848	8.871445297353
4	125	40.339386897221	9.720645206946
4	130	40.666664504214	8.626940917933
4	137	41.352117840796	4.930395309302
4	144	42.307807591114	3.821107722679
4	153	45.653085962045	3.610625501362
4	163	49.262369540278	5.619395961262
4	194	62.369395953136	8.322602244374
4	202	64.496921893115	8.967217990731
4	208	65.410406686462	4.679905157584
4	214	65.670237950214	1.298062361686
4	229	72.44076225897	1.122929448631
4	247	77.598061795245	2.23159638343
4	254	78.519212339603	1.705113945788
4	261	80.976333541792	3.944659047101
4	266	82.128647211727	3.69705979401
4	271	85.271449657524	4.975921991752
4	298	94.521214168612	4.132723248456
5	67	24.083137209899	14.004604181497
5	88	31.10448928406	18.847431858679
5	168	53.168144219407	39.480714750496
5	173	53.73168788155	38.318973864496
5	182	56.809929824417	36.594387865796
5	223	71.442726786178	42.286694211078
5	242	77.235763910812	44.325755266633
5	276	85.538664272098	47.29687101596
5	281	87.370321598348	48.639114230226
5	293	93.965969825238	48.096752593847
5	304	96.75648568544	50.219373832921
5	312	99.354307966772	40.605860566225

