version 2
run Third-n3-0-20191125-12:37:41-11196
attr configname Third-n3
attr datetime 20191125-12:37:41
attr experiment Third-n3
attr inifile omnetpp.ini
attr iterationvars ""
attr iterationvarsf ""
attr measurement ""
attr network org.omnetpp.queueing.Pizza
attr processid 11196
attr repetition 0
attr replication ""
attr resultdir results_no_transient
attr runnumber 0
attr seedset 0
param **.PS.maxInventoriedPS 3
param **.U1.interArrivalTime exponential(4s)
param **.U2.interArrivalTime exponential(6s)
param **.PS.serviceTimeForInventoryU1 exponential(1.4s)
param **.PS.serviceTimeForInventoryU2 exponential(1.4s)
param **.PS.serviceTimeDirectU1 exponential(1.8s)
param **.PS.serviceTimeDirectU2 exponential(1.8s)
param **.PS.probabilityProducing 0.8
param **.CS.serviceTimeU1 exponential(2.3s)
param **.CS.serviceTimeU2 exponential(2.3s)

vector 0 Pizza.EntryQueueU1 queueLength:vector ETV
attr interpolationmode sample-hold
attr title "queue length, vector"
vector 1 Pizza.CS queueLength:vector ETV
attr interpolationmode sample-hold
attr title "queue length, vector"
vector 2 Pizza.EntryQueueU2 queueLength:vector ETV
attr interpolationmode sample-hold
attr title "queue length, vector"
vector 3 Pizza.sink lifeTime:vector ETV
attr interpolationmode none
attr title "lifetime of arrived jobs, vector"
attr unit s
vector 4 Pizza.sink lifeTimeU1:vector ETV
attr interpolationmode none
attr title "lifetime of arrived jobs, vector"
attr unit s
vector 5 Pizza.sink lifeTimeU2:vector ETV
attr interpolationmode none
attr title "lifetime of arrived jobs, vector"
attr unit s
0	0	0	0
0	10	8.207221050453	1
0	13	10.852402924663	0
0	26	12.359858253108	1
0	32	15.370554706359	2
0	33	15.430707809346	1
0	40	15.665296128219	2
0	44	17.50228867724	3
0	45	17.833316578455	2
0	51	22.526039371721	1
0	57	26.238244143974	0
0	71	30.102968391944	1
0	75	30.721887113944	2
0	79	36.407345834319	3
0	81	36.85513047685	4
0	82	37.078248960354	3
0	88	37.552516509024	2
0	93	38.113828037718	1
0	98	38.157455746881	0
0	107	38.997393357761	1
0	109	40.00316108606	2
0	115	43.841352995533	3
0	117	45.591464452215	2
0	123	46.232337302807	3
0	125	46.650582205908	4
0	127	46.899043367774	5
0	130	48.342512390966	4
0	137	50.791689251634	3
0	144	51.695848133433	2
0	154	59.039625410156	1
0	163	60.899898105592	2
0	165	62.068220238661	3
0	167	64.208478946994	4
0	171	66.720245270959	5
0	173	67.841353304875	6
0	178	71.367856215715	5
0	184	71.748809601158	6
0	187	73.275032974655	7
0	190	73.824422269159	6
0	200	76.322841845179	5
0	206	79.301574307745	6
0	208	84.945614202223	5
0	213	85.077466132998	4
0	227	87.722859510914	5
0	228	88.169230258948	4
0	233	88.459924122726	3
0	240	89.504537358593	4
0	242	89.769726964522	5
0	244	90.747308756849	6
0	246	93.34566967583	5
0	251	94.055023808055	4
0	258	95.46406686511	5
0	261	98.895649429407	6
0	262	99.771863229102	5
0	267	99.793484955629	4
1	0	0	0
2	0	0	0
2	5	5.391362330904	1
2	19	10.930701119729	2
2	20	11.584622048599	1
2	29	13.83231374942	2
2	42	16.825545803515	3
2	63	27.550471784147	4
2	65	28.305718240775	5
2	67	28.850903709908	4
2	77	35.957084454117	5
2	103	38.530369672607	4
2	113	40.384048204652	5
2	129	47.254881932852	6
2	150	53.848356738158	7
2	152	54.494167387094	8
2	161	60.841125867207	9
2	169	66.072620988961	10
2	175	69.935306998576	11
2	177	70.974071735453	12
2	189	73.449079114988	13
2	198	74.762362694032	14
2	219	85.681276209738	15
2	221	85.802416978615	16
2	224	86.042274772965	17
3	15	10.852402924663	7.6689049064
3	22	11.584622048599	3.377400998146
3	35	15.430707809346	10.039345478442
3	47	17.833316578455	5.473458325347
3	53	22.526039371721	7.155484665362
3	59	26.238244143974	10.572948015755
3	69	28.850903709908	11.348615032668
3	84	37.078248960354	26.147547840625
3	90	37.552516509024	7.44954811708
3	95	38.113828037718	7.391940923774
3	100	38.157455746881	1.750109912562
3	105	38.530369672607	1.675239195757
3	119	45.591464452215	31.759150702795
3	132	48.342512390966	9.345119033205
3	139	50.791689251634	10.788528165574
3	146	51.695848133433	7.8544951379
3	156	59.039625410156	12.807288107349
3	180	71.367856215715	24.717274009807
3	192	73.824422269159	26.925378901385
3	202	76.322841845179	15.422943739587
3	210	84.945614202223	22.877393963562
3	215	85.077466132998	20.868987186004
3	230	88.169230258948	21.448984987989
3	235	88.459924122726	20.618570817851
3	248	93.34566967583	21.596860074672
3	253	94.055023808055	20.7799908334
3	264	99.771863229102	20.470288921357
3	269	99.793484955629	12.070625444715
4	15	10.852402924663	7.6689049064
4	22	11.584622048599	3.377400998146
4	47	17.833316578455	5.473458325347
4	53	22.526039371721	7.155484665362
4	59	26.238244143974	10.572948015755
4	69	28.850903709908	11.348615032668
4	90	37.552516509024	7.44954811708
4	95	38.113828037718	7.391940923774
4	100	38.157455746881	1.750109912562
4	105	38.530369672607	1.675239195757
4	132	48.342512390966	9.345119033205
4	139	50.791689251634	10.788528165574
4	146	51.695848133433	7.8544951379
4	156	59.039625410156	12.807288107349
4	180	71.367856215715	24.717274009807
4	192	73.824422269159	26.925378901385
4	202	76.322841845179	15.422943739587
4	210	84.945614202223	22.877393963562
4	215	85.077466132998	20.868987186004
4	230	88.169230258948	21.448984987989
4	235	88.459924122726	20.618570817851
4	248	93.34566967583	21.596860074672
4	253	94.055023808055	20.7799908334
4	264	99.771863229102	20.470288921357
4	269	99.793484955629	12.070625444715
5	35	15.430707809346	10.039345478442
5	84	37.078248960354	26.147547840625
5	119	45.591464452215	31.759150702795

