version 2
run Third-n3-16-20191125-12:37:58-1296
attr configname Third-n3
attr datetime 20191125-12:37:58
attr experiment Third-n3
attr inifile omnetpp.ini
attr iterationvars ""
attr iterationvarsf ""
attr measurement ""
attr network org.omnetpp.queueing.Pizza
attr processid 1296
attr repetition 16
attr replication ""
attr resultdir results_no_transient
attr runnumber 16
attr seedset 16
param **.PS.maxInventoriedPS 3
param **.U1.interArrivalTime exponential(4s)
param **.U2.interArrivalTime exponential(6s)
param **.PS.serviceTimeForInventoryU1 exponential(1.4s)
param **.PS.serviceTimeForInventoryU2 exponential(1.4s)
param **.PS.serviceTimeDirectU1 exponential(1.8s)
param **.PS.serviceTimeDirectU2 exponential(1.8s)
param **.PS.probabilityProducing 0.8
param **.CS.serviceTimeU1 exponential(2.3s)
param **.CS.serviceTimeU2 exponential(2.3s)

vector 0 Pizza.EntryQueueU1 queueLength:vector ETV
attr interpolationmode sample-hold
attr title "queue length, vector"
vector 1 Pizza.CS queueLength:vector ETV
attr interpolationmode sample-hold
attr title "queue length, vector"
vector 2 Pizza.EntryQueueU2 queueLength:vector ETV
attr interpolationmode sample-hold
attr title "queue length, vector"
vector 3 Pizza.sink lifeTime:vector ETV
attr interpolationmode none
attr title "lifetime of arrived jobs, vector"
attr unit s
vector 4 Pizza.sink lifeTimeU1:vector ETV
attr interpolationmode none
attr title "lifetime of arrived jobs, vector"
attr unit s
vector 5 Pizza.sink lifeTimeU2:vector ETV
attr interpolationmode none
attr title "lifetime of arrived jobs, vector"
attr unit s
0	0	0	0
0	16	3.973083641955	1
0	21	4.688305459949	2
0	25	8.005835543379	3
0	26	8.754840503303	2
0	34	11.740396817801	1
0	42	13.135598831653	2
0	44	14.483695440095	1
0	53	15.632054611162	2
0	56	15.845486675731	1
0	61	16.583960543238	0
0	74	17.642395294416	1
0	77	20.746003834043	0
0	94	23.472532986677	1
0	96	25.815814268131	2
0	97	26.000826683492	1
0	103	28.489266144064	0
0	120	32.857664987432	1
0	122	33.459289937274	2
0	125	35.13302519302	1
0	130	35.740791390016	0
0	140	39.68994750829	1
0	148	43.122368603018	2
0	154	45.505389238397	1
0	159	46.648364399304	0
0	171	48.837890256872	1
0	178	57.677467008028	0
0	214	77.984651552101	1
0	216	78.298378212065	2
0	220	80.301003720341	3
0	221	80.600203206675	2
0	226	80.843999774064	1
0	232	81.081356377809	2
0	234	82.083672404612	1
0	240	84.579221802533	2
0	242	85.038765202144	1
0	247	85.479401958486	0
0	264	98.167186245672	1
1	0	0	0
2	0	0	0
2	14	3.375738702232	1
2	33	9.740565964986	2
2	40	12.344252594558	3
2	51	15.036382528924	4
2	55	15.809377225504	5
2	68	17.452679020662	4
2	83	23.225344573313	3
2	88	23.458665543677	2
2	108	28.777266123265	1
2	115	30.792735170629	2
2	116	32.170501867798	1
2	136	36.520707874139	0
2	142	40.954295167177	1
2	144	42.410004248452	2
2	146	42.472038049626	3
2	153	45.116174345936	4
2	165	46.687522624146	5
2	167	47.901647593554	4
2	173	52.520899302297	5
2	185	60.26722744889	4
2	190	62.345103595322	3
2	196	62.486521922056	4
2	197	66.319300554114	3
2	203	69.372140086249	4
2	205	70.090557028379	5
2	207	75.662229873161	6
2	209	76.994814158417	7
2	210	77.347515647684	6
2	254	89.532821733749	5
2	260	95.643442270992	4
3	7	1.221245552503	0.210487082057
3	28	8.754840503303	6.381845475745
3	36	11.740396817801	7.767313175846
3	46	14.483695440095	9.795389980146
3	58	15.845486675731	7.839651132352
3	63	16.583960543238	3.448361711585
3	70	17.452679020662	1.8206244095
3	79	20.746003834043	17.370265131811
3	85	23.225344573313	5.582949278897
3	90	23.458665543677	13.718099578691
3	99	26.000826683492	13.656574088934
3	105	28.489266144064	5.016733157387
3	110	28.777266123265	2.961451855134
3	118	32.170501867798	17.134119338874
3	127	35.13302519302	19.323647967516
3	132	35.740791390016	2.883126402584
3	138	36.520707874139	3.061417936865
3	156	45.505389238397	14.712654067768
3	161	46.648364399304	6.958416891014
3	169	47.901647593554	4.779278990536
3	180	57.677467008028	16.723171840851
3	187	60.26722744889	11.429337192018
3	192	62.345103595322	19.93509934687
3	199	66.319300554114	23.847262504488
3	212	77.347515647684	32.231341301748
3	223	80.600203206675	33.912680582529
3	228	80.843999774064	2.859348221963
3	236	82.083672404612	3.785294192547
3	244	85.038765202144	4.737761481803
3	249	85.479401958486	4.398045580677
3	256	89.532821733749	4.953599931216
3	262	95.643442270992	43.122542968695
4	7	1.221245552503	0.210487082057
4	36	11.740396817801	7.767313175846
4	46	14.483695440095	9.795389980146
4	58	15.845486675731	7.839651132352
4	63	16.583960543238	3.448361711585
4	70	17.452679020662	1.8206244095
4	85	23.225344573313	5.582949278897
4	105	28.489266144064	5.016733157387
4	110	28.777266123265	2.961451855134
4	132	35.740791390016	2.883126402584
4	138	36.520707874139	3.061417936865
4	161	46.648364399304	6.958416891014
4	169	47.901647593554	4.779278990536
4	187	60.26722744889	11.429337192018
4	228	80.843999774064	2.859348221963
4	236	82.083672404612	3.785294192547
4	244	85.038765202144	4.737761481803
4	249	85.479401958486	4.398045580677
4	256	89.532821733749	4.953599931216
5	28	8.754840503303	6.381845475745
5	79	20.746003834043	17.370265131811
5	90	23.458665543677	13.718099578691
5	99	26.000826683492	13.656574088934
5	118	32.170501867798	17.134119338874
5	127	35.13302519302	19.323647967516
5	156	45.505389238397	14.712654067768
5	180	57.677467008028	16.723171840851
5	192	62.345103595322	19.93509934687
5	199	66.319300554114	23.847262504488
5	212	77.347515647684	32.231341301748
5	223	80.600203206675	33.912680582529
5	262	95.643442270992	43.122542968695

