version 2
run Third-n3-11-20191125-12:37:52-1988
attr configname Third-n3
attr datetime 20191125-12:37:52
attr experiment Third-n3
attr inifile omnetpp.ini
attr iterationvars ""
attr iterationvarsf ""
attr measurement ""
attr network org.omnetpp.queueing.Pizza
attr processid 1988
attr repetition 11
attr replication ""
attr resultdir results_no_transient
attr runnumber 11
attr seedset 11
param **.PS.maxInventoriedPS 3
param **.U1.interArrivalTime exponential(4s)
param **.U2.interArrivalTime exponential(6s)
param **.PS.serviceTimeForInventoryU1 exponential(1.4s)
param **.PS.serviceTimeForInventoryU2 exponential(1.4s)
param **.PS.serviceTimeDirectU1 exponential(1.8s)
param **.PS.serviceTimeDirectU2 exponential(1.8s)
param **.PS.probabilityProducing 0.8
param **.CS.serviceTimeU1 exponential(2.3s)
param **.CS.serviceTimeU2 exponential(2.3s)

vector 0 Pizza.EntryQueueU1 queueLength:vector ETV
attr interpolationmode sample-hold
attr title "queue length, vector"
vector 1 Pizza.CS queueLength:vector ETV
attr interpolationmode sample-hold
attr title "queue length, vector"
vector 2 Pizza.EntryQueueU2 queueLength:vector ETV
attr interpolationmode sample-hold
attr title "queue length, vector"
vector 3 Pizza.sink lifeTime:vector ETV
attr interpolationmode none
attr title "lifetime of arrived jobs, vector"
attr unit s
vector 4 Pizza.sink lifeTimeU2:vector ETV
attr interpolationmode none
attr title "lifetime of arrived jobs, vector"
attr unit s
vector 5 Pizza.sink lifeTimeU1:vector ETV
attr interpolationmode none
attr title "lifetime of arrived jobs, vector"
attr unit s
0	0	0	0
0	7	0.795119552695	1
0	9	1.6583795449	2
0	12	2.647125681843	1
0	22	6.821355299315	2
0	24	9.056364407368	1
0	30	10.734445944727	0
0	44	15.639857745999	1
0	46	16.136388030947	2
0	49	20.311364219588	1
0	58	26.157600677093	0
0	75	34.025632856308	1
0	79	34.254766823037	2
0	81	34.438543955424	3
0	82	35.580981742907	2
0	88	36.493038642627	3
0	89	36.924741630792	2
0	96	37.089411713407	1
0	101	38.527631293865	0
0	105	41.554292721032	1
0	111	46.098391715582	2
0	115	47.195479561884	3
0	117	47.458698974421	4
0	118	47.468129699226	3
0	122	47.634521300452	4
0	128	48.508079556008	5
0	134	48.800008254121	6
0	135	49.169361100862	5
0	142	55.597774924586	4
0	151	58.940805672239	3
0	155	59.100201342716	4
0	157	59.839823949578	5
0	161	61.061780525139	6
0	164	61.542173810608	5
0	176	71.277936372228	4
0	187	76.174654988817	5
0	189	76.865263625408	6
0	190	77.49170887266	5
0	197	79.911435099164	4
0	202	81.317665220334	3
0	209	82.649289959878	4
0	211	83.934376772008	5
0	212	84.400528721289	4
0	220	85.562426915897	5
0	223	85.937844838326	6
0	226	86.24969962655	7
0	228	86.327831202794	8
0	230	86.929034865206	9
0	234	92.631662286157	10
0	235	92.781532031704	9
0	242	94.067632089688	8
0	249	95.043127470967	9
0	250	95.226080992226	8
0	256	95.783768073807	9
0	258	98.328032804805	8
1	0	0	0
2	0	0	0
2	5	0.542514817516	1
2	19	4.275500086219	2
2	35	11.149428716697	1
2	40	13.599991852747	0
2	55	21.339405408182	1
2	63	26.429925526905	0
2	70	31.570981464352	1
2	71	32.889995076427	0
2	95	37.06188067611	1
2	107	41.884795659085	2
2	109	44.360223896445	3
2	126	48.343604745825	4
2	130	48.569459139756	5
2	132	48.605565664064	6
2	139	50.662736077855	7
2	148	57.45322182019	8
2	150	57.765280334026	9
2	159	60.456927270369	10
2	168	63.895697049335	11
2	170	64.021402622017	12
2	172	66.336284691078	13
2	185	75.168654852867	14
2	218	85.02559281655	15
2	232	87.756710144306	16
2	241	93.42581537785	17
3	14	2.647125681843	2.222615153374
3	26	9.056364407368	8.261244854673
3	32	10.734445944727	9.076066399827
3	37	11.149428716697	4.328073417382
3	42	13.599991852747	13.057477035231
3	51	20.311364219588	16.035864133369
3	60	26.157600677093	10.517742931094
3	65	26.429925526905	10.293537495958
3	73	32.889995076427	11.550589668245
3	84	35.580981742907	4.010000278555
3	91	36.924741630792	2.899108774484
3	98	37.089411713407	2.83464489037
3	103	38.527631293865	4.089087338441
3	120	47.468129699226	10.975091056599
3	137	49.169361100862	7.61506837983
3	144	55.597774924586	9.499383209004
3	153	58.940805672239	11.745326110355
3	166	61.542173810608	14.083474836187
3	178	71.277936372228	23.643415071776
3	192	77.49170887266	28.983629316652
3	199	79.911435099164	31.111426845043
3	204	81.317665220334	22.217463877618
3	214	84.400528721289	24.560704771711
3	237	92.781532031704	31.719751506565
3	244	94.067632089688	17.892977100871
3	252	95.226080992226	18.360817366818
3	260	98.328032804805	15.678742844927
4	14	2.647125681843	2.222615153374
4	42	13.599991852747	13.057477035231
4	51	20.311364219588	16.035864133369
4	73	32.889995076427	11.550589668245
4	84	35.580981742907	4.010000278555
5	26	9.056364407368	8.261244854673
5	32	10.734445944727	9.076066399827
5	37	11.149428716697	4.328073417382
5	60	26.157600677093	10.517742931094
5	65	26.429925526905	10.293537495958
5	91	36.924741630792	2.899108774484
5	98	37.089411713407	2.83464489037
5	103	38.527631293865	4.089087338441
5	120	47.468129699226	10.975091056599
5	137	49.169361100862	7.61506837983
5	144	55.597774924586	9.499383209004
5	153	58.940805672239	11.745326110355
5	166	61.542173810608	14.083474836187
5	178	71.277936372228	23.643415071776
5	192	77.49170887266	28.983629316652
5	199	79.911435099164	31.111426845043
5	204	81.317665220334	22.217463877618
5	214	84.400528721289	24.560704771711
5	237	92.781532031704	31.719751506565
5	244	94.067632089688	17.892977100871
5	252	95.226080992226	18.360817366818
5	260	98.328032804805	15.678742844927

