version 2
run Third-n4-9-20191125-12:37:55-2164
attr configname Third-n4
attr datetime 20191125-12:37:55
attr experiment Third-n4
attr inifile omnetpp.ini
attr iterationvars ""
attr iterationvarsf ""
attr measurement ""
attr network org.omnetpp.queueing.Pizza
attr processid 2164
attr repetition 9
attr replication ""
attr resultdir results_no_transient
attr runnumber 9
attr seedset 9
param **.PS.maxInventoriedPS 4
param **.U1.interArrivalTime exponential(4s)
param **.U2.interArrivalTime exponential(6s)
param **.PS.serviceTimeForInventoryU1 exponential(1.4s)
param **.PS.serviceTimeForInventoryU2 exponential(1.4s)
param **.PS.serviceTimeDirectU1 exponential(1.8s)
param **.PS.serviceTimeDirectU2 exponential(1.8s)
param **.PS.probabilityProducing 0.8
param **.CS.serviceTimeU1 exponential(2.3s)
param **.CS.serviceTimeU2 exponential(2.3s)

vector 0 Pizza.EntryQueueU1 queueLength:vector ETV
attr interpolationmode sample-hold
attr title "queue length, vector"
vector 1 Pizza.CS queueLength:vector ETV
attr interpolationmode sample-hold
attr title "queue length, vector"
vector 2 Pizza.EntryQueueU2 queueLength:vector ETV
attr interpolationmode sample-hold
attr title "queue length, vector"
vector 3 Pizza.sink lifeTime:vector ETV
attr interpolationmode none
attr title "lifetime of arrived jobs, vector"
attr unit s
vector 4 Pizza.sink lifeTimeU1:vector ETV
attr interpolationmode none
attr title "lifetime of arrived jobs, vector"
attr unit s
vector 5 Pizza.sink lifeTimeU2:vector ETV
attr interpolationmode none
attr title "lifetime of arrived jobs, vector"
attr unit s
0	0	0	0
0	18	2.829327048168	1
0	22	3.694618899783	0
0	30	5.559378860882	1
0	35	10.395969530959	2
0	36	10.62958155989	1
0	46	17.557198031077	0
0	54	19.527378765509	1
0	55	19.841189031047	0
0	66	22.03433393858	1
0	68	22.475638382265	2
0	72	23.219204129849	3
0	77	26.16413034235	4
0	81	30.343539731392	3
0	87	30.358170476127	4
0	89	31.179098608686	5
0	92	35.609274158139	6
0	96	39.412499979729	5
0	102	41.409176704279	4
0	107	41.81038126878	3
0	113	43.387578953725	2
0	119	43.876191686594	3
0	121	48.658885830568	2
0	126	51.335414376803	1
0	132	52.049657605942	2
0	133	52.121003271394	1
0	148	62.090845748757	0
0	154	62.421411374656	1
0	157	63.20284575651	2
0	161	63.75234377906	3
0	163	64.0429945632	4
0	166	65.730693070858	3
0	172	65.784117083867	4
0	174	67.533466328458	5
0	175	68.482541290042	4
0	183	71.956803907173	3
0	189	73.038264040883	2
0	195	73.994413868314	3
0	196	74.003746212721	2
0	202	74.012711036582	3
0	208	75.589442815683	2
0	216	78.593133452524	1
0	222	79.243606141602	2
0	227	81.971142416008	3
0	228	82.756215836507	2
0	234	83.615447147338	3
0	239	84.19521611899	4
0	240	84.624778212805	3
0	248	86.496237784963	2
0	253	88.053645869995	1
0	259	91.620514533091	0
0	287	98.329315638223	1
0	289	98.67827805435	2
1	0	0	0
2	0	0	0
2	21	3.614961514781	1
2	32	5.891192430434	2
2	42	10.993646100847	3
2	45	15.755931772954	4
2	60	20.92296788931	3
2	70	23.028514422152	4
2	75	23.524344849948	5
2	80	27.575948783916	6
2	95	39.408386052959	7
2	143	53.612874050322	8
2	145	56.712095719048	9
2	147	56.948102579079	10
2	159	63.667994347783	11
2	165	64.564138363509	12
2	182	70.62070970744	13
2	205	74.506253656748	14
2	214	75.952998806655	15
2	225	80.331206579753	16
2	236	83.704412868547	17
2	247	85.867053387391	18
2	266	92.405973428537	17
2	271	92.777709274321	16
2	276	96.62763949226	15
2	281	96.697397255535	14
3	9	1.616699494875	1.574986115594
3	24	3.694618899783	0.974927725455
3	38	10.62958155989	7.800254511722
3	48	17.557198031077	11.997819170195
3	57	19.841189031047	9.445219500088
3	62	20.92296788931	1.395589123801
3	83	30.343539731392	26.728578216611
3	98	39.412499979729	17.378166041149
3	104	41.409176704279	18.933538322014
3	109	41.81038126878	18.591177138931
3	115	43.387578953725	17.223448611375
3	123	48.658885830568	18.300715354441
3	128	51.335414376803	20.156315768117
3	135	52.121003271394	16.511729113255
3	150	62.090845748757	18.214654062163
3	168	65.730693070858	13.681035464916
3	177	68.482541290042	6.061129915386
3	185	71.956803907173	8.753958150663
3	191	73.038264040883	9.285920261823
3	198	74.003746212721	9.960751649521
3	210	75.589442815683	9.805325731816
3	218	78.593133452524	11.059667124066
3	230	82.756215836507	8.761801968193
3	242	84.624778212805	10.612067176223
3	250	86.496237784963	7.252631643361
3	255	88.053645869995	6.082503453987
3	261	91.620514533091	8.005067385753
3	268	92.405973428537	8.210757309547
3	273	92.777709274321	86.886516843887
3	278	96.62763949226	85.633993391413
3	283	96.697397255535	80.941465482581
4	9	1.616699494875	1.574986115594
4	38	10.62958155989	7.800254511722
4	48	17.557198031077	11.997819170195
4	57	19.841189031047	9.445219500088
4	62	20.92296788931	1.395589123801
4	98	39.412499979729	17.378166041149
4	104	41.409176704279	18.933538322014
4	109	41.81038126878	18.591177138931
4	115	43.387578953725	17.223448611375
4	123	48.658885830568	18.300715354441
4	128	51.335414376803	20.156315768117
4	135	52.121003271394	16.511729113255
4	150	62.090845748757	18.214654062163
4	168	65.730693070858	13.681035464916
4	177	68.482541290042	6.061129915386
4	185	71.956803907173	8.753958150663
4	191	73.038264040883	9.285920261823
4	198	74.003746212721	9.960751649521
4	210	75.589442815683	9.805325731816
4	218	78.593133452524	11.059667124066
4	230	82.756215836507	8.761801968193
4	242	84.624778212805	10.612067176223
4	250	86.496237784963	7.252631643361
4	255	88.053645869995	6.082503453987
4	261	91.620514533091	8.005067385753
4	268	92.405973428537	8.210757309547
5	24	3.694618899783	0.974927725455
5	83	30.343539731392	26.728578216611
5	273	92.777709274321	86.886516843887
5	278	96.62763949226	85.633993391413
5	283	96.697397255535	80.941465482581

