version 2
run Third-n4-3-20191125-12:37:48-2468
attr configname Third-n4
attr datetime 20191125-12:37:48
attr experiment Third-n4
attr inifile omnetpp.ini
attr iterationvars ""
attr iterationvarsf ""
attr measurement ""
attr network org.omnetpp.queueing.Pizza
attr processid 2468
attr repetition 3
attr replication ""
attr resultdir results_no_transient
attr runnumber 3
attr seedset 3
param **.PS.maxInventoriedPS 4
param **.U1.interArrivalTime exponential(4s)
param **.U2.interArrivalTime exponential(6s)
param **.PS.serviceTimeForInventoryU1 exponential(1.4s)
param **.PS.serviceTimeForInventoryU2 exponential(1.4s)
param **.PS.serviceTimeDirectU1 exponential(1.8s)
param **.PS.serviceTimeDirectU2 exponential(1.8s)
param **.PS.probabilityProducing 0.8
param **.CS.serviceTimeU1 exponential(2.3s)
param **.CS.serviceTimeU2 exponential(2.3s)

vector 0 Pizza.EntryQueueU1 queueLength:vector ETV
attr interpolationmode sample-hold
attr title "queue length, vector"
vector 1 Pizza.CS queueLength:vector ETV
attr interpolationmode sample-hold
attr title "queue length, vector"
vector 2 Pizza.EntryQueueU2 queueLength:vector ETV
attr interpolationmode sample-hold
attr title "queue length, vector"
vector 3 Pizza.sink lifeTime:vector ETV
attr interpolationmode none
attr title "lifetime of arrived jobs, vector"
attr unit s
vector 4 Pizza.sink lifeTimeU2:vector ETV
attr interpolationmode none
attr title "lifetime of arrived jobs, vector"
attr unit s
vector 5 Pizza.sink lifeTimeU1:vector ETV
attr interpolationmode none
attr title "lifetime of arrived jobs, vector"
attr unit s
0	0	0	0
0	5	3.20112956357	1
0	9	4.576191196757	2
0	11	5.675626581148	1
0	16	5.771028807239	0
0	45	13.513914581795	1
0	50	15.519746693095	0
0	81	28.058800148358	1
0	82	28.32075008876	0
0	115	37.3841420602	1
0	118	38.403192163998	0
0	135	42.899946602691	1
0	137	44.233386959452	2
0	140	47.629380443166	1
0	146	48.158218175065	0
0	209	65.242229897232	1
0	210	67.669791392246	0
0	221	69.446971959724	1
0	225	73.07891102301	2
0	227	73.356180244979	3
0	233	74.302626696466	2
0	242	77.016097975153	1
0	251	83.756522920041	2
0	252	84.005029240953	1
0	259	85.355874947532	2
0	261	86.581359713945	3
0	262	86.829887519426	2
0	270	88.793022504045	3
0	273	91.033254277443	2
0	282	93.976198122455	3
0	283	94.441060201519	2
0	289	95.488969213975	1
0	298	99.537864828936	0
1	0	0	0
2	0	0	0
2	28	8.011139297676	1
2	31	8.670361805744	0
2	43	11.818817273865	1
2	56	16.729094787522	2
2	58	16.855193491074	1
2	64	18.657935389933	2
2	65	21.206544593115	1
2	70	24.954100261243	0
2	79	27.751292348386	1
2	87	29.491784270784	0
2	117	38.285156391663	1
2	124	38.926086879221	0
2	128	40.167141245745	1
2	131	42.86428802995	0
2	198	63.341117453389	1
2	201	64.49325938724	0
2	207	65.008897541332	1
2	216	68.960743720938	2
2	217	69.289814567187	1
2	223	72.827898551471	2
2	231	74.219234676442	3
2	240	75.381195483329	4
2	249	80.216104686502	5
2	268	87.083007653386	6
2	279	92.164781581946	7
2	297	98.643393529157	8
3	13	5.675626581148	5.235523953362
3	18	5.771028807239	2.569899243669
3	23	6.414966327788	1.838775131031
3	33	8.670361805744	0.841212106507
3	37	10.818502089624	2.807362791948
3	52	15.519746693095	3.846574201849
3	60	16.855193491074	3.341278909279
3	67	21.206544593115	9.38772731925
3	72	24.954100261243	8.225005473721
3	84	28.32075008876	9.662814698827
3	89	29.491784270784	1.432984122426
3	93	29.714309105782	1.963016757396
3	100	31.989266026616	1.876995957567
3	108	33.902417254245	0.586413929842
3	120	38.403192163998	2.394778607031
3	126	38.926086879221	1.541944819021
3	133	42.86428802995	4.579131638287
3	142	47.629380443166	7.462239197421
3	148	48.158218175065	5.258271572374
3	154	49.817941380129	5.584554420677
3	162	51.937129937784	1.0348867764
3	169	53.392637198686	1.405893140063
3	176	54.420116479459	0.874490895178
3	185	58.128553675427	1.786614300671
3	193	59.59929632355	1.354811674699
3	203	64.49325938724	1.533161421547
3	212	67.669791392246	4.328673938857
3	219	69.289814567187	4.047584669955
3	235	74.302626696466	9.293729155134
3	244	77.016097975153	7.569126015429
3	254	84.005029240953	10.926118217943
3	264	86.829887519426	13.473707274447
3	275	91.033254277443	7.276731357402
3	285	94.441060201519	9.085185253987
3	291	95.488969213975	8.90760950003
3	300	99.537864828936	10.744842324891
4	13	5.675626581148	5.235523953362
4	33	8.670361805744	0.841212106507
4	37	10.818502089624	2.807362791948
4	52	15.519746693095	3.846574201849
4	67	21.206544593115	9.38772731925
4	72	24.954100261243	8.225005473721
4	84	28.32075008876	9.662814698827
4	93	29.714309105782	1.963016757396
4	100	31.989266026616	1.876995957567
4	108	33.902417254245	0.586413929842
4	120	38.403192163998	2.394778607031
4	133	42.86428802995	4.579131638287
4	142	47.629380443166	7.462239197421
4	169	53.392637198686	1.405893140063
4	185	58.128553675427	1.786614300671
4	203	64.49325938724	1.533161421547
4	212	67.669791392246	4.328673938857
4	235	74.302626696466	9.293729155134
5	18	5.771028807239	2.569899243669
5	23	6.414966327788	1.838775131031
5	60	16.855193491074	3.341278909279
5	89	29.491784270784	1.432984122426
5	126	38.926086879221	1.541944819021
5	148	48.158218175065	5.258271572374
5	154	49.817941380129	5.584554420677
5	162	51.937129937784	1.0348867764
5	176	54.420116479459	0.874490895178
5	193	59.59929632355	1.354811674699
5	219	69.289814567187	4.047584669955
5	244	77.016097975153	7.569126015429
5	254	84.005029240953	10.926118217943
5	264	86.829887519426	13.473707274447
5	275	91.033254277443	7.276731357402
5	285	94.441060201519	9.085185253987
5	291	95.488969213975	8.90760950003
5	300	99.537864828936	10.744842324891

