version 2
run Third-n4-5-20191125-12:37:51-7484
attr configname Third-n4
attr datetime 20191125-12:37:51
attr experiment Third-n4
attr inifile omnetpp.ini
attr iterationvars ""
attr iterationvarsf ""
attr measurement ""
attr network org.omnetpp.queueing.Pizza
attr processid 7484
attr repetition 5
attr replication ""
attr resultdir results_no_transient
attr runnumber 5
attr seedset 5
param **.PS.maxInventoriedPS 4
param **.U1.interArrivalTime exponential(4s)
param **.U2.interArrivalTime exponential(6s)
param **.PS.serviceTimeForInventoryU1 exponential(1.4s)
param **.PS.serviceTimeForInventoryU2 exponential(1.4s)
param **.PS.serviceTimeDirectU1 exponential(1.8s)
param **.PS.serviceTimeDirectU2 exponential(1.8s)
param **.PS.probabilityProducing 0.8
param **.CS.serviceTimeU1 exponential(2.3s)
param **.CS.serviceTimeU2 exponential(2.3s)

vector 0 Pizza.EntryQueueU1 queueLength:vector ETV
attr interpolationmode sample-hold
attr title "queue length, vector"
vector 1 Pizza.CS queueLength:vector ETV
attr interpolationmode sample-hold
attr title "queue length, vector"
vector 2 Pizza.EntryQueueU2 queueLength:vector ETV
attr interpolationmode sample-hold
attr title "queue length, vector"
vector 3 Pizza.sink lifeTime:vector ETV
attr interpolationmode none
attr title "lifetime of arrived jobs, vector"
attr unit s
vector 4 Pizza.sink lifeTimeU2:vector ETV
attr interpolationmode none
attr title "lifetime of arrived jobs, vector"
attr unit s
vector 5 Pizza.sink lifeTimeU1:vector ETV
attr interpolationmode none
attr title "lifetime of arrived jobs, vector"
attr unit s
0	0	0	0
0	5	1.004079910768	1
0	7	1.930391765611	2
0	11	3.738964224312	3
0	13	4.115420356294	4
0	14	5.085741223811	3
0	23	7.676024802913	2
0	29	7.89978038264	3
0	30	8.314930500473	2
0	35	8.585287280659	1
0	39	8.589153753283	2
0	44	9.502555838954	3
0	45	9.969379227906	2
0	53	12.076440836646	1
0	59	12.46917779268	2
0	64	13.091885211073	3
0	65	16.199688545652	2
0	70	16.417990337226	1
0	75	16.474586070241	0
0	97	26.381119045795	1
0	98	31.969840475687	0
0	130	44.130404561175	1
0	132	45.00041729118	2
0	133	45.168539221592	1
0	141	47.654235533125	2
0	143	50.226459886672	3
0	145	51.383834305397	4
0	146	51.443973284249	3
0	152	51.640757877433	4
0	155	52.665431459354	5
0	156	53.741757951787	4
0	162	56.062076841247	3
0	167	56.56135101149	2
0	172	59.627248050059	1
0	178	64.128006026309	2
0	180	64.523765083131	3
0	183	65.656565090173	2
0	191	68.46820351201	1
0	198	68.949082005362	0
0	202	69.134764679679	1
0	209	73.262492188672	2
0	210	73.41376712702	1
0	217	75.982745216744	2
0	218	78.504935515305	1
0	223	78.709511329142	0
0	244	86.770873516733	1
0	246	86.914035151845	2
0	248	88.771792479194	3
0	250	89.434420185046	4
0	252	89.484206379127	5
0	254	91.036850246099	6
0	255	92.08623126996	5
0	261	93.111559386697	4
0	267	96.725728936657	3
0	275	98.892935949582	4
1	0	0	0
2	0	0	0
2	61	12.61578498944	1
2	81	20.410620857308	0
2	182	65.224412040244	1
2	190	67.911971619813	2
2	197	68.936922985027	3
2	229	80.125042299448	4
2	233	82.976127554499	3
2	238	84.618498262057	2
3	16	5.085741223811	4.745175382083
3	25	7.676024802913	6.671944892145
3	32	8.314930500473	6.384538734862
3	37	8.585287280659	4.846323056347
3	47	9.969379227906	5.853958871612
3	55	12.076440836646	4.176660454006
3	67	16.199688545652	7.610534792369
3	72	16.417990337226	6.915434498272
3	77	16.474586070241	4.005408277561
3	83	20.410620857308	7.318735646235
3	89	22.315598732298	9.699813742858
3	100	31.969840475687	5.977433214425
3	107	34.902262625784	8.521143579989
3	115	38.148520892958	1.99372613619
3	122	42.46549241083	1.170857577254
3	135	45.168539221592	1.818527396911
3	148	51.443973284249	7.313568723074
3	158	53.741757951787	8.741340660607
3	164	56.062076841247	8.407841308122
3	169	56.56135101149	6.334891124818
3	174	59.627248050059	8.243413744662
3	185	65.656565090173	14.01580721274
3	193	68.46820351201	15.802772052656
3	200	68.949082005362	4.821075979053
3	212	73.41376712702	8.890002043889
3	220	78.504935515305	9.370170835626
3	225	78.709511329142	5.44701914047
3	235	82.976127554499	6.993382337755
3	240	84.618498262057	19.394086221813
3	257	92.08623126996	24.174259650147
3	263	93.111559386697	6.340685869964
3	269	96.725728936657	9.811693784812
4	16	5.085741223811	4.745175382083
4	89	22.315598732298	9.699813742858
4	100	31.969840475687	5.977433214425
4	115	38.148520892958	1.99372613619
4	122	42.46549241083	1.170857577254
4	240	84.618498262057	19.394086221813
4	257	92.08623126996	24.174259650147
5	25	7.676024802913	6.671944892145
5	32	8.314930500473	6.384538734862
5	37	8.585287280659	4.846323056347
5	47	9.969379227906	5.853958871612
5	55	12.076440836646	4.176660454006
5	67	16.199688545652	7.610534792369
5	72	16.417990337226	6.915434498272
5	77	16.474586070241	4.005408277561
5	83	20.410620857308	7.318735646235
5	107	34.902262625784	8.521143579989
5	135	45.168539221592	1.818527396911
5	148	51.443973284249	7.313568723074
5	158	53.741757951787	8.741340660607
5	164	56.062076841247	8.407841308122
5	169	56.56135101149	6.334891124818
5	174	59.627248050059	8.243413744662
5	185	65.656565090173	14.01580721274
5	193	68.46820351201	15.802772052656
5	200	68.949082005362	4.821075979053
5	212	73.41376712702	8.890002043889
5	220	78.504935515305	9.370170835626
5	225	78.709511329142	5.44701914047
5	235	82.976127554499	6.993382337755
5	263	93.111559386697	6.340685869964
5	269	96.725728936657	9.811693784812

