version 2
run Third-n2-19-20191125-12:37:52-2416
attr configname Third-n2
attr datetime 20191125-12:37:52
attr experiment Third-n2
attr inifile omnetpp.ini
attr iterationvars ""
attr iterationvarsf ""
attr measurement ""
attr network org.omnetpp.queueing.Pizza
attr processid 2416
attr repetition 19
attr replication ""
attr resultdir results_no_transient
attr runnumber 19
attr seedset 19
param **.PS.maxInventoriedPS 2
param **.U1.interArrivalTime exponential(4s)
param **.U2.interArrivalTime exponential(6s)
param **.PS.serviceTimeForInventoryU1 exponential(1.4s)
param **.PS.serviceTimeForInventoryU2 exponential(1.4s)
param **.PS.serviceTimeDirectU1 exponential(1.8s)
param **.PS.serviceTimeDirectU2 exponential(1.8s)
param **.PS.probabilityProducing 0.8
param **.CS.serviceTimeU1 exponential(2.3s)
param **.CS.serviceTimeU2 exponential(2.3s)

vector 0 Pizza.EntryQueueU1 queueLength:vector ETV
attr interpolationmode sample-hold
attr title "queue length, vector"
vector 1 Pizza.CS queueLength:vector ETV
attr interpolationmode sample-hold
attr title "queue length, vector"
vector 2 Pizza.EntryQueueU2 queueLength:vector ETV
attr interpolationmode sample-hold
attr title "queue length, vector"
vector 3 Pizza.sink lifeTime:vector ETV
attr interpolationmode none
attr title "lifetime of arrived jobs, vector"
attr unit s
vector 4 Pizza.sink lifeTimeU1:vector ETV
attr interpolationmode none
attr title "lifetime of arrived jobs, vector"
attr unit s
vector 5 Pizza.sink lifeTimeU2:vector ETV
attr interpolationmode none
attr title "lifetime of arrived jobs, vector"
attr unit s
0	0	0	0
0	27	10.178522957092	1
0	28	10.488162937289	0
0	35	13.33328014756	1
0	36	13.39108515379	0
0	47	14.555550532866	1
0	51	15.229169870462	0
0	57	16.51315609442	1
0	63	19.791304240522	2
0	64	21.949170428342	1
0	71	23.61176357246	2
0	73	25.228659049222	3
0	76	30.391523014155	2
0	82	30.776335591735	3
0	84	33.233690805136	2
0	91	36.203166765569	1
0	97	36.815316918691	2
0	98	37.181716860918	1
0	106	38.711017568605	2
0	107	38.977416618708	1
0	112	39.491519370965	0
0	139	45.695660701725	1
0	142	47.436599412304	0
0	162	59.908829582182	1
0	163	62.853564885717	0
0	179	71.095872327233	1
0	182	71.839660734698	0
0	191	77.609120595371	1
0	192	79.711342839751	0
0	198	79.912307733045	1
0	201	81.764868926811	0
0	226	86.837780031892	1
0	231	87.643287998753	0
0	237	88.717918521007	1
0	239	90.76233450602	2
0	240	90.773442596134	1
0	247	93.626371799021	0
0	257	95.834728600055	1
0	261	96.98353013093	2
0	262	97.652550205395	1
0	268	98.499674434727	2
0	269	98.683172320316	1
0	275	98.873729898051	2
1	0	0	0
2	0	0	0
2	25	10.132916285404	1
2	41	13.770590922336	0
2	50	14.84483748448	1
2	61	19.287626088379	2
2	75	26.587486048898	3
2	117	39.67465473109	2
2	123	39.917923253496	1
2	128	40.373627893233	0
2	132	41.085735277185	1
2	136	43.804646481294	2
2	141	47.394456390042	3
2	149	50.204300150971	4
2	150	50.329161137346	3
2	156	59.554049561279	2
2	170	65.430215244937	3
2	172	67.35603983432	4
2	174	67.546702894891	5
2	175	68.245978091915	4
2	189	73.345411129561	5
2	207	82.669959213506	4
2	212	84.012899731993	3
2	217	84.290056779285	2
2	222	86.667754551385	1
2	228	87.060707893373	2
2	253	94.538588905257	1
2	277	99.647085046208	2
3	7	1.71052345113	1.300028150124
3	15	3.821194064259	0.443549822001
3	30	10.488162937289	4.348319154208
3	38	13.39108515379	3.212562196698
3	43	13.770590922336	0.437310774776
3	53	15.229169870462	5.096253585058
3	66	21.949170428342	7.393619895476
3	78	30.391523014155	13.878366919735
3	86	33.233690805136	13.442386564614
3	93	36.203166765569	12.591403193109
3	100	37.181716860918	11.953057811696
3	109	38.977416618708	8.201081026973
3	114	39.491519370965	2.676202452274
3	119	39.67465473109	0.963637162485
3	125	39.917923253496	25.073085769016
3	130	40.373627893233	21.086001804854
3	144	47.436599412304	20.849113363406
3	152	50.329161137346	4.633500435621
3	158	59.554049561279	18.468314284094
3	165	62.853564885717	19.048918404423
3	177	68.245978091915	8.337148509733
3	184	71.839660734698	24.445204344656
3	194	79.711342839751	8.615470512518
3	203	81.764868926811	4.15574833144
3	209	82.669959213506	2.757651480461
3	214	84.012899731993	33.808599581022
3	219	84.290056779285	18.859841534348
3	224	86.667754551385	19.311714717065
3	233	87.643287998753	20.096585103862
3	242	90.773442596134	3.935662564242
3	249	93.626371799021	4.908453278014
3	255	94.538588905257	3.776254399237
3	264	97.652550205395	24.307139075834
3	271	98.683172320316	2.848443720261
4	7	1.71052345113	1.300028150124
4	30	10.488162937289	4.348319154208
4	38	13.39108515379	3.212562196698
4	43	13.770590922336	0.437310774776
4	66	21.949170428342	7.393619895476
4	78	30.391523014155	13.878366919735
4	86	33.233690805136	13.442386564614
4	93	36.203166765569	12.591403193109
4	100	37.181716860918	11.953057811696
4	109	38.977416618708	8.201081026973
4	114	39.491519370965	2.676202452274
4	119	39.67465473109	0.963637162485
4	152	50.329161137346	4.633500435621
4	177	68.245978091915	8.337148509733
4	194	79.711342839751	8.615470512518
4	203	81.764868926811	4.15574833144
4	209	82.669959213506	2.757651480461
4	242	90.773442596134	3.935662564242
4	249	93.626371799021	4.908453278014
4	255	94.538588905257	3.776254399237
4	271	98.683172320316	2.848443720261
5	15	3.821194064259	0.443549822001
5	53	15.229169870462	5.096253585058
5	125	39.917923253496	25.073085769016
5	130	40.373627893233	21.086001804854
5	144	47.436599412304	20.849113363406
5	158	59.554049561279	18.468314284094
5	165	62.853564885717	19.048918404423
5	184	71.839660734698	24.445204344656
5	214	84.012899731993	33.808599581022
5	219	84.290056779285	18.859841534348
5	224	86.667754551385	19.311714717065
5	233	87.643287998753	20.096585103862
5	264	97.652550205395	24.307139075834

