version 2
run Third-n5-3-20191125-12:37:53-2896
attr configname Third-n5
attr datetime 20191125-12:37:53
attr experiment Third-n5
attr inifile omnetpp.ini
attr iterationvars ""
attr iterationvarsf ""
attr measurement ""
attr network org.omnetpp.queueing.Pizza
attr processid 2896
attr repetition 3
attr replication ""
attr resultdir results_no_transient
attr runnumber 3
attr seedset 3
param **.PS.maxInventoriedPS 5
param **.U1.interArrivalTime exponential(4s)
param **.U2.interArrivalTime exponential(6s)
param **.PS.serviceTimeForInventoryU1 exponential(1.4s)
param **.PS.serviceTimeForInventoryU2 exponential(1.4s)
param **.PS.serviceTimeDirectU1 exponential(1.8s)
param **.PS.serviceTimeDirectU2 exponential(1.8s)
param **.PS.probabilityProducing 0.8
param **.CS.serviceTimeU1 exponential(2.3s)
param **.CS.serviceTimeU2 exponential(2.3s)

vector 0 Pizza.EntryQueueU1 queueLength:vector ETV
attr interpolationmode sample-hold
attr title "queue length, vector"
vector 1 Pizza.CS queueLength:vector ETV
attr interpolationmode sample-hold
attr title "queue length, vector"
vector 2 Pizza.EntryQueueU2 queueLength:vector ETV
attr interpolationmode sample-hold
attr title "queue length, vector"
vector 3 Pizza.sink lifeTime:vector ETV
attr interpolationmode none
attr title "lifetime of arrived jobs, vector"
attr unit s
vector 4 Pizza.sink lifeTimeU2:vector ETV
attr interpolationmode none
attr title "lifetime of arrived jobs, vector"
attr unit s
vector 5 Pizza.sink lifeTimeU1:vector ETV
attr interpolationmode none
attr title "lifetime of arrived jobs, vector"
attr unit s
0	0	0	0
0	5	3.20112956357	1
0	9	4.576191196757	2
0	11	5.675626581148	1
0	16	5.771028807239	0
0	45	13.513914581795	1
0	50	15.519746693095	0
0	75	28.058800148358	1
0	76	28.404248422631	0
0	82	29.632785295467	1
0	86	31.669366481595	2
0	89	32.703376849815	1
0	95	33.805188651831	2
0	97	35.578943236532	1
0	103	35.600128806874	2
0	105	36.778971972121	1
0	114	38.909313314564	2
0	115	38.942453266846	1
0	123	41.356956689446	2
0	124	41.441959453527	1
0	129	42.191067130228	0
0	160	49.550962940749	1
0	163	52.13406287651	0
0	171	54.249822005319	1
0	172	54.671023669702	0
0	179	55.910966697763	1
0	186	58.267160914631	2
0	187	58.694727187521	1
0	193	59.379014306593	2
0	194	59.580043557734	1
0	202	60.427509355297	2
0	204	60.532993129268	3
0	205	61.094917926583	2
0	213	65.681528801339	3
0	216	65.982846726262	4
0	219	66.848143045735	3
0	225	66.870304331455	4
0	226	67.090738904294	3
0	235	68.94412076551	2
0	242	71.463750037362	1
0	248	71.589384816128	2
0	249	72.496149942904	1
0	255	73.767856047212	0
0	265	76.502181822169	1
0	266	76.748182027797	0
0	274	81.964265517605	1
0	276	82.958356431789	0
0	282	85.981099971297	1
0	285	87.294237803253	0
0	292	89.134296490747	1
0	295	91.308038413801	0
0	308	94.94664521255	1
0	311	96.198958339869	2
0	315	98.62888713478	3
0	316	98.815047837517	2
0	324	99.409120689495	3
0	326	99.567903279745	4
1	0	0	0
2	0	0	0
2	28	8.011139297676	1
2	31	8.670361805744	0
2	43	11.818817273865	1
2	55	16.259135590686	0
2	61	16.729094787522	1
2	66	19.82637320586	0
2	73	25.822451745975	1
2	88	32.517924388909	2
2	112	38.875616462587	3
2	121	40.239689632733	4
2	134	42.370876309452	3
2	139	42.888073700593	2
2	146	45.534691825704	3
2	149	47.118026647789	2
2	154	48.78751818564	1
2	158	49.499765460049	2
2	169	53.167312781952	3
2	182	57.19904772046	4
2	184	57.580067208156	5
2	200	59.739550712604	6
2	218	66.046663806342	7
2	232	67.208624613229	8
2	234	67.949884161973	9
2	241	69.198045662577	10
2	263	76.064948629461	11
2	270	78.648955906105	12
2	280	85.127567853316	13
2	294	89.956662063675	14
2	301	92.765575135428	13
3	13	5.675626581148	5.235523953362
3	18	5.771028807239	2.569899243669
3	23	6.414966327788	1.838775131031
3	33	8.670361805744	0.841212106507
3	37	10.818502089624	2.807362791948
3	52	15.519746693095	3.846574201849
3	57	16.259135590686	2.745221008891
3	68	19.82637320586	8.007555931995
3	78	28.404248422631	11.675153635109
3	91	32.703376849815	4.644576701457
3	99	35.578943236532	5.946157941065
3	107	36.778971972121	5.109605490526
3	117	38.942453266846	5.137264615015
3	126	41.441959453527	5.841830646653
3	131	42.191067130228	3.281753815664
3	136	42.370876309452	1.013919620006
3	141	42.888073700593	17.065621954618
3	151	47.118026647789	14.60010225888
3	156	48.78751818564	9.911901723053
3	165	52.13406287651	11.894373243777
3	174	54.671023669702	5.120060728953
3	189	58.694727187521	4.444905182202
3	196	59.580043557734	3.669076859971
3	207	61.094917926583	2.827757011952
3	221	66.848143045735	7.469128739142
3	228	67.090738904294	6.663229548997
3	237	68.94412076551	8.411127636242
3	244	71.463750037362	5.782221236023
3	251	72.496149942904	6.513303216642
3	257	73.767856047212	6.897551715757
3	268	76.748182027797	5.158797211669
3	278	82.958356431789	6.45617460962
3	287	87.294237803253	5.329972285648
3	297	91.308038413801	5.326938442504
3	303	92.765575135428	3.631278644681
3	318	98.815047837517	53.280356011813
4	13	5.675626581148	5.235523953362
4	33	8.670361805744	0.841212106507
4	37	10.818502089624	2.807362791948
4	52	15.519746693095	3.846574201849
4	68	19.82637320586	8.007555931995
4	78	28.404248422631	11.675153635109
4	141	42.888073700593	17.065621954618
4	151	47.118026647789	14.60010225888
4	156	48.78751818564	9.911901723053
4	165	52.13406287651	11.894373243777
4	318	98.815047837517	53.280356011813
5	18	5.771028807239	2.569899243669
5	23	6.414966327788	1.838775131031
5	57	16.259135590686	2.745221008891
5	91	32.703376849815	4.644576701457
5	99	35.578943236532	5.946157941065
5	107	36.778971972121	5.109605490526
5	117	38.942453266846	5.137264615015
5	126	41.441959453527	5.841830646653
5	131	42.191067130228	3.281753815664
5	136	42.370876309452	1.013919620006
5	174	54.671023669702	5.120060728953
5	189	58.694727187521	4.444905182202
5	196	59.580043557734	3.669076859971
5	207	61.094917926583	2.827757011952
5	221	66.848143045735	7.469128739142
5	228	67.090738904294	6.663229548997
5	237	68.94412076551	8.411127636242
5	244	71.463750037362	5.782221236023
5	251	72.496149942904	6.513303216642
5	257	73.767856047212	6.897551715757
5	268	76.748182027797	5.158797211669
5	278	82.958356431789	6.45617460962
5	287	87.294237803253	5.329972285648
5	297	91.308038413801	5.326938442504
5	303	92.765575135428	3.631278644681

