version 2
run Third-n4-18-20191125-12:38:10-9276
attr configname Third-n4
attr datetime 20191125-12:38:10
attr experiment Third-n4
attr inifile omnetpp.ini
attr iterationvars ""
attr iterationvarsf ""
attr measurement ""
attr network org.omnetpp.queueing.Pizza
attr processid 9276
attr repetition 18
attr replication ""
attr resultdir results_no_transient
attr runnumber 18
attr seedset 18
param **.PS.maxInventoriedPS 4
param **.U1.interArrivalTime exponential(4s)
param **.U2.interArrivalTime exponential(6s)
param **.PS.serviceTimeForInventoryU1 exponential(1.4s)
param **.PS.serviceTimeForInventoryU2 exponential(1.4s)
param **.PS.serviceTimeDirectU1 exponential(1.8s)
param **.PS.serviceTimeDirectU2 exponential(1.8s)
param **.PS.probabilityProducing 0.8
param **.CS.serviceTimeU1 exponential(2.3s)
param **.CS.serviceTimeU2 exponential(2.3s)

vector 0 Pizza.EntryQueueU1 queueLength:vector ETV
attr interpolationmode sample-hold
attr title "queue length, vector"
vector 1 Pizza.CS queueLength:vector ETV
attr interpolationmode sample-hold
attr title "queue length, vector"
vector 2 Pizza.EntryQueueU2 queueLength:vector ETV
attr interpolationmode sample-hold
attr title "queue length, vector"
vector 3 Pizza.sink lifeTime:vector ETV
attr interpolationmode none
attr title "lifetime of arrived jobs, vector"
attr unit s
vector 4 Pizza.sink lifeTimeU2:vector ETV
attr interpolationmode none
attr title "lifetime of arrived jobs, vector"
attr unit s
vector 5 Pizza.sink lifeTimeU1:vector ETV
attr interpolationmode none
attr title "lifetime of arrived jobs, vector"
attr unit s
0	0	0	0
0	17	5.116053541883	1
0	21	7.342774285581	2
0	22	7.383017765291	1
0	27	8.333070114209	0
0	49	14.921397937876	1
0	53	16.852308224163	0
0	74	24.367764384458	1
0	77	25.351918954889	0
0	84	27.464623418689	1
0	85	28.135974451275	0
0	113	35.207335991301	1
0	114	36.262561519772	0
0	125	37.748375138348	1
0	128	38.604200650273	0
0	150	43.341271663646	1
0	152	44.954368040166	2
0	155	46.705176565489	1
0	161	49.219013597689	0
0	167	49.579718600281	1
0	170	50.703953009104	0
0	176	50.7361020046	1
0	179	52.986397610726	2
0	181	54.196106552133	3
0	182	56.446484510288	2
0	190	58.908657144673	3
0	192	59.052695198416	4
0	193	59.119019365128	3
0	199	60.36692179027	2
0	206	61.928999200102	3
0	207	61.970724559678	2
0	213	62.611050887467	1
0	219	63.508071403333	2
0	221	67.776763508118	1
0	226	67.936581757293	0
0	232	68.209831366687	1
0	233	69.460847197748	0
0	241	70.11505169076	1
0	246	71.016579084456	0
0	259	73.768313709795	1
0	261	77.059872690325	0
0	272	79.733978429689	1
0	274	81.49739305318	0
0	290	90.959223231066	1
0	291	90.967915007747	0
0	321	97.545099213811	1
1	0	0	0
2	0	0	0
2	13	4.699012251547	1
2	15	4.7684529154	2
2	31	11.349965285439	3
2	34	11.764281548643	2
2	43	14.085809473395	1
2	52	16.204150641556	2
2	59	20.62034243119	3
2	60	20.721520851117	2
2	65	22.388398575834	1
2	70	24.038664516754	0
2	91	28.637483769831	1
2	92	29.166761790474	0
2	96	29.914248028931	1
2	100	33.946917391616	0
2	143	43.061709390661	1
2	144	43.06817968865	0
2	239	69.853051195461	1
2	243	70.347478536882	2
2	253	71.346756849781	3
2	257	72.659014317615	4
2	266	79.024722358283	3
2	280	81.801044776063	4
2	283	88.055409274174	5
2	284	89.185170962882	4
2	298	92.075137280308	5
2	299	92.366293678274	4
2	305	93.04752875706	3
2	310	94.299197922066	2
2	315	96.842708655427	1
3	8	1.95605794728	1.481728780304
3	24	7.383017765291	3.179449910411
3	29	8.333070114209	3.217016572326
3	36	11.764281548643	4.421507263062
3	45	14.085809473395	9.386797221848
3	55	16.852308224163	12.083855308763
3	62	20.721520851117	5.800122913241
3	67	22.388398575834	11.038433290395
3	72	24.038664516754	7.834513875198
3	79	25.351918954889	4.731576523699
3	87	28.135974451275	3.768210066817
3	94	29.166761790474	1.702138371785
3	102	33.946917391616	5.309433621785
3	106	33.975458588185	4.061210559254
3	116	36.262561519772	1.759466097709
3	120	36.294143618712	1.086807627411
3	130	38.604200650273	1.173983318953
3	134	38.756123685988	1.00774854764
3	146	43.06817968865	1.482732260788
3	157	46.705176565489	3.643467174828
3	163	49.219013597689	5.877741934043
3	172	50.703953009104	5.749584968938
3	184	56.446484510288	6.866765910007
3	195	59.119019365128	8.382917360528
3	201	60.36692179027	7.380524179544
3	209	61.970724559678	7.774618007545
3	215	62.611050887467	3.702393742794
3	223	67.776763508118	8.724068309702
3	228	67.936581757293	6.007582557191
3	235	69.460847197748	5.952775794415
3	248	71.016579084456	2.806747717769
3	263	77.059872690325	6.944820999565
3	268	79.024722358283	5.256408648488
3	276	81.49739305318	11.644341857719
3	286	89.185170962882	9.451192533193
3	293	90.967915007747	20.620436470865
3	301	92.366293678274	1.407070447208
3	307	93.04752875706	21.700771907279
3	312	94.299197922066	21.640183604451
3	317	96.842708655427	15.041663879364
4	8	1.95605794728	1.481728780304
4	45	14.085809473395	9.386797221848
4	55	16.852308224163	12.083855308763
4	67	22.388398575834	11.038433290395
4	72	24.038664516754	7.834513875198
4	79	25.351918954889	4.731576523699
4	102	33.946917391616	5.309433621785
4	106	33.975458588185	4.061210559254
4	130	38.604200650273	1.173983318953
4	146	43.06817968865	1.482732260788
4	157	46.705176565489	3.643467174828
4	276	81.49739305318	11.644341857719
4	293	90.967915007747	20.620436470865
4	307	93.04752875706	21.700771907279
4	312	94.299197922066	21.640183604451
4	317	96.842708655427	15.041663879364
5	24	7.383017765291	3.179449910411
5	29	8.333070114209	3.217016572326
5	36	11.764281548643	4.421507263062
5	62	20.721520851117	5.800122913241
5	87	28.135974451275	3.768210066817
5	94	29.166761790474	1.702138371785
5	116	36.262561519772	1.759466097709
5	120	36.294143618712	1.086807627411
5	134	38.756123685988	1.00774854764
5	163	49.219013597689	5.877741934043
5	172	50.703953009104	5.749584968938
5	184	56.446484510288	6.866765910007
5	195	59.119019365128	8.382917360528
5	201	60.36692179027	7.380524179544
5	209	61.970724559678	7.774618007545
5	215	62.611050887467	3.702393742794
5	223	67.776763508118	8.724068309702
5	228	67.936581757293	6.007582557191
5	235	69.460847197748	5.952775794415
5	248	71.016579084456	2.806747717769
5	263	77.059872690325	6.944820999565
5	268	79.024722358283	5.256408648488
5	286	89.185170962882	9.451192533193
5	301	92.366293678274	1.407070447208

