version 2
run Third-n4-11-20191125-12:37:57-10560
attr configname Third-n4
attr datetime 20191125-12:37:57
attr experiment Third-n4
attr inifile omnetpp.ini
attr iterationvars ""
attr iterationvarsf ""
attr measurement ""
attr network org.omnetpp.queueing.Pizza
attr processid 10560
attr repetition 11
attr replication ""
attr resultdir results_no_transient
attr runnumber 11
attr seedset 11
param **.PS.maxInventoriedPS 4
param **.U1.interArrivalTime exponential(4s)
param **.U2.interArrivalTime exponential(6s)
param **.PS.serviceTimeForInventoryU1 exponential(1.4s)
param **.PS.serviceTimeForInventoryU2 exponential(1.4s)
param **.PS.serviceTimeDirectU1 exponential(1.8s)
param **.PS.serviceTimeDirectU2 exponential(1.8s)
param **.PS.probabilityProducing 0.8
param **.CS.serviceTimeU1 exponential(2.3s)
param **.CS.serviceTimeU2 exponential(2.3s)

vector 0 Pizza.EntryQueueU1 queueLength:vector ETV
attr interpolationmode sample-hold
attr title "queue length, vector"
vector 1 Pizza.CS queueLength:vector ETV
attr interpolationmode sample-hold
attr title "queue length, vector"
vector 2 Pizza.EntryQueueU2 queueLength:vector ETV
attr interpolationmode sample-hold
attr title "queue length, vector"
vector 3 Pizza.sink lifeTime:vector ETV
attr interpolationmode none
attr title "lifetime of arrived jobs, vector"
attr unit s
vector 4 Pizza.sink lifeTimeU2:vector ETV
attr interpolationmode none
attr title "lifetime of arrived jobs, vector"
attr unit s
vector 5 Pizza.sink lifeTimeU1:vector ETV
attr interpolationmode none
attr title "lifetime of arrived jobs, vector"
attr unit s
0	0	0	0
0	7	0.795119552695	1
0	9	1.6583795449	2
0	12	2.647125681843	1
0	22	6.821355299315	2
0	24	9.056364407368	1
0	31	14.216213171531	0
0	37	15.639857745999	1
0	39	16.517548097748	0
0	47	20.105051737807	1
0	49	20.206935410031	2
0	53	25.898430018767	3
0	54	26.80386387233	2
0	59	27.287678230934	1
0	64	27.560003080746	0
0	110	37.502425483873	1
0	111	37.573458046922	0
0	117	38.375983739429	1
0	118	38.458344121001	0
0	122	38.526553335383	1
0	124	38.550624351588	2
0	128	39.922071294115	3
0	132	41.192731569714	2
0	137	42.797574569469	1
0	143	44.307693681319	0
0	168	49.354475758984	1
0	170	51.05500702156	0
0	199	61.691696140586	1
0	201	62.067114063015	2
0	202	62.334197784537	1
0	208	62.603578787839	0
0	231	66.779980271734	1
0	235	69.739004312013	0
0	244	73.939922262322	1
0	245	74.285721850962	0
0	269	78.703703423339	1
0	271	79.642998843475	2
0	272	79.671930147439	1
0	281	82.53039712683	0
0	292	83.942882870354	1
0	295	84.326348394518	2
0	298	86.057958411411	3
0	300	86.776942021776	4
0	301	87.150990738096	3
0	306	87.326252229757	2
0	313	88.461572270153	3
0	317	89.583538934716	2
0	323	89.917642173378	3
0	324	90.417775769974	2
0	330	92.969294827473	3
0	332	93.912125683039	2
0	339	95.117313933693	3
0	346	98.995279768466	2
1	0	0	0
2	0	0	0
2	5	0.542514817516	1
2	19	4.275500086219	2
2	51	21.339405408182	3
2	70	27.947760362654	2
2	75	28.079512393523	1
2	80	28.185184244646	0
2	104	36.590457036455	1
2	106	36.98528615526	2
2	108	37.249019644307	3
2	130	39.970170736162	4
2	148	44.457083439236	3
2	154	45.344454899043	2
2	161	48.122535810022	1
2	178	53.474733248064	0
2	233	67.748013403694	1
2	241	70.055017751949	2
2	251	74.788351569743	1
2	256	75.723508758445	0
2	262	76.32072454342	1
2	263	77.048724685865	0
2	280	81.735494246964	1
2	286	83.357873050573	0
2	316	89.484467211847	1
2	342	95.401493242667	2
3	14	2.647125681843	2.222615153374
3	26	9.056364407368	8.261244854673
3	33	14.216213171531	12.557833626631
3	41	16.517548097748	9.696192798433
3	56	26.80386387233	11.164006126331
3	61	27.287678230934	7.182626493127
3	66	27.560003080746	7.353067670715
3	72	27.947760362654	2.049330343887
3	77	28.079512393523	27.536997576007
3	82	28.185184244646	23.909684158427
3	86	30.453466741773	9.114061333591
3	95	34.343467546749	1.623986823869
3	113	37.573458046922	1.168120409351
3	120	38.458344121001	0.955918637128
3	134	41.192731569714	2.816747830285
3	139	42.797574569469	4.271021234086
3	145	44.307693681319	5.757069329731
3	150	44.457083439236	4.535012145121
3	156	45.344454899043	8.753997862588
3	163	48.122535810022	11.137249654762
3	172	51.05500702156	13.805987377253
3	180	53.474733248064	4.12025748908
3	184	54.244648713834	14.274477977672
3	191	56.664692651748	0.738924916975
3	204	62.334197784537	1.046928308973
3	210	62.603578787839	0.911882647253
3	215	63.990171269105	1.92305720609
3	223	65.790862938695	1.247578419976
3	237	69.739004312013	3.101951812579
3	247	74.285721850962	7.505741579228
3	253	74.788351569743	0.848429307421
3	258	75.723508758445	7.975495354751
3	265	77.048724685865	6.993706933916
3	274	79.671930147439	3.351205604019
3	283	82.53039712683	3.826693703491
3	288	83.357873050573	3.714874207098
3	303	87.150990738096	5.415496491132
3	308	87.326252229757	3.383369359403
3	319	89.583538934716	5.257190540198
3	326	90.417775769974	4.359817358563
3	334	93.912125683039	7.135183661263
3	348	98.995279768466	10.533707498313
4	14	2.647125681843	2.222615153374
4	77	28.079512393523	27.536997576007
4	82	28.185184244646	23.909684158427
4	86	30.453466741773	9.114061333591
4	156	45.344454899043	8.753997862588
4	163	48.122535810022	11.137249654762
4	172	51.05500702156	13.805987377253
4	184	54.244648713834	14.274477977672
4	237	69.739004312013	3.101951812579
4	258	75.723508758445	7.975495354751
4	265	77.048724685865	6.993706933916
4	274	79.671930147439	3.351205604019
4	303	87.150990738096	5.415496491132
5	26	9.056364407368	8.261244854673
5	33	14.216213171531	12.557833626631
5	41	16.517548097748	9.696192798433
5	56	26.80386387233	11.164006126331
5	61	27.287678230934	7.182626493127
5	66	27.560003080746	7.353067670715
5	72	27.947760362654	2.049330343887
5	95	34.343467546749	1.623986823869
5	113	37.573458046922	1.168120409351
5	120	38.458344121001	0.955918637128
5	134	41.192731569714	2.816747830285
5	139	42.797574569469	4.271021234086
5	145	44.307693681319	5.757069329731
5	150	44.457083439236	4.535012145121
5	180	53.474733248064	4.12025748908
5	191	56.664692651748	0.738924916975
5	204	62.334197784537	1.046928308973
5	210	62.603578787839	0.911882647253
5	215	63.990171269105	1.92305720609
5	223	65.790862938695	1.247578419976
5	247	74.285721850962	7.505741579228
5	253	74.788351569743	0.848429307421
5	283	82.53039712683	3.826693703491
5	288	83.357873050573	3.714874207098
5	308	87.326252229757	3.383369359403
5	319	89.583538934716	5.257190540198
5	326	90.417775769974	4.359817358563
5	334	93.912125683039	7.135183661263
5	348	98.995279768466	10.533707498313

