version 2
run Third-n4-7-20191125-12:37:53-11044
attr configname Third-n4
attr datetime 20191125-12:37:53
attr experiment Third-n4
attr inifile omnetpp.ini
attr iterationvars ""
attr iterationvarsf ""
attr measurement ""
attr network org.omnetpp.queueing.Pizza
attr processid 11044
attr repetition 7
attr replication ""
attr resultdir results_no_transient
attr runnumber 7
attr seedset 7
param **.PS.maxInventoriedPS 4
param **.U1.interArrivalTime exponential(4s)
param **.U2.interArrivalTime exponential(6s)
param **.PS.serviceTimeForInventoryU1 exponential(1.4s)
param **.PS.serviceTimeForInventoryU2 exponential(1.4s)
param **.PS.serviceTimeDirectU1 exponential(1.8s)
param **.PS.serviceTimeDirectU2 exponential(1.8s)
param **.PS.probabilityProducing 0.8
param **.CS.serviceTimeU1 exponential(2.3s)
param **.CS.serviceTimeU2 exponential(2.3s)

vector 0 Pizza.EntryQueueU1 queueLength:vector ETV
attr interpolationmode sample-hold
attr title "queue length, vector"
vector 1 Pizza.CS queueLength:vector ETV
attr interpolationmode sample-hold
attr title "queue length, vector"
vector 2 Pizza.EntryQueueU2 queueLength:vector ETV
attr interpolationmode sample-hold
attr title "queue length, vector"
vector 3 Pizza.sink lifeTime:vector ETV
attr interpolationmode none
attr title "lifetime of arrived jobs, vector"
attr unit s
vector 4 Pizza.sink lifeTimeU1:vector ETV
attr interpolationmode none
attr title "lifetime of arrived jobs, vector"
attr unit s
vector 5 Pizza.sink lifeTimeU2:vector ETV
attr interpolationmode none
attr title "lifetime of arrived jobs, vector"
attr unit s
0	0	0	0
0	14	6.37254240671	1
0	20	9.46559952548	2
0	22	9.828553224905	3
0	24	10.127667818756	4
0	29	12.302249280922	5
0	30	12.428367818012	4
0	39	13.53134411258	3
0	44	14.083382751486	2
0	55	20.426423279617	3
0	56	21.003944443883	2
0	62	21.473456065495	3
0	66	24.60181171403	2
0	72	27.14486861618	1
0	78	27.672082345875	0
0	96	31.06668572498	1
0	102	31.858426086311	2
0	105	33.096660235571	1
0	112	34.270503559022	2
0	113	35.56039755119	1
0	119	36.120875101597	2
0	123	36.866796676907	1
0	128	40.495722652635	0
0	135	41.203094005582	1
0	138	43.603911167141	0
0	144	44.007449698173	1
0	145	44.29376832876	0
0	153	46.151243887286	1
0	154	46.824679555033	0
0	172	52.239434697836	1
0	173	52.590239025842	0
0	179	53.717043820736	1
0	181	54.465013686487	0
0	187	54.789191207241	1
0	188	55.831291791302	0
0	215	62.335253683204	1
0	218	62.829137118417	0
0	227	65.123260004489	1
0	229	66.316639434076	2
0	230	66.373260144145	1
0	239	68.694342805998	2
0	241	69.160502921129	3
0	243	71.032457824656	2
0	249	71.629919035863	3
0	252	72.508395464649	4
0	253	76.053191873106	3
0	263	80.860713975856	4
0	264	82.490221630208	3
0	270	82.811127898629	4
0	273	83.584396091787	5
0	274	83.975594467266	4
0	279	84.341682589428	3
0	285	85.617749541622	4
0	288	85.904816695766	5
0	290	86.696476002444	4
0	296	88.467459229133	5
0	297	88.803107837009	4
0	306	92.762884058456	3
0	313	93.82203905229	4
0	314	93.907324857783	3
0	323	95.700563047872	2
0	329	96.01597451537	1
0	334	97.378207722882	0
1	0	0	0
2	0	0	0
2	7	1.547489848107	1
2	8	3.965444219319	0
2	12	5.195749562442	1
2	16	7.404876200151	2
2	18	9.242974324641	3
2	38	13.415318074359	4
2	53	20.109574587039	5
2	83	28.743486428514	4
2	89	29.72989083222	3
2	100	31.544302652034	4
2	104	32.067514934376	5
2	122	36.821808889625	6
2	160	49.564567320293	5
2	166	52.206305419509	4
2	194	58.324149449761	3
2	199	59.173378654012	2
2	204	59.404486603225	1
2	209	60.934428309578	0
2	217	62.530400367007	1
2	225	64.883557342918	2
2	236	68.099410558984	3
2	261	77.648724537429	4
2	304	90.157703634482	5
2	321	94.479593112059	6
2	340	97.581143984273	7
2	341	97.961727146854	6
2	346	98.38896576104	5
3	10	3.965444219319	3.647936573444
3	32	12.428367818012	10.880877969905
3	41	13.53134411258	7.15880170587
3	46	14.083382751486	4.617783226006
3	58	21.003944443883	11.175391218978
3	68	24.60181171403	14.474143895274
3	74	27.14486861618	14.842619335258
3	80	27.672082345875	7.245659066258
3	85	28.743486428514	7.270030363019
3	91	29.72989083222	24.534141269778
3	107	33.096660235571	25.69178403542
3	115	35.56039755119	4.49371182621
3	125	36.866796676907	5.008370590596
3	130	40.495722652635	6.225219093613
3	140	43.603911167141	7.483036065544
3	147	44.29376832876	3.090674323178
3	156	46.824679555033	2.81722985686
3	162	49.564567320293	3.413323433007
3	168	52.206305419509	42.963331094868
3	175	52.590239025842	39.174920951483
3	183	54.465013686487	2.225578988651
3	190	55.831291791302	2.114247970566
3	196	58.324149449761	3.53495824252
3	201	59.173378654012	39.063804066973
3	206	59.404486603225	27.860183951191
3	211	60.934428309578	28.866913375202
3	220	62.829137118417	26.007328228792
3	232	66.373260144145	4.038006460941
3	245	71.032457824656	5.909197820167
3	255	76.053191873106	9.73655243903
3	266	82.490221630208	13.79587882421
3	276	83.975594467266	14.815091546137
3	281	84.341682589428	12.711763553565
3	292	86.696476002444	14.188080537795
3	299	88.803107837009	7.942393861153
3	308	92.762884058456	9.951756159827
3	316	93.907324857783	10.322928765996
3	325	95.700563047872	10.08281350625
3	331	96.01597451537	10.111157819604
3	336	97.378207722882	8.910748493749
3	343	97.961727146854	4.139688094564
3	348	98.38896576104	35.858565394033
4	10	3.965444219319	3.647936573444
4	41	13.53134411258	7.15880170587
4	46	14.083382751486	4.617783226006
4	58	21.003944443883	11.175391218978
4	68	24.60181171403	14.474143895274
4	74	27.14486861618	14.842619335258
4	80	27.672082345875	7.245659066258
4	85	28.743486428514	7.270030363019
4	115	35.56039755119	4.49371182621
4	125	36.866796676907	5.008370590596
4	130	40.495722652635	6.225219093613
4	140	43.603911167141	7.483036065544
4	147	44.29376832876	3.090674323178
4	156	46.824679555033	2.81722985686
4	162	49.564567320293	3.413323433007
4	183	54.465013686487	2.225578988651
4	190	55.831291791302	2.114247970566
4	196	58.324149449761	3.53495824252
4	232	66.373260144145	4.038006460941
4	245	71.032457824656	5.909197820167
4	255	76.053191873106	9.73655243903
4	266	82.490221630208	13.79587882421
4	276	83.975594467266	14.815091546137
4	281	84.341682589428	12.711763553565
4	292	86.696476002444	14.188080537795
4	299	88.803107837009	7.942393861153
4	308	92.762884058456	9.951756159827
4	316	93.907324857783	10.322928765996
4	325	95.700563047872	10.08281350625
4	331	96.01597451537	10.111157819604
4	336	97.378207722882	8.910748493749
4	343	97.961727146854	4.139688094564
5	32	12.428367818012	10.880877969905
5	91	29.72989083222	24.534141269778
5	107	33.096660235571	25.69178403542
5	168	52.206305419509	42.963331094868
5	175	52.590239025842	39.174920951483
5	201	59.173378654012	39.063804066973
5	206	59.404486603225	27.860183951191
5	211	60.934428309578	28.866913375202
5	220	62.829137118417	26.007328228792
5	348	98.38896576104	35.858565394033

