version 2
run Third-n4-8-20191125-12:37:54-9180
attr configname Third-n4
attr datetime 20191125-12:37:54
attr experiment Third-n4
attr inifile omnetpp.ini
attr iterationvars ""
attr iterationvarsf ""
attr measurement ""
attr network org.omnetpp.queueing.Pizza
attr processid 9180
attr repetition 8
attr replication ""
attr resultdir results_no_transient
attr runnumber 8
attr seedset 8
param **.PS.maxInventoriedPS 4
param **.U1.interArrivalTime exponential(4s)
param **.U2.interArrivalTime exponential(6s)
param **.PS.serviceTimeForInventoryU1 exponential(1.4s)
param **.PS.serviceTimeForInventoryU2 exponential(1.4s)
param **.PS.serviceTimeDirectU1 exponential(1.8s)
param **.PS.serviceTimeDirectU2 exponential(1.8s)
param **.PS.probabilityProducing 0.8
param **.CS.serviceTimeU1 exponential(2.3s)
param **.CS.serviceTimeU2 exponential(2.3s)

vector 0 Pizza.EntryQueueU1 queueLength:vector ETV
attr interpolationmode sample-hold
attr title "queue length, vector"
vector 1 Pizza.CS queueLength:vector ETV
attr interpolationmode sample-hold
attr title "queue length, vector"
vector 2 Pizza.EntryQueueU2 queueLength:vector ETV
attr interpolationmode sample-hold
attr title "queue length, vector"
vector 3 Pizza.sink lifeTime:vector ETV
attr interpolationmode none
attr title "lifetime of arrived jobs, vector"
attr unit s
vector 4 Pizza.sink lifeTimeU2:vector ETV
attr interpolationmode none
attr title "lifetime of arrived jobs, vector"
attr unit s
vector 5 Pizza.sink lifeTimeU1:vector ETV
attr interpolationmode none
attr title "lifetime of arrived jobs, vector"
attr unit s
0	0	0	0
0	38	19.589085707878	1
0	44	21.213591295161	2
0	46	22.457269291911	3
0	50	22.72956414664	4
0	51	23.003662665856	3
0	58	23.826046577514	2
0	66	25.567446976432	1
0	71	27.225243397681	0
0	89	38.997386789302	1
0	90	39.527353170063	0
0	114	44.775795641505	1
0	116	45.060448526285	2
0	117	45.729145199416	1
0	124	49.245711986723	2
0	126	49.375838478079	3
0	127	49.380514662957	2
0	133	49.509813523765	3
0	135	50.536670591414	4
0	139	52.971895003665	3
0	145	53.430611439985	2
0	151	54.911379535273	1
0	159	59.172659858788	0
0	176	68.432017800073	1
0	178	70.310359098277	2
0	183	73.49323055685	1
0	190	75.661938475822	2
0	191	76.010625418012	1
0	197	76.172341451231	0
0	209	77.983298672337	1
0	210	78.128264166145	0
0	221	81.639334513194	1
0	225	84.376663501914	2
0	227	84.876733955537	3
0	228	86.95094700586	2
0	233	87.027094933289	1
0	240	88.415227344401	2
0	243	89.960110929187	3
0	245	90.869770416439	4
0	246	91.103430040291	3
0	252	92.58897624596	2
0	258	93.418636680554	3
0	262	94.843488409353	2
0	267	95.552646957234	1
0	272	96.005600341651	0
1	0	0	0
2	0	0	0
2	40	20.821417105865	1
2	42	21.153293415785	2
2	48	22.634846045877	3
2	65	24.707920619574	4
2	78	36.846463416072	3
2	83	37.584376560047	2
2	95	40.289568982838	1
2	101	41.592454862272	0
2	107	42.132739795298	1
2	108	44.109725861916	0
2	137	51.82112795465	1
2	158	56.884049803883	2
2	164	59.415977737862	1
2	170	66.923670313856	0
2	174	68.097367080597	1
2	182	72.253081261314	2
2	203	77.47124980487	1
2	216	78.761030734007	2
2	219	80.956154021255	3
2	223	84.065224201157	4
2	261	94.447486426805	5
2	277	97.178033467515	4
2	283	98.948634628021	5
3	10	2.300462636808	2.233402647177
3	22	9.453005359646	1.185185157042
3	31	12.680645169672	1.277157292802
3	53	23.003662665856	4.7793304802
3	60	23.826046577514	4.236960869636
3	68	25.567446976432	4.353855681271
3	73	27.225243397681	4.76797410577
3	80	36.846463416072	14.116899269432
3	85	37.584376560047	16.762959454182
3	92	39.527353170063	18.374059754278
3	97	40.289568982838	1.292182193536
3	103	41.592454862272	18.957608816395
3	110	44.109725861916	19.401805242342
3	119	45.729145199416	3.596405404118
3	129	49.380514662957	4.604719021452
3	141	52.971895003665	7.91144647738
3	147	53.430611439985	4.184899453262
3	153	54.911379535273	5.535541057194
3	161	59.172659858788	9.662846335023
3	166	59.415977737862	8.879307146448
3	172	66.923670313856	15.102542359206
3	185	73.49323055685	16.609180752967
3	193	76.010625418012	7.578607617939
3	199	76.172341451231	5.861982352954
3	205	77.47124980487	1.809311329048
3	212	78.128264166145	10.030897085548
3	230	86.95094700586	8.967648333523
3	235	87.027094933289	5.387760420095
3	248	91.103430040291	6.726766538377
3	254	92.58897624596	7.712242290423
3	264	94.843488409353	6.428261064952
3	269	95.552646957234	5.592536028047
3	274	96.005600341651	5.135829925212
3	279	97.178033467515	3.759396786961
4	10	2.300462636808	2.233402647177
4	85	37.584376560047	16.762959454182
4	92	39.527353170063	18.374059754278
4	103	41.592454862272	18.957608816395
4	110	44.109725861916	19.401805242342
4	119	45.729145199416	3.596405404118
4	172	66.923670313856	15.102542359206
4	185	73.49323055685	16.609180752967
4	212	78.128264166145	10.030897085548
5	22	9.453005359646	1.185185157042
5	31	12.680645169672	1.277157292802
5	53	23.003662665856	4.7793304802
5	60	23.826046577514	4.236960869636
5	68	25.567446976432	4.353855681271
5	73	27.225243397681	4.76797410577
5	80	36.846463416072	14.116899269432
5	97	40.289568982838	1.292182193536
5	129	49.380514662957	4.604719021452
5	141	52.971895003665	7.91144647738
5	147	53.430611439985	4.184899453262
5	153	54.911379535273	5.535541057194
5	161	59.172659858788	9.662846335023
5	166	59.415977737862	8.879307146448
5	193	76.010625418012	7.578607617939
5	199	76.172341451231	5.861982352954
5	205	77.47124980487	1.809311329048
5	230	86.95094700586	8.967648333523
5	235	87.027094933289	5.387760420095
5	248	91.103430040291	6.726766538377
5	254	92.58897624596	7.712242290423
5	264	94.843488409353	6.428261064952
5	269	95.552646957234	5.592536028047
5	274	96.005600341651	5.135829925212
5	279	97.178033467515	3.759396786961

