version 2
run Third-n3-1-20191125-12:37:42-2672
attr configname Third-n3
attr datetime 20191125-12:37:42
attr experiment Third-n3
attr inifile omnetpp.ini
attr iterationvars ""
attr iterationvarsf ""
attr measurement ""
attr network org.omnetpp.queueing.Pizza
attr processid 2672
attr repetition 1
attr replication ""
attr resultdir results_no_transient
attr runnumber 1
attr seedset 1
param **.PS.maxInventoriedPS 3
param **.U1.interArrivalTime exponential(4s)
param **.U2.interArrivalTime exponential(6s)
param **.PS.serviceTimeForInventoryU1 exponential(1.4s)
param **.PS.serviceTimeForInventoryU2 exponential(1.4s)
param **.PS.serviceTimeDirectU1 exponential(1.8s)
param **.PS.serviceTimeDirectU2 exponential(1.8s)
param **.PS.probabilityProducing 0.8
param **.CS.serviceTimeU1 exponential(2.3s)
param **.CS.serviceTimeU2 exponential(2.3s)

vector 0 Pizza.EntryQueueU1 queueLength:vector ETV
attr interpolationmode sample-hold
attr title "queue length, vector"
vector 1 Pizza.CS queueLength:vector ETV
attr interpolationmode sample-hold
attr title "queue length, vector"
vector 2 Pizza.EntryQueueU2 queueLength:vector ETV
attr interpolationmode sample-hold
attr title "queue length, vector"
vector 3 Pizza.sink lifeTime:vector ETV
attr interpolationmode none
attr title "lifetime of arrived jobs, vector"
attr unit s
vector 4 Pizza.sink lifeTimeU1:vector ETV
attr interpolationmode none
attr title "lifetime of arrived jobs, vector"
attr unit s
vector 5 Pizza.sink lifeTimeU2:vector ETV
attr interpolationmode none
attr title "lifetime of arrived jobs, vector"
attr unit s
0	0	0	0
0	8	7.254924258687	1
0	10	7.84011273442	0
0	16	8.332140089392	1
0	18	8.815258635677	0
0	35	15.737672235488	1
0	37	17.604517254212	0
0	44	18.181765079521	1
0	45	24.042168060164	0
0	51	24.209096075492	1
0	55	30.702381512206	2
0	56	31.977690360922	1
0	62	33.622892332747	2
0	65	36.583740458197	1
0	70	36.675367580254	0
0	92	44.745786393848	1
0	94	45.330805968717	0
0	123	52.179502680845	1
0	129	53.164449650146	0
0	161	62.919842962633	1
0	163	63.554553276067	2
0	166	64.889530275736	1
0	172	66.643020037514	0
0	198	76.097810954341	1
0	200	76.218828734527	2
0	204	79.751752247013	3
0	207	80.97616707879	2
0	214	86.097997716506	1
0	221	88.527745347719	0
0	227	89.100537607486	1
0	233	90.863762088963	0
0	249	94.279016917476	1
0	251	95.806425049995	0
0	257	96.514119813056	1
0	263	97.391981691108	0
1	0	0	0
2	0	0	0
2	64	35.236349165888	1
2	75	36.815830002029	0
2	125	52.361240245549	1
2	128	52.96793917769	2
2	135	53.484827933863	1
2	140	53.685681029125	0
2	178	66.989145977196	1
2	179	68.205552232004	0
2	186	70.197594684514	1
2	188	70.476030803188	2
2	189	71.541095456058	1
2	194	75.428472296106	0
2	202	77.016229652295	1
2	229	89.896155613616	2
2	232	90.706367076099	3
2	238	91.868543526277	2
2	243	92.5921510666	1
2	259	96.570135416067	2
2	261	97.030074172576	3
2	270	97.761357985475	4
2	272	98.766639379049	3
2	277	99.388864366965	2
3	12	7.84011273442	5.681689428373
3	20	8.815258635677	1.56033437699
3	24	10.064939206516	1.732799117124
3	39	17.604517254212	4.840803781437
3	47	24.042168060164	8.304495824676
3	58	31.977690360922	13.795925281401
3	67	36.583740458197	12.374644382705
3	72	36.675367580254	5.972986068048
3	77	36.815830002029	3.192937669282
3	81	37.053938311987	1.817589146099
3	96	45.330805968717	2.707690159114
3	101	45.41077420886	0.664987815012
3	109	49.00971912807	3.171662650629
3	116	51.440753396322	0.577734367723
3	131	53.164449650146	1.456917883147
3	137	53.484827933863	1.305325253018
3	142	53.685681029125	1.324440783576
3	146	59.406345436982	6.438406259292
3	154	62.566184851739	0.816839704798
3	168	64.889530275736	2.189043688001
3	174	66.643020037514	3.723177074881
3	181	68.205552232004	4.650998955937
3	191	71.541095456058	4.551949478862
3	196	75.428472296106	5.230877611592
3	209	80.97616707879	10.500136275602
3	216	86.097997716506	10.000186762165
3	223	88.527745347719	12.308916613192
3	235	90.863762088963	11.11200984195
3	240	91.868543526277	2.768005918791
3	245	92.5921510666	15.575921414305
3	253	95.806425049995	5.910269436379
3	265	97.391981691108	3.112964773632
3	274	98.766639379049	2.252519565993
3	279	99.388864366965	8.682497290866
4	12	7.84011273442	5.681689428373
4	20	8.815258635677	1.56033437699
4	24	10.064939206516	1.732799117124
4	39	17.604517254212	4.840803781437
4	47	24.042168060164	8.304495824676
4	58	31.977690360922	13.795925281401
4	67	36.583740458197	12.374644382705
4	72	36.675367580254	5.972986068048
4	77	36.815830002029	3.192937669282
4	96	45.330805968717	2.707690159114
4	101	45.41077420886	0.664987815012
4	116	51.440753396322	0.577734367723
4	137	53.484827933863	1.305325253018
4	154	62.566184851739	0.816839704798
4	168	64.889530275736	2.189043688001
4	174	66.643020037514	3.723177074881
4	181	68.205552232004	4.650998955937
4	216	86.097997716506	10.000186762165
4	223	88.527745347719	12.308916613192
4	235	90.863762088963	11.11200984195
4	240	91.868543526277	2.768005918791
4	265	97.391981691108	3.112964773632
4	274	98.766639379049	2.252519565993
5	81	37.053938311987	1.817589146099
5	109	49.00971912807	3.171662650629
5	131	53.164449650146	1.456917883147
5	142	53.685681029125	1.324440783576
5	146	59.406345436982	6.438406259292
5	191	71.541095456058	4.551949478862
5	196	75.428472296106	5.230877611592
5	209	80.97616707879	10.500136275602
5	245	92.5921510666	15.575921414305
5	253	95.806425049995	5.910269436379
5	279	99.388864366965	8.682497290866

