version 2
run Third-n5-17-20191125-12:38:13-6344
attr configname Third-n5
attr datetime 20191125-12:38:13
attr experiment Third-n5
attr inifile omnetpp.ini
attr iterationvars ""
attr iterationvarsf ""
attr measurement ""
attr network org.omnetpp.queueing.Pizza
attr processid 6344
attr repetition 17
attr replication ""
attr resultdir results_no_transient
attr runnumber 17
attr seedset 17
param **.PS.maxInventoriedPS 5
param **.U1.interArrivalTime exponential(4s)
param **.U2.interArrivalTime exponential(6s)
param **.PS.serviceTimeForInventoryU1 exponential(1.4s)
param **.PS.serviceTimeForInventoryU2 exponential(1.4s)
param **.PS.serviceTimeDirectU1 exponential(1.8s)
param **.PS.serviceTimeDirectU2 exponential(1.8s)
param **.PS.probabilityProducing 0.8
param **.CS.serviceTimeU1 exponential(2.3s)
param **.CS.serviceTimeU2 exponential(2.3s)

vector 0 Pizza.EntryQueueU1 queueLength:vector ETV
attr interpolationmode sample-hold
attr title "queue length, vector"
vector 1 Pizza.CS queueLength:vector ETV
attr interpolationmode sample-hold
attr title "queue length, vector"
vector 2 Pizza.EntryQueueU2 queueLength:vector ETV
attr interpolationmode sample-hold
attr title "queue length, vector"
vector 3 Pizza.sink lifeTime:vector ETV
attr interpolationmode none
attr title "lifetime of arrived jobs, vector"
attr unit s
vector 4 Pizza.sink lifeTimeU2:vector ETV
attr interpolationmode none
attr title "lifetime of arrived jobs, vector"
attr unit s
vector 5 Pizza.sink lifeTimeU1:vector ETV
attr interpolationmode none
attr title "lifetime of arrived jobs, vector"
attr unit s
0	0	0	0
0	5	1.396329674268	1
0	7	2.246730910068	2
0	15	8.107354914916	1
0	22	9.125971289312	0
0	33	11.034763139415	1
0	35	11.174425995395	2
0	44	14.397887362564	1
0	50	15.210779199654	0
0	66	19.566168863545	1
0	67	20.361240466719	0
0	78	20.974377260197	1
0	82	23.280411718354	0
0	98	26.656252009643	1
0	101	26.980047353248	0
0	108	29.775886139333	1
0	113	34.598697638291	0
0	124	36.159362259068	1
0	126	36.199111327989	2
0	128	37.846942727973	1
0	135	41.298022626225	0
0	142	44.946732104391	1
0	143	45.349200168606	0
0	149	46.307121687748	1
0	150	47.040374318938	0
0	166	47.979054237125	1
0	172	51.005886260454	0
0	180	51.456442627179	1
0	185	57.807043488631	2
0	186	58.259213193788	1
0	193	60.208511087015	2
0	195	63.959187954276	1
0	201	64.406093724871	2
0	204	69.436196536465	3
0	205	69.575414582627	2
0	211	69.781634131198	3
0	213	72.159432355554	2
0	221	75.695697487278	1
0	227	76.298837348414	0
0	245	77.604153729569	1
0	247	78.053107321518	2
0	250	78.696481681427	3
0	251	78.902230201884	2
0	262	83.232655867538	1
0	270	87.943762465697	0
0	288	91.606714947754	1
0	291	92.997411885131	0
0	312	99.104015264517	1
1	0	0	0
2	0	0	0
2	11	5.741358486445	1
2	21	8.909425736444	2
2	28	9.162316503898	3
2	29	9.268394035948	2
2	43	14.231963370986	3
2	56	16.370576347959	2
2	60	17.079446905093	3
2	64	19.438498224673	4
2	73	20.370734240875	5
2	74	20.491939758536	4
2	88	24.744875141465	5
2	89	25.210822733703	4
2	94	26.378413868346	3
2	112	30.450416236797	4
2	118	34.716813026367	3
2	155	47.361812226479	2
2	160	47.386544699255	1
2	169	49.883012949137	2
2	171	50.250563366993	3
2	182	51.57028355798	4
2	220	74.139307985773	5
2	232	76.45127287582	4
2	238	76.754370653441	5
2	239	77.114074977564	4
2	260	80.767174494451	5
2	269	84.903823055565	6
2	275	88.249979761228	5
2	282	91.392723272302	4
2	290	92.395268108997	5
2	297	93.246955809553	6
2	298	93.852537668941	5
2	304	95.545268883187	4
2	310	98.733375123876	5
3	17	8.107354914916	6.903627074994
3	24	9.125971289312	7.729641615044
3	31	9.268394035948	7.02166312588
3	46	14.397887362564	8.656528876119
3	52	15.210779199654	4.176016060239
3	58	16.370576347959	5.196150352564
3	69	20.361240466719	11.451814730275
3	76	20.491939758536	0.925770894991
3	84	23.280411718354	14.118095214456
3	91	25.210822733703	4.236445473506
3	96	26.378413868346	12.14645049736
3	103	26.980047353248	9.900600448155
3	115	34.598697638291	7.942445628648
3	120	34.716813026367	4.940926887034
3	130	37.846942727973	18.4084445033
3	137	41.298022626225	5.138660367157
3	145	45.349200168606	9.150088840617
3	152	47.040374318938	2.093642214547
3	157	47.361812226479	1.054690538731
3	162	47.386544699255	27.01581045838
3	174	51.005886260454	26.261011118989
3	188	58.259213193788	10.280158956663
3	197	63.959187954276	12.502745327097
3	207	69.575414582627	11.768371093996
3	215	72.159432355554	11.950921268539
3	223	75.695697487278	11.289603762407
3	229	76.298837348414	6.862640811949
3	234	76.45127287582	6.669638744622
3	241	77.114074977564	46.663658740767
3	253	78.902230201884	29.019217252747
3	264	83.232655867538	5.628502137969
3	272	87.943762465697	9.890655144179
3	277	88.249979761228	9.553498079801
3	284	91.392723272302	41.142159905309
3	293	92.997411885131	41.427128327151
3	300	93.852537668941	2.245822721187
3	306	95.545268883187	21.405960897414
4	17	8.107354914916	6.903627074994
4	46	14.397887362564	8.656528876119
4	69	20.361240466719	11.451814730275
4	84	23.280411718354	14.118095214456
4	96	26.378413868346	12.14645049736
4	103	26.980047353248	9.900600448155
4	130	37.846942727973	18.4084445033
4	162	47.386544699255	27.01581045838
4	174	51.005886260454	26.261011118989
4	241	77.114074977564	46.663658740767
4	253	78.902230201884	29.019217252747
4	284	91.392723272302	41.142159905309
4	293	92.997411885131	41.427128327151
4	306	95.545268883187	21.405960897414
5	24	9.125971289312	7.729641615044
5	31	9.268394035948	7.02166312588
5	52	15.210779199654	4.176016060239
5	58	16.370576347959	5.196150352564
5	76	20.491939758536	0.925770894991
5	91	25.210822733703	4.236445473506
5	115	34.598697638291	7.942445628648
5	120	34.716813026367	4.940926887034
5	137	41.298022626225	5.138660367157
5	145	45.349200168606	9.150088840617
5	152	47.040374318938	2.093642214547
5	157	47.361812226479	1.054690538731
5	188	58.259213193788	10.280158956663
5	197	63.959187954276	12.502745327097
5	207	69.575414582627	11.768371093996
5	215	72.159432355554	11.950921268539
5	223	75.695697487278	11.289603762407
5	229	76.298837348414	6.862640811949
5	234	76.45127287582	6.669638744622
5	264	83.232655867538	5.628502137969
5	272	87.943762465697	9.890655144179
5	277	88.249979761228	9.553498079801
5	300	93.852537668941	2.245822721187

