version 2
run Third-n4-4-20191125-12:37:49-1956
attr configname Third-n4
attr datetime 20191125-12:37:49
attr experiment Third-n4
attr inifile omnetpp.ini
attr iterationvars ""
attr iterationvarsf ""
attr measurement ""
attr network org.omnetpp.queueing.Pizza
attr processid 1956
attr repetition 4
attr replication ""
attr resultdir results_no_transient
attr runnumber 4
attr seedset 4
param **.PS.maxInventoriedPS 4
param **.U1.interArrivalTime exponential(4s)
param **.U2.interArrivalTime exponential(6s)
param **.PS.serviceTimeForInventoryU1 exponential(1.4s)
param **.PS.serviceTimeForInventoryU2 exponential(1.4s)
param **.PS.serviceTimeDirectU1 exponential(1.8s)
param **.PS.serviceTimeDirectU2 exponential(1.8s)
param **.PS.probabilityProducing 0.8
param **.CS.serviceTimeU1 exponential(2.3s)
param **.CS.serviceTimeU2 exponential(2.3s)

vector 0 Pizza.EntryQueueU1 queueLength:vector ETV
attr interpolationmode sample-hold
attr title "queue length, vector"
vector 1 Pizza.CS queueLength:vector ETV
attr interpolationmode sample-hold
attr title "queue length, vector"
vector 2 Pizza.EntryQueueU2 queueLength:vector ETV
attr interpolationmode sample-hold
attr title "queue length, vector"
vector 3 Pizza.sink lifeTime:vector ETV
attr interpolationmode none
attr title "lifetime of arrived jobs, vector"
attr unit s
vector 4 Pizza.sink lifeTimeU1:vector ETV
attr interpolationmode none
attr title "lifetime of arrived jobs, vector"
attr unit s
vector 5 Pizza.sink lifeTimeU2:vector ETV
attr interpolationmode none
attr title "lifetime of arrived jobs, vector"
attr unit s
0	0	0	0
0	18	16.81811321791	1
0	22	20.827284776736	2
0	24	24.225146197844	3
0	25	24.754643265525	2
0	30	26.885994149897	1
0	38	28.978183866027	0
0	46	32.176046103925	1
0	51	36.196772991033	0
0	92	52.572172718177	1
0	93	52.711594837799	0
0	100	53.521044019906	1
0	101	55.04617530432	0
0	107	55.574328576429	1
0	108	56.128539887651	0
0	123	58.38581919149	1
0	124	58.593748342995	0
0	146	63.027775258916	1
0	150	63.877808522061	2
0	152	64.192710450733	3
0	153	64.959027245439	2
0	159	64.998460813881	3
0	161	67.25974345192	4
0	164	68.777023925815	5
0	166	70.933761816741	6
0	168	71.718407715312	5
0	175	72.643541539992	4
0	184	75.72526890644	5
0	185	76.93809354445	4
0	192	77.129819345503	3
0	197	77.69371557311	2
0	203	79.347543753348	3
0	204	79.356749045462	2
0	210	79.511495976014	1
0	217	79.770676959964	2
0	218	81.572706435884	1
0	224	81.578705368097	2
0	225	81.622974783315	1
0	231	81.777711259395	2
0	233	82.466484983053	1
0	238	82.783974823964	0
0	246	86.386057395095	1
0	249	89.946246490688	0
0	261	91.066199822027	1
0	266	92.791087035518	2
0	270	96.349288208568	1
0	276	97.04469787504	0
1	0	0	0
2	0	0	0
2	5	13.85291418384	1
2	9	16.149876476012	0
2	48	35.454687909356	1
2	50	35.69824729626	2
2	56	37.556581559889	1
2	61	37.735765270486	0
2	75	44.957508016786	1
2	76	45.285482209495	0
2	139	60.802772017761	1
2	140	61.548114613324	0
2	144	62.419006921203	1
2	174	72.412039386146	2
2	181	75.245703577695	3
2	242	83.178664868926	4
2	254	90.316597587439	3
2	269	93.850614442519	4
2	282	98.29374303587	3
2	288	98.580333958159	4
2	291	98.59791927634	5
3	11	16.149876476012	2.501267199274
3	27	24.754643265525	10.901729081685
3	32	26.885994149897	10.067880931987
3	40	28.978183866027	8.150899089291
3	53	36.196772991033	11.971626793189
3	58	37.556581559889	5.380535455964
3	63	37.735765270486	2.28107736113
3	67	38.1806228965	2.48237560024
3	78	45.285482209495	1.207496971667
3	84	51.66507210642	6.707564089634
3	95	52.711594837799	0.597446003639
3	103	55.04617530432	2.474002586143
3	110	56.128539887651	2.607495867745
3	114	56.708960489857	1.134631913428
3	126	58.593748342995	0.996730708966
3	130	58.793462457454	0.407643265964
3	142	61.548114613324	1.03673835037
3	155	64.959027245439	4.156255227678
3	170	71.718407715312	8.690632456396
3	177	72.643541539992	8.765733017931
3	187	76.93809354445	12.745383093717
3	194	77.129819345503	12.131358531622
3	199	77.69371557311	10.43397212119
3	206	79.356749045462	10.579725119647
3	212	79.511495976014	8.577734159273
3	220	81.572706435884	5.847437529444
3	227	81.622974783315	2.275431029967
3	235	82.466484983053	2.695808023089
3	240	82.783974823964	1.205269455867
3	251	89.946246490688	8.168535231293
3	256	90.316597587439	3.930540192344
3	272	96.349288208568	33.930281287365
3	278	97.04469787504	5.978498053013
3	284	98.29374303587	5.502656000352
4	11	16.149876476012	2.501267199274
4	32	26.885994149897	10.067880931987
4	40	28.978183866027	8.150899089291
4	53	36.196772991033	11.971626793189
4	58	37.556581559889	5.380535455964
4	78	45.285482209495	1.207496971667
4	95	52.711594837799	0.597446003639
4	103	55.04617530432	2.474002586143
4	110	56.128539887651	2.607495867745
4	114	56.708960489857	1.134631913428
4	126	58.593748342995	0.996730708966
4	130	58.793462457454	0.407643265964
4	170	71.718407715312	8.690632456396
4	177	72.643541539992	8.765733017931
4	187	76.93809354445	12.745383093717
4	194	77.129819345503	12.131358531622
4	199	77.69371557311	10.43397212119
4	206	79.356749045462	10.579725119647
4	212	79.511495976014	8.577734159273
4	220	81.572706435884	5.847437529444
4	227	81.622974783315	2.275431029967
4	235	82.466484983053	2.695808023089
4	240	82.783974823964	1.205269455867
4	251	89.946246490688	8.168535231293
4	256	90.316597587439	3.930540192344
4	278	97.04469787504	5.978498053013
4	284	98.29374303587	5.502656000352
5	27	24.754643265525	10.901729081685
5	63	37.735765270486	2.28107736113
5	67	38.1806228965	2.48237560024
5	84	51.66507210642	6.707564089634
5	142	61.548114613324	1.03673835037
5	155	64.959027245439	4.156255227678
5	272	96.349288208568	33.930281287365

