version 2
run Third-n3-7-20191125-12:37:47-6696
attr configname Third-n3
attr datetime 20191125-12:37:47
attr experiment Third-n3
attr inifile omnetpp.ini
attr iterationvars ""
attr iterationvarsf ""
attr measurement ""
attr network org.omnetpp.queueing.Pizza
attr processid 6696
attr repetition 7
attr replication ""
attr resultdir results_no_transient
attr runnumber 7
attr seedset 7
param **.PS.maxInventoriedPS 3
param **.U1.interArrivalTime exponential(4s)
param **.U2.interArrivalTime exponential(6s)
param **.PS.serviceTimeForInventoryU1 exponential(1.4s)
param **.PS.serviceTimeForInventoryU2 exponential(1.4s)
param **.PS.serviceTimeDirectU1 exponential(1.8s)
param **.PS.serviceTimeDirectU2 exponential(1.8s)
param **.PS.probabilityProducing 0.8
param **.CS.serviceTimeU1 exponential(2.3s)
param **.CS.serviceTimeU2 exponential(2.3s)

vector 0 Pizza.EntryQueueU1 queueLength:vector ETV
attr interpolationmode sample-hold
attr title "queue length, vector"
vector 1 Pizza.CS queueLength:vector ETV
attr interpolationmode sample-hold
attr title "queue length, vector"
vector 2 Pizza.EntryQueueU2 queueLength:vector ETV
attr interpolationmode sample-hold
attr title "queue length, vector"
vector 3 Pizza.sink lifeTime:vector ETV
attr interpolationmode none
attr title "lifetime of arrived jobs, vector"
attr unit s
vector 4 Pizza.sink lifeTimeU1:vector ETV
attr interpolationmode none
attr title "lifetime of arrived jobs, vector"
attr unit s
vector 5 Pizza.sink lifeTimeU2:vector ETV
attr interpolationmode none
attr title "lifetime of arrived jobs, vector"
attr unit s
0	0	0	0
0	14	6.37254240671	1
0	20	9.46559952548	2
0	22	9.828553224905	3
0	24	10.127667818756	4
0	29	12.302249280922	5
0	30	12.428367818012	4
0	39	13.53134411258	3
0	44	14.083382751486	2
0	55	20.426423279617	3
0	56	21.003944443883	2
0	62	22.832806862407	1
0	67	23.161503908178	0
0	88	28.049575322947	1
0	92	29.912886771015	2
0	94	30.392014043677	1
0	101	31.735020558301	2
0	105	32.526760919632	3
0	107	32.87556910786	4
0	108	33.758783447028	3
0	114	34.612927497756	2
0	121	35.287646580571	3
0	123	37.559645060079	4
0	126	40.450846597733	3
0	134	42.641863964064	4
0	136	43.437871366817	5
0	138	45.120014374421	6
0	139	45.899485596776	5
0	145	47.511990120016	4
0	151	49.214087090998	3
0	159	50.525559617041	4
0	162	51.744998317271	3
0	168	54.814036026822	2
0	181	56.613750427591	3
0	183	60.205537335284	4
0	184	61.895568605889	3
0	192	63.466015005971	4
0	198	69.604200577668	3
0	204	73.840464207935	2
0	213	74.689693412186	1
0	219	75.071212047856	2
0	223	77.731980232818	3
0	226	78.378727732493	2
0	232	79.20045690004	1
0	238	79.415533139568	2
0	239	80.433200632865	1
0	245	80.608912569155	2
0	250	83.862988694801	1
0	258	87.326881939161	0
0	264	88.711865057001	1
0	266	92.129465083105	0
0	278	95.159209167409	1
0	280	96.454176823637	2
0	282	97.515723427091	3
0	283	97.546531241748	2
0	288	98.715709475403	1
0	293	99.081797597565	0
1	0	0	0
2	0	0	0
2	7	1.547489848107	1
2	8	3.965444219319	0
2	12	5.195749562442	1
2	16	7.404876200151	2
2	18	9.242974324641	3
2	38	13.415318074359	4
2	53	20.109574587039	5
2	73	24.278299620593	4
2	79	25.728788518123	3
2	84	27.693539655544	2
2	125	38.099527674152	3
2	132	41.355048227789	4
2	161	50.821811642731	5
2	174	55.280194006065	6
2	176	55.607746549132	7
2	179	56.609312478695	8
2	190	62.893158811742	9
2	194	63.823461415151	10
2	197	67.387665166842	11
2	210	73.847008715984	12
2	212	74.089729189646	13
2	225	77.820232020697	14
2	248	82.002241502624	15
2	257	86.436007810051	16
2	271	92.751422587878	15
2	299	99.533574892964	16
2	301	99.96417562418	17
3	10	3.965444219319	3.647936573444
3	32	12.428367818012	10.880877969905
3	41	13.53134411258	7.15880170587
3	46	14.083382751486	4.617783226006
3	58	21.003944443883	11.175391218978
3	64	22.832806862407	12.705139043651
3	69	23.161503908178	10.859254627256
3	75	24.278299620593	3.851876340976
3	81	25.728788518123	20.533038955681
3	86	27.693539655544	20.288663455393
3	96	30.392014043677	21.149039719036
3	110	33.758783447028	5.709208124081
3	116	34.612927497756	4.700040726741
3	128	40.450846597733	8.715826039432
3	141	45.899485596776	13.372724677144
3	147	47.511990120016	14.636421012156
3	153	49.214087090998	13.926440510427
3	164	51.744998317271	14.185353257192
3	170	54.814036026822	12.172172062758
3	186	61.895568605889	18.457697239072
3	200	69.604200577668	24.484186203247
3	206	73.840464207935	23.314904590894
3	215	74.689693412186	18.075942984595
3	228	78.378727732493	18.173190397209
3	234	79.20045690004	15.734441894069
3	241	80.433200632865	5.361988585009
3	252	83.862988694801	6.131008461983
3	260	87.326881939161	7.911348799593
3	268	92.129465083105	11.52055251395
3	273	92.751422587878	4.039557530877
3	285	97.546531241748	84.131213167389
3	290	98.715709475403	3.556500307994
3	295	99.081797597565	2.627620773928
4	10	3.965444219319	3.647936573444
4	41	13.53134411258	7.15880170587
4	46	14.083382751486	4.617783226006
4	58	21.003944443883	11.175391218978
4	64	22.832806862407	12.705139043651
4	69	23.161503908178	10.859254627256
4	75	24.278299620593	3.851876340976
4	110	33.758783447028	5.709208124081
4	116	34.612927497756	4.700040726741
4	128	40.450846597733	8.715826039432
4	141	45.899485596776	13.372724677144
4	147	47.511990120016	14.636421012156
4	153	49.214087090998	13.926440510427
4	164	51.744998317271	14.185353257192
4	170	54.814036026822	12.172172062758
4	186	61.895568605889	18.457697239072
4	200	69.604200577668	24.484186203247
4	206	73.840464207935	23.314904590894
4	215	74.689693412186	18.075942984595
4	228	78.378727732493	18.173190397209
4	234	79.20045690004	15.734441894069
4	241	80.433200632865	5.361988585009
4	252	83.862988694801	6.131008461983
4	260	87.326881939161	7.911348799593
4	268	92.129465083105	11.52055251395
4	273	92.751422587878	4.039557530877
4	290	98.715709475403	3.556500307994
4	295	99.081797597565	2.627620773928
5	32	12.428367818012	10.880877969905
5	81	25.728788518123	20.533038955681
5	86	27.693539655544	20.288663455393
5	96	30.392014043677	21.149039719036
5	285	97.546531241748	84.131213167389

