version 2
run Third-n3-12-20191125-12:37:53-2148
attr configname Third-n3
attr datetime 20191125-12:37:53
attr experiment Third-n3
attr inifile omnetpp.ini
attr iterationvars ""
attr iterationvarsf ""
attr measurement ""
attr network org.omnetpp.queueing.Pizza
attr processid 2148
attr repetition 12
attr replication ""
attr resultdir results_no_transient
attr runnumber 12
attr seedset 12
param **.PS.maxInventoriedPS 3
param **.U1.interArrivalTime exponential(4s)
param **.U2.interArrivalTime exponential(6s)
param **.PS.serviceTimeForInventoryU1 exponential(1.4s)
param **.PS.serviceTimeForInventoryU2 exponential(1.4s)
param **.PS.serviceTimeDirectU1 exponential(1.8s)
param **.PS.serviceTimeDirectU2 exponential(1.8s)
param **.PS.probabilityProducing 0.8
param **.CS.serviceTimeU1 exponential(2.3s)
param **.CS.serviceTimeU2 exponential(2.3s)

vector 0 Pizza.EntryQueueU1 queueLength:vector ETV
attr interpolationmode sample-hold
attr title "queue length, vector"
vector 1 Pizza.CS queueLength:vector ETV
attr interpolationmode sample-hold
attr title "queue length, vector"
vector 2 Pizza.EntryQueueU2 queueLength:vector ETV
attr interpolationmode sample-hold
attr title "queue length, vector"
vector 3 Pizza.sink lifeTime:vector ETV
attr interpolationmode none
attr title "lifetime of arrived jobs, vector"
attr unit s
vector 4 Pizza.sink lifeTimeU1:vector ETV
attr interpolationmode none
attr title "lifetime of arrived jobs, vector"
attr unit s
vector 5 Pizza.sink lifeTimeU2:vector ETV
attr interpolationmode none
attr title "lifetime of arrived jobs, vector"
attr unit s
0	0	0	0
0	16	6.058772836419	1
0	17	7.347231324444	0
0	23	7.459481980149	1
0	28	12.637321568175	2
0	29	14.581599610948	1
0	37	18.98730771314	0
0	64	29.090735271574	1
0	65	29.456807520852	0
0	82	33.543032490124	1
0	85	33.833921205936	0
0	92	35.13045839036	1
0	94	39.049320383154	2
0	95	42.618440583009	1
0	104	45.973589360506	0
0	118	56.287741343477	1
0	120	57.069680664824	2
0	122	58.320727274285	3
0	123	60.379614209304	2
0	129	63.456427820644	1
0	134	63.504237719885	0
0	164	71.464734764257	1
0	167	72.692410007789	0
0	184	77.999442848313	1
0	187	80.461906704992	0
0	209	87.62406113571	1
0	211	87.876394854254	2
0	212	88.685871270314	1
0	218	90.492460626254	2
0	219	90.532619880346	1
0	225	91.427764680324	2
0	227	91.733000277448	3
0	231	93.606562724239	4
0	232	93.829792597501	3
0	237	96.346897663211	2
0	244	96.741604860941	3
0	248	98.460715875638	4
1	0	0	0
2	0	0	0
2	5	3.545945608248	1
2	9	5.379515078339	2
2	12	5.467608403752	3
2	14	5.674934520679	4
2	43	19.533490513518	5
2	44	20.515247147407	4
2	49	20.918223316105	3
2	54	22.822957064599	2
2	62	26.451744140919	3
2	70	29.977700017685	2
2	75	30.764089544439	1
2	84	33.734666426053	2
2	103	45.804312769351	3
2	110	48.129038867785	2
2	116	48.936039744665	3
2	140	64.61856758088	4
2	141	64.945046720188	3
2	147	65.714193377877	2
2	152	67.567856072676	1
2	159	69.69287395859	2
2	160	70.144633555263	1
2	174	73.860124531894	2
2	175	74.64643863559	1
2	180	77.918439374845	0
2	229	92.884621973552	1
2	246	98.310090251017	2
3	19	7.347231324444	6.677517636111
3	31	14.581599610948	8.522826774529
3	39	18.98730771314	11.527825732991
3	46	20.515247147407	7.877925579232
3	51	20.918223316105	17.372277707857
3	56	22.822957064599	17.44344198626
3	67	29.456807520852	23.9891991171
3	72	29.977700017685	0.886964746111
3	77	30.764089544439	25.08915502376
3	87	33.833921205936	14.300430692418
3	97	42.618440583009	9.075408092885
3	106	45.973589360506	10.843130970146
3	112	48.129038867785	9.079718484631
3	125	60.379614209304	33.927870068385
3	131	63.456427820644	7.168686477167
3	136	63.504237719885	6.434557055061
3	143	64.945046720188	6.624319445903
3	149	65.714193377877	31.979526951824
3	154	67.567856072676	21.763543303325
3	162	70.144633555263	21.208593810598
3	169	72.692410007789	8.073842426909
3	177	74.64643863559	3.181703871333
3	182	77.918439374845	8.225565416255
3	189	80.461906704992	6.601782173098
3	194	82.086502637534	4.087059789221
3	202	86.441929696334	2.818739585557
3	214	88.685871270314	1.349540041447
3	221	90.532619880346	2.908558744636
3	234	93.829792597501	5.953397743247
3	239	96.346897663211	5.854437036957
4	19	7.347231324444	6.677517636111
4	31	14.581599610948	8.522826774529
4	39	18.98730771314	11.527825732991
4	46	20.515247147407	7.877925579232
4	72	29.977700017685	0.886964746111
4	97	42.618440583009	9.075408092885
4	106	45.973589360506	10.843130970146
4	112	48.129038867785	9.079718484631
4	131	63.456427820644	7.168686477167
4	136	63.504237719885	6.434557055061
4	143	64.945046720188	6.624319445903
4	177	74.64643863559	3.181703871333
4	194	82.086502637534	4.087059789221
4	221	90.532619880346	2.908558744636
4	234	93.829792597501	5.953397743247
4	239	96.346897663211	5.854437036957
5	51	20.918223316105	17.372277707857
5	56	22.822957064599	17.44344198626
5	67	29.456807520852	23.9891991171
5	77	30.764089544439	25.08915502376
5	87	33.833921205936	14.300430692418
5	125	60.379614209304	33.927870068385
5	149	65.714193377877	31.979526951824
5	154	67.567856072676	21.763543303325
5	162	70.144633555263	21.208593810598
5	169	72.692410007789	8.073842426909
5	182	77.918439374845	8.225565416255
5	189	80.461906704992	6.601782173098
5	202	86.441929696334	2.818739585557
5	214	88.685871270314	1.349540041447

