version 2
run Third-n3-8-20191125-12:37:47-2712
attr configname Third-n3
attr datetime 20191125-12:37:47
attr experiment Third-n3
attr inifile omnetpp.ini
attr iterationvars ""
attr iterationvarsf ""
attr measurement ""
attr network org.omnetpp.queueing.Pizza
attr processid 2712
attr repetition 8
attr replication ""
attr resultdir results_no_transient
attr runnumber 8
attr seedset 8
param **.PS.maxInventoriedPS 3
param **.U1.interArrivalTime exponential(4s)
param **.U2.interArrivalTime exponential(6s)
param **.PS.serviceTimeForInventoryU1 exponential(1.4s)
param **.PS.serviceTimeForInventoryU2 exponential(1.4s)
param **.PS.serviceTimeDirectU1 exponential(1.8s)
param **.PS.serviceTimeDirectU2 exponential(1.8s)
param **.PS.probabilityProducing 0.8
param **.CS.serviceTimeU1 exponential(2.3s)
param **.CS.serviceTimeU2 exponential(2.3s)

vector 0 Pizza.EntryQueueU1 queueLength:vector ETV
attr interpolationmode sample-hold
attr title "queue length, vector"
vector 1 Pizza.CS queueLength:vector ETV
attr interpolationmode sample-hold
attr title "queue length, vector"
vector 2 Pizza.EntryQueueU2 queueLength:vector ETV
attr interpolationmode sample-hold
attr title "queue length, vector"
vector 3 Pizza.sink lifeTime:vector ETV
attr interpolationmode none
attr title "lifetime of arrived jobs, vector"
attr unit s
vector 4 Pizza.sink lifeTimeU2:vector ETV
attr interpolationmode none
attr title "lifetime of arrived jobs, vector"
attr unit s
vector 5 Pizza.sink lifeTimeU1:vector ETV
attr interpolationmode none
attr title "lifetime of arrived jobs, vector"
attr unit s
0	0	0	0
0	21	11.22604812712	1
0	22	14.269973917989	0
0	29	16.062363602195	1
0	30	17.135995277332	0
0	46	22.561433141668	1
0	48	22.782684014948	2
0	52	23.770385768342	3
0	54	24.042680623071	4
0	55	24.708685242644	3
0	63	25.424730338869	4
0	67	26.854963228708	5
0	68	27.304507412544	4
0	74	27.661973143521	5
0	75	27.890076933842	4
0	82	30.448364784494	3
0	86	30.690495576422	4
0	89	31.509734010113	3
0	95	32.300122372694	2
0	104	35.168670123093	3
0	106	36.428311769702	4
0	107	38.725567990544	3
0	112	38.877087437622	2
0	117	39.04076284637	1
0	122	39.382344357183	0
0	126	40.806174377778	1
0	130	43.637858329729	0
0	139	45.451622468623	1
0	143	47.817039482506	2
0	147	48.650909146564	3
0	151	52.596213404984	4
0	153	53.566119324999	5
0	154	53.927682974708	4
0	161	55.69450106025	3
0	167	58.715857055655	2
0	172	60.30888082493	1
0	178	60.977041626765	2
0	182	62.392042331485	1
0	191	63.417070989889	2
0	192	63.726824444481	1
0	197	64.199824099866	0
0	203	64.682354295578	1
0	205	65.181207718067	2
0	206	65.934934445753	1
0	215	68.837243558924	2
0	220	71.574572547644	3
0	223	74.757617285468	2
0	230	75.113065936508	3
0	232	76.202414103545	4
0	233	76.40105664461	3
0	241	81.303974496919	4
0	244	82.511815404244	3
0	250	83.829219226287	4
0	251	84.076821186065	3
0	257	84.935397420515	4
0	262	87.935814658092	5
0	263	88.007296702901	4
0	268	88.460250087318	3
0	274	89.169133871798	4
0	275	89.632683213182	3
0	283	92.473868177515	4
0	284	94.022232561426	3
0	288	94.596931155493	4
0	292	95.540714854735	5
0	293	96.981297719972	4
0	298	97.23795399997	3
0	302	97.69916613516	4
1	0	0	0
2	0	0	0
2	44	20.821417105865	1
2	50	23.258175486789	2
2	61	25.123692481914	3
2	65	25.944494886107	4
2	79	28.277300422802	5
2	141	45.702119598526	6
2	145	48.514533522405	7
2	149	52.37740681446	8
2	160	54.10735487237	9
2	180	61.802588455725	10
2	213	68.310537928418	11
2	218	71.41960810832	12
2	222	72.169713788755	13
2	243	81.327014774408	14
2	259	85.202352702241	15
2	279	89.703500903457	16
2	304	98.351923801577	17
3	10	2.300462636808	2.233402647177
3	24	14.269973917989	6.002153715385
3	32	17.135995277332	5.909947150212
3	37	18.13676770303	2.074404100835
3	57	24.708685242644	4.7793304802
3	70	27.304507412544	4.743074270876
3	77	27.890076933842	5.107392918894
3	84	30.448364784494	6.677979016152
3	91	31.509734010113	7.467053387042
3	97	32.300122372694	6.875392033825
3	109	38.725567990544	11.870604761836
3	114	38.877087437622	11.215114294101
3	119	39.04076284637	8.350267269948
3	124	39.382344357183	4.21367423409
3	132	43.637858329729	7.209546560027
3	156	53.927682974708	13.12150859693
3	163	55.69450106025	10.242878591627
3	169	58.715857055655	10.898817573149
3	174	60.30888082493	11.657971678366
3	184	62.392042331485	9.795828926501
3	194	63.726824444481	10.160705119482
3	199	64.199824099866	3.222782473101
3	208	65.934934445753	2.517863455864
3	225	74.757617285468	10.07526298989
3	235	76.40105664461	11.219848926543
3	246	82.511815404244	13.67457184532
3	253	84.076821186065	12.502248638421
3	265	88.007296702901	12.894230766393
3	270	88.460250087318	12.257835983773
3	277	89.632683213182	8.328708716263
3	286	94.022232561426	10.193013335139
3	295	96.981297719972	12.045900299457
3	300	97.23795399997	9.302139341878
4	10	2.300462636808	2.233402647177
5	24	14.269973917989	6.002153715385
5	32	17.135995277332	5.909947150212
5	37	18.13676770303	2.074404100835
5	57	24.708685242644	4.7793304802
5	70	27.304507412544	4.743074270876
5	77	27.890076933842	5.107392918894
5	84	30.448364784494	6.677979016152
5	91	31.509734010113	7.467053387042
5	97	32.300122372694	6.875392033825
5	109	38.725567990544	11.870604761836
5	114	38.877087437622	11.215114294101
5	119	39.04076284637	8.350267269948
5	124	39.382344357183	4.21367423409
5	132	43.637858329729	7.209546560027
5	156	53.927682974708	13.12150859693
5	163	55.69450106025	10.242878591627
5	169	58.715857055655	10.898817573149
5	174	60.30888082493	11.657971678366
5	184	62.392042331485	9.795828926501
5	194	63.726824444481	10.160705119482
5	199	64.199824099866	3.222782473101
5	208	65.934934445753	2.517863455864
5	225	74.757617285468	10.07526298989
5	235	76.40105664461	11.219848926543
5	246	82.511815404244	13.67457184532
5	253	84.076821186065	12.502248638421
5	265	88.007296702901	12.894230766393
5	270	88.460250087318	12.257835983773
5	277	89.632683213182	8.328708716263
5	286	94.022232561426	10.193013335139
5	295	96.981297719972	12.045900299457
5	300	97.23795399997	9.302139341878

