version 2
run Third-n4-19-20191125-12:38:11-1504
attr configname Third-n4
attr datetime 20191125-12:38:11
attr experiment Third-n4
attr inifile omnetpp.ini
attr iterationvars ""
attr iterationvarsf ""
attr measurement ""
attr network org.omnetpp.queueing.Pizza
attr processid 1504
attr repetition 19
attr replication ""
attr resultdir results_no_transient
attr runnumber 19
attr seedset 19
param **.PS.maxInventoriedPS 4
param **.U1.interArrivalTime exponential(4s)
param **.U2.interArrivalTime exponential(6s)
param **.PS.serviceTimeForInventoryU1 exponential(1.4s)
param **.PS.serviceTimeForInventoryU2 exponential(1.4s)
param **.PS.serviceTimeDirectU1 exponential(1.8s)
param **.PS.serviceTimeDirectU2 exponential(1.8s)
param **.PS.probabilityProducing 0.8
param **.CS.serviceTimeU1 exponential(2.3s)
param **.CS.serviceTimeU2 exponential(2.3s)

vector 0 Pizza.EntryQueueU1 queueLength:vector ETV
attr interpolationmode sample-hold
attr title "queue length, vector"
vector 1 Pizza.CS queueLength:vector ETV
attr interpolationmode sample-hold
attr title "queue length, vector"
vector 2 Pizza.EntryQueueU2 queueLength:vector ETV
attr interpolationmode sample-hold
attr title "queue length, vector"
vector 3 Pizza.sink lifeTime:vector ETV
attr interpolationmode none
attr title "lifetime of arrived jobs, vector"
attr unit s
vector 4 Pizza.sink lifeTimeU1:vector ETV
attr interpolationmode none
attr title "lifetime of arrived jobs, vector"
attr unit s
vector 5 Pizza.sink lifeTimeU2:vector ETV
attr interpolationmode none
attr title "lifetime of arrived jobs, vector"
attr unit s
0	0	0	0
0	29	10.178522957092	1
0	30	10.488162937289	0
0	36	10.661438728319	1
0	38	11.321448760572	2
0	40	12.581049784634	1
0	45	13.041748433697	0
0	63	19.394583141677	1
0	67	20.013696956067	2
0	69	21.264239015241	3
0	71	22.881134492003	4
0	74	27.867316135374	3
0	80	28.428811034516	4
0	82	30.709483926355	3
0	89	33.678959886788	2
0	96	34.467792361472	3
0	97	34.768987760488	2
0	105	35.704934765134	1
0	111	36.873113237042	0
0	122	37.590748461976	1
0	123	37.793417277916	0
0	145	42.987029335517	1
0	151	47.145451403671	2
0	152	48.811473086949	1
0	158	54.203886293147	0
0	201	72.791119459694	1
0	203	72.799213348393	2
0	205	73.358668753642	3
0	208	73.576570886149	2
0	214	73.834346662125	3
0	218	75.086903620639	4
0	219	75.592568188692	3
0	229	80.368125902448	2
0	236	81.54665914149	1
0	241	81.674138772884	0
0	250	83.477821722529	1
0	251	84.39397188198	0
0	269	88.05047558859	1
0	271	88.377863308688	2
0	272	88.45372958521	1
0	277	89.233442121242	0
1	0	0	0
2	0	0	0
2	27	10.132916285404	1
2	51	14.115141327344	0
2	73	25.005616810708	1
2	116	37.337712638179	0
2	131	39.503866038995	1
2	133	42.313709799924	2
2	134	42.379388523165	1
2	139	42.511795420004	0
2	147	43.188442696071	1
2	164	56.42672444977	0
2	177	59.710141326185	1
2	178	59.933077788908	0
2	207	73.425438089997	1
2	216	74.631106321853	2
2	226	77.451314055525	3
2	235	80.517938033045	4
2	257	86.685369784433	3
2	263	87.946857476657	2
2	283	90.175167209209	1
2	290	94.129896238032	0
3	7	1.71052345113	1.300028150124
3	15	3.821194064259	0.443549822001
3	32	10.488162937289	4.348319154208
3	42	12.581049784634	2.402526827542
3	47	13.041748433697	2.380309705378
3	53	14.115141327344	2.793692566772
3	58	16.287291662708	6.154375377304
3	76	27.867316135374	10.161559285185
3	84	30.709483926355	11.314900784678
3	91	33.678959886788	13.665262930721
3	99	34.768987760488	13.504748745247
3	107	35.704934765134	12.823800273131
3	113	36.873113237042	8.444302202526
3	118	37.337712638179	2.869920276707
3	125	37.793417277916	12.787800467208
3	136	42.379388523165	4.788640061189
3	141	42.511795420004	3.007929381009
3	154	48.811473086949	6.497763287025
3	160	54.203886293147	11.21685695763
3	166	56.42672444977	9.281273046099
3	170	56.492880999723	13.304438303652
3	180	59.933077788908	1.600583640186
3	184	61.156567320435	1.44642599425
3	193	63.959138193958	0.414277872415
3	210	73.576570886149	3.106238265759
3	221	75.592568188692	2.801448728998
3	231	80.368125902448	7.568912554055
3	238	81.54665914149	8.187990387848
3	243	81.674138772884	7.839792110759
3	253	84.39397188198	9.307068261341
3	259	86.685369784433	3.207548061904
3	265	87.946857476657	14.52141938666
3	274	88.45372958521	13.822623263357
3	279	89.233442121242	1.182966532652
3	285	90.175167209209	1.797303900521
3	292	94.129896238032	16.678582182507
3	296	95.270265361477	14.752327328432
3	303	98.772931291253	2.648802053752
4	7	1.71052345113	1.300028150124
4	32	10.488162937289	4.348319154208
4	42	12.581049784634	2.402526827542
4	47	13.041748433697	2.380309705378
4	53	14.115141327344	2.793692566772
4	84	30.709483926355	11.314900784678
4	91	33.678959886788	13.665262930721
4	99	34.768987760488	13.504748745247
4	107	35.704934765134	12.823800273131
4	113	36.873113237042	8.444302202526
4	118	37.337712638179	2.869920276707
4	136	42.379388523165	4.788640061189
4	160	54.203886293147	11.21685695763
4	166	56.42672444977	9.281273046099
4	180	59.933077788908	1.600583640186
4	193	63.959138193958	0.414277872415
4	210	73.576570886149	3.106238265759
4	221	75.592568188692	2.801448728998
4	231	80.368125902448	7.568912554055
4	238	81.54665914149	8.187990387848
4	243	81.674138772884	7.839792110759
4	253	84.39397188198	9.307068261341
4	259	86.685369784433	3.207548061904
4	279	89.233442121242	1.182966532652
4	285	90.175167209209	1.797303900521
4	303	98.772931291253	2.648802053752
5	15	3.821194064259	0.443549822001
5	58	16.287291662708	6.154375377304
5	76	27.867316135374	10.161559285185
5	125	37.793417277916	12.787800467208
5	141	42.511795420004	3.007929381009
5	154	48.811473086949	6.497763287025
5	170	56.492880999723	13.304438303652
5	184	61.156567320435	1.44642599425
5	265	87.946857476657	14.52141938666
5	274	88.45372958521	13.822623263357
5	292	94.129896238032	16.678582182507
5	296	95.270265361477	14.752327328432

