version 2
run Third-n3-17-20191125-12:38:00-4588
attr configname Third-n3
attr datetime 20191125-12:38:00
attr experiment Third-n3
attr inifile omnetpp.ini
attr iterationvars ""
attr iterationvarsf ""
attr measurement ""
attr network org.omnetpp.queueing.Pizza
attr processid 4588
attr repetition 17
attr replication ""
attr resultdir results_no_transient
attr runnumber 17
attr seedset 17
param **.PS.maxInventoriedPS 3
param **.U1.interArrivalTime exponential(4s)
param **.U2.interArrivalTime exponential(6s)
param **.PS.serviceTimeForInventoryU1 exponential(1.4s)
param **.PS.serviceTimeForInventoryU2 exponential(1.4s)
param **.PS.serviceTimeDirectU1 exponential(1.8s)
param **.PS.serviceTimeDirectU2 exponential(1.8s)
param **.PS.probabilityProducing 0.8
param **.CS.serviceTimeU1 exponential(2.3s)
param **.CS.serviceTimeU2 exponential(2.3s)

vector 0 Pizza.EntryQueueU1 queueLength:vector ETV
attr interpolationmode sample-hold
attr title "queue length, vector"
vector 1 Pizza.CS queueLength:vector ETV
attr interpolationmode sample-hold
attr title "queue length, vector"
vector 2 Pizza.EntryQueueU2 queueLength:vector ETV
attr interpolationmode sample-hold
attr title "queue length, vector"
vector 3 Pizza.sink lifeTime:vector ETV
attr interpolationmode none
attr title "lifetime of arrived jobs, vector"
attr unit s
vector 4 Pizza.sink lifeTimeU2:vector ETV
attr interpolationmode none
attr title "lifetime of arrived jobs, vector"
attr unit s
vector 5 Pizza.sink lifeTimeU1:vector ETV
attr interpolationmode none
attr title "lifetime of arrived jobs, vector"
attr unit s
0	0	0	0
0	5	1.396329674268	1
0	7	2.246730910068	2
0	15	8.107354914916	1
0	26	11.034763139415	2
0	27	12.628167597443	1
0	34	16.462734181832	2
0	35	17.217610676726	1
0	41	18.755365941295	0
0	63	24.854477049982	1
0	65	25.044760938657	2
0	66	25.915988753834	1
0	74	27.10858936223	0
0	92	31.262679850578	1
0	94	33.027344482263	0
0	101	34.619916399012	1
0	102	34.838490349998	0
0	110	35.312374658651	1
0	114	36.32206601346	2
0	116	38.59737940584	1
0	121	38.7592985879	0
0	150	49.571892596144	1
0	152	49.959671542482	0
0	171	52.143426638263	1
0	173	55.368599147372	0
0	181	55.620815028317	1
0	182	55.87449188725	0
0	188	56.34044453394	1
0	190	59.526087382585	0
0	219	76.552628929424	1
0	222	78.729306463257	0
0	232	81.046572882341	1
0	236	81.766090567902	0
0	249	83.055053259174	1
0	250	83.452750095864	0
1	0	0	0
2	0	0	0
2	11	5.741358486445	1
2	22	8.909425736444	2
2	24	9.162316503898	3
2	46	19.046936150728	2
2	52	21.776639098633	1
2	57	23.272243213328	0
2	72	26.639844939643	1
2	79	27.239288654047	0
2	83	27.572080955845	1
2	86	28.998216719423	0
2	108	35.167961625229	1
2	112	35.92455449844	2
2	127	39.457234934302	3
2	128	42.072425365564	2
2	134	45.294993196969	1
2	140	45.916086846731	2
2	144	49.177447532052	1
2	158	51.646854160139	0
2	196	61.271322786316	1
2	197	62.056252866268	0
2	221	76.658978553601	1
2	228	80.438600326281	0
2	268	88.392757951157	1
2	270	90.060681485501	0
3	17	8.107354914916	6.903627074994
3	29	12.628167597443	11.231837923175
3	37	17.217610676726	14.970879766658
3	43	18.755365941295	7.72060280188
3	48	19.046936150728	2.584201968896
3	54	21.776639098633	16.035280612188
3	59	23.272243213328	14.362817476884
3	68	25.915988753834	16.753672249936
3	76	27.10858936223	2.254112312248
3	81	27.239288654047	2.19452771539
3	88	28.998216719423	2.35837177978
3	96	33.027344482263	5.455263526418
3	104	34.838490349998	3.57581049942
3	118	38.59737940584	3.977463006828
3	123	38.7592985879	3.446923929249
3	130	42.072425365564	5.750359352104
3	136	45.294993196969	10.12703157174
3	146	49.177447532052	13.252893033612
3	154	49.959671542482	10.50243660818
3	160	51.646854160139	2.074961563995
3	164	51.671586632915	5.755499786184
3	175	55.368599147372	3.497013234688
3	184	55.87449188725	3.731065248987
3	192	59.526087382585	3.905272354268
3	199	62.056252866268	5.715808332328
3	204	64.469862883035	3.198540096719
3	211	74.278769935801	2.892309116666
3	224	78.729306463257	2.588484301755
3	230	80.438600326281	3.885971396857
3	238	81.766090567902	5.107112014301
3	242	82.164744054965	1.118171172624
3	252	83.452750095864	0.662802101744
3	258	85.240905320184	2.18585206101
3	272	90.060681485501	4.330425665654
3	276	91.49617097734	3.103413026183
3	283	95.401127116087	2.871720603816
4	17	8.107354914916	6.903627074994
4	54	21.776639098633	16.035280612188
4	59	23.272243213328	14.362817476884
4	68	25.915988753834	16.753672249936
4	88	28.998216719423	2.35837177978
4	96	33.027344482263	5.455263526418
4	136	45.294993196969	10.12703157174
4	146	49.177447532052	13.252893033612
4	154	49.959671542482	10.50243660818
4	164	51.671586632915	5.755499786184
4	204	64.469862883035	3.198540096719
4	224	78.729306463257	2.588484301755
4	238	81.766090567902	5.107112014301
4	276	91.49617097734	3.103413026183
4	283	95.401127116087	2.871720603816
5	29	12.628167597443	11.231837923175
5	37	17.217610676726	14.970879766658
5	43	18.755365941295	7.72060280188
5	48	19.046936150728	2.584201968896
5	76	27.10858936223	2.254112312248
5	81	27.239288654047	2.19452771539
5	104	34.838490349998	3.57581049942
5	118	38.59737940584	3.977463006828
5	123	38.7592985879	3.446923929249
5	130	42.072425365564	5.750359352104
5	160	51.646854160139	2.074961563995
5	175	55.368599147372	3.497013234688
5	184	55.87449188725	3.731065248987
5	192	59.526087382585	3.905272354268
5	199	62.056252866268	5.715808332328
5	211	74.278769935801	2.892309116666
5	230	80.438600326281	3.885971396857
5	242	82.164744054965	1.118171172624
5	252	83.452750095864	0.662802101744
5	258	85.240905320184	2.18585206101
5	272	90.060681485501	4.330425665654

