version 2
run Third-n2-7-20191125-12:37:39-7948
attr configname Third-n2
attr datetime 20191125-12:37:39
attr experiment Third-n2
attr inifile omnetpp.ini
attr iterationvars ""
attr iterationvarsf ""
attr measurement ""
attr network org.omnetpp.queueing.Pizza
attr processid 7948
attr repetition 7
attr replication ""
attr resultdir results_no_transient
attr runnumber 7
attr seedset 7
param **.PS.maxInventoriedPS 2
param **.U1.interArrivalTime exponential(4s)
param **.U2.interArrivalTime exponential(6s)
param **.PS.serviceTimeForInventoryU1 exponential(1.4s)
param **.PS.serviceTimeForInventoryU2 exponential(1.4s)
param **.PS.serviceTimeDirectU1 exponential(1.8s)
param **.PS.serviceTimeDirectU2 exponential(1.8s)
param **.PS.probabilityProducing 0.8
param **.CS.serviceTimeU1 exponential(2.3s)
param **.CS.serviceTimeU2 exponential(2.3s)

vector 0 Pizza.EntryQueueU1 queueLength:vector ETV
attr interpolationmode sample-hold
attr title "queue length, vector"
vector 1 Pizza.CS queueLength:vector ETV
attr interpolationmode sample-hold
attr title "queue length, vector"
vector 2 Pizza.EntryQueueU2 queueLength:vector ETV
attr interpolationmode sample-hold
attr title "queue length, vector"
vector 3 Pizza.sink lifeTime:vector ETV
attr interpolationmode none
attr title "lifetime of arrived jobs, vector"
attr unit s
vector 4 Pizza.sink lifeTimeU1:vector ETV
attr interpolationmode none
attr title "lifetime of arrived jobs, vector"
attr unit s
vector 5 Pizza.sink lifeTimeU2:vector ETV
attr interpolationmode none
attr title "lifetime of arrived jobs, vector"
attr unit s
0	0	0	0
0	14	6.37254240671	1
0	20	9.46559952548	2
0	22	9.828553224905	3
0	24	10.127667818756	4
0	29	12.302249280922	5
0	30	12.428367818012	4
0	39	13.53134411258	3
0	44	14.083382751486	2
0	54	20.426423279617	3
0	55	21.003944443883	2
0	61	21.60333876879	3
0	62	21.605988295763	2
0	68	22.368236305335	3
0	73	27.122095349967	2
0	81	29.665152252117	1
0	87	31.18087603745	0
0	96	33.466877395858	1
0	100	35.289011183144	2
0	103	38.1292132305	1
0	108	38.996013995847	0
0	128	42.567622573731	1
0	130	45.025654068428	2
0	133	47.173164324172	1
0	139	47.297652547936	2
0	146	56.773546459316	3
0	147	57.028124390502	2
0	155	58.640628913742	1
0	161	60.342725884724	0
0	170	62.179091701936	1
0	174	62.566291194349	2
0	179	65.538546103239	3
0	180	65.827432900435	2
0	188	68.469170999651	1
0	193	69.085655746891	0
0	199	70.876002989415	1
0	203	71.496204725021	2
0	205	73.872340559482	3
0	206	76.79428771867	2
0	213	81.418403035445	3
0	215	81.980560963168	4
0	216	82.96835441368	3
0	222	84.398380498916	2
0	228	85.022477502474	3
0	230	85.582453577334	2
0	236	85.611265696005	3
0	239	86.746559486108	2
0	245	87.040359900435	3
0	247	88.113738924963	2
0	255	89.975250727324	3
0	256	91.774309283367	2
0	265	92.931094932275	3
0	267	93.809571361061	4
0	268	95.464569723469	3
0	274	98.304292085491	4
0	275	99.171792586954	3
0	279	99.5531446163	4
1	0	0	0
2	0	0	0
2	7	1.547489848107	1
2	8	3.965444219319	0
2	12	5.195749562442	1
2	16	7.404876200151	2
2	18	9.242974324641	3
2	38	13.415318074359	4
2	52	20.109574587039	5
2	72	25.61555846089	6
2	80	28.528938580234	7
2	94	32.312822660747	8
2	98	34.886051539981	9
2	102	36.828101876271	10
2	113	39.350181172284	9
2	121	40.377126878224	10
2	122	40.737125719093	9
2	132	46.804267701578	10
2	142	54.427596057555	11
2	144	55.621607161684	12
2	154	58.144821673089	13
2	166	60.346010050764	12
2	176	64.001955062246	13
2	201	70.925986862549	14
2	253	88.333782425377	15
2	262	92.02380885975	16
3	10	3.965444219319	3.647936573444
3	32	12.428367818012	10.880877969905
3	41	13.53134411258	7.15880170587
3	46	14.083382751486	4.617783226006
3	57	21.003944443883	11.175391218978
3	64	21.605988295763	11.478320477007
3	75	27.122095349967	14.819846069045
3	83	29.665152252117	9.2387289725
3	89	31.18087603745	9.57753726866
3	105	38.1292132305	15.760976925165
3	110	38.996013995847	5.529136599989
3	115	39.350181172284	4.06116998914
3	124	40.737125719093	35.541376156651
3	135	47.173164324172	39.768288124021
3	149	57.028124390502	14.460501816771
3	157	58.640628913742	13.614974845314
3	163	60.342725884724	13.045073336788
3	168	60.346010050764	3.572463591448
3	182	65.827432900435	56.584458575794
3	190	68.469170999651	6.290079297715
3	195	69.085655746891	6.519364552542
3	208	76.79428771867	11.255741615431
3	218	82.96835441368	12.092351424265
3	224	84.398380498916	12.902175773895
3	232	85.582453577334	11.710113017852
3	241	86.746559486108	5.328156450663
3	249	88.113738924963	6.133177961795
3	258	91.774309283367	6.751831780893
3	270	95.464569723469	9.853304027464
3	277	99.171792586954	12.131432686519
4	10	3.965444219319	3.647936573444
4	41	13.53134411258	7.15880170587
4	46	14.083382751486	4.617783226006
4	57	21.003944443883	11.175391218978
4	64	21.605988295763	11.478320477007
4	75	27.122095349967	14.819846069045
4	83	29.665152252117	9.2387289725
4	89	31.18087603745	9.57753726866
4	105	38.1292132305	15.760976925165
4	110	38.996013995847	5.529136599989
4	115	39.350181172284	4.06116998914
4	149	57.028124390502	14.460501816771
4	157	58.640628913742	13.614974845314
4	163	60.342725884724	13.045073336788
4	168	60.346010050764	3.572463591448
4	190	68.469170999651	6.290079297715
4	195	69.085655746891	6.519364552542
4	208	76.79428771867	11.255741615431
4	218	82.96835441368	12.092351424265
4	224	84.398380498916	12.902175773895
4	232	85.582453577334	11.710113017852
4	241	86.746559486108	5.328156450663
4	249	88.113738924963	6.133177961795
4	258	91.774309283367	6.751831780893
4	270	95.464569723469	9.853304027464
4	277	99.171792586954	12.131432686519
5	32	12.428367818012	10.880877969905
5	124	40.737125719093	35.541376156651
5	135	47.173164324172	39.768288124021
5	182	65.827432900435	56.584458575794

