version 2
run Third-n4-0-20191125-12:37:45-10952
attr configname Third-n4
attr datetime 20191125-12:37:45
attr experiment Third-n4
attr inifile omnetpp.ini
attr iterationvars ""
attr iterationvarsf ""
attr measurement ""
attr network org.omnetpp.queueing.Pizza
attr processid 10952
attr repetition 0
attr replication ""
attr resultdir results_no_transient
attr runnumber 0
attr seedset 0
param **.PS.maxInventoriedPS 4
param **.U1.interArrivalTime exponential(4s)
param **.U2.interArrivalTime exponential(6s)
param **.PS.serviceTimeForInventoryU1 exponential(1.4s)
param **.PS.serviceTimeForInventoryU2 exponential(1.4s)
param **.PS.serviceTimeDirectU1 exponential(1.8s)
param **.PS.serviceTimeDirectU2 exponential(1.8s)
param **.PS.probabilityProducing 0.8
param **.CS.serviceTimeU1 exponential(2.3s)
param **.CS.serviceTimeU2 exponential(2.3s)

vector 0 Pizza.EntryQueueU1 queueLength:vector ETV
attr interpolationmode sample-hold
attr title "queue length, vector"
vector 1 Pizza.CS queueLength:vector ETV
attr interpolationmode sample-hold
attr title "queue length, vector"
vector 2 Pizza.EntryQueueU2 queueLength:vector ETV
attr interpolationmode sample-hold
attr title "queue length, vector"
vector 3 Pizza.sink lifeTime:vector ETV
attr interpolationmode none
attr title "lifetime of arrived jobs, vector"
attr unit s
vector 4 Pizza.sink lifeTimeU1:vector ETV
attr interpolationmode none
attr title "lifetime of arrived jobs, vector"
attr unit s
vector 5 Pizza.sink lifeTimeU2:vector ETV
attr interpolationmode none
attr title "lifetime of arrived jobs, vector"
attr unit s
0	0	0	0
0	10	8.207221050453	1
0	13	10.852402924663	0
0	26	12.359858253108	1
0	32	15.370554706359	2
0	33	15.430707809346	1
0	40	15.665296128219	2
0	46	17.833316578455	1
0	51	19.309247675615	0
0	65	22.815246781974	1
0	69	26.413562111084	0
0	76	26.900974279371	1
0	78	27.645363267608	0
0	84	27.725787407493	1
0	85	28.206674796302	0
0	103	31.087126229942	1
0	107	35.667682048742	2
0	108	35.900760964205	1
0	113	38.651808902956	0
0	120	39.465660382729	1
0	123	43.908050165478	2
0	125	44.852876989809	3
0	127	46.626493104291	4
0	128	46.702300377202	3
0	134	47.178607858005	4
0	138	48.855241964676	3
0	144	48.987016098903	4
0	147	51.168745276559	3
0	152	51.573346431038	2
0	160	53.578752894377	1
0	171	55.82554026474	0
0	237	70.405170413389	1
0	239	71.350612944594	0
0	256	79.719494165534	1
0	260	80.950078096627	0
0	288	87.084624051482	1
0	290	88.446011004423	2
0	293	89.219800561966	1
0	298	91.194104387973	0
1	0	0	0
2	0	0	0
2	5	5.391362330904	1
2	19	10.930701119729	2
2	20	11.584622048599	1
2	29	13.83231374942	2
2	43	16.825545803515	3
2	45	17.732930925505	4
2	56	20.732785432756	3
2	61	22.345232532606	2
2	92	29.107747660858	1
2	98	29.974816473156	2
2	99	30.684024352001	1
2	137	47.242306600822	2
2	158	52.308873361988	3
2	167	54.061356561591	4
2	170	54.763089020346	5
2	176	56.328965636707	4
2	184	57.052424080591	5
2	187	58.827385212727	4
2	194	60.466327477393	3
2	199	63.558091603343	2
2	204	63.650037091177	1
2	209	64.414580645394	0
2	259	80.716760778307	1
2	267	82.561867120881	2
2	269	82.683741873655	3
2	270	82.981274893133	2
2	275	82.992099936265	1
2	281	83.765255385564	2
2	282	85.597158462802	1
2	292	88.823753578454	2
2	304	92.231178499336	3
2	307	96.400691612453	2
2	311	97.326503368723	3
3	15	10.852402924663	7.6689049064
3	22	11.584622048599	3.377400998146
3	35	15.430707809346	10.039345478442
3	48	17.833316578455	5.473458325347
3	53	19.309247675615	3.938692969256
3	58	20.732785432756	5.067489304537
3	63	22.345232532606	11.414531412877
3	71	26.413562111084	12.581248361664
3	80	27.645363267608	4.830116485634
3	87	28.206674796302	1.305700516931
3	94	29.107747660858	1.381960253365
3	101	30.684024352001	13.858478548486
3	110	35.900760964205	18.1678300387
3	115	38.651808902956	7.564682673014
3	130	46.702300377202	11.03461832846
3	140	48.855241964676	9.389581581947
3	149	51.168745276559	7.260695111081
3	154	51.573346431038	6.720469441229
3	162	53.578752894377	6.952259790086
3	173	55.82554026474	8.646932406735
3	178	56.328965636707	7.341949537804
3	189	58.827385212727	28.852568739571
3	196	60.466327477393	13.224020876571
3	201	63.558091603343	11.249218241355
3	206	63.650037091177	9.588680529586
3	211	64.414580645394	9.651491625048
3	216	65.439045407809	8.386621327218
3	223	67.685215665989	0.880212182382
3	230	68.123821619706	0.152484023409
3	241	71.350612944594	1.923024323532
3	245	71.577508653956	1.172338240567
3	262	80.950078096627	2.531945593209
3	272	82.981274893133	3.261780727599
3	277	82.992099936265	2.275339157958
3	284	85.597158462802	3.035291341921
3	295	89.219800561966	6.536058688311
3	300	91.194104387973	4.109480336491
3	309	96.400691612453	7.95468060803
4	15	10.852402924663	7.6689049064
4	22	11.584622048599	3.377400998146
4	48	17.833316578455	5.473458325347
4	53	19.309247675615	3.938692969256
4	58	20.732785432756	5.067489304537
4	80	27.645363267608	4.830116485634
4	87	28.206674796302	1.305700516931
4	94	29.107747660858	1.381960253365
4	115	38.651808902956	7.564682673014
4	130	46.702300377202	11.03461832846
4	140	48.855241964676	9.389581581947
4	149	51.168745276559	7.260695111081
4	154	51.573346431038	6.720469441229
4	162	53.578752894377	6.952259790086
4	173	55.82554026474	8.646932406735
4	178	56.328965636707	7.341949537804
4	223	67.685215665989	0.880212182382
4	241	71.350612944594	1.923024323532
4	245	71.577508653956	1.172338240567
4	262	80.950078096627	2.531945593209
4	272	82.981274893133	3.261780727599
4	300	91.194104387973	4.109480336491
4	309	96.400691612453	7.95468060803
5	35	15.430707809346	10.039345478442
5	63	22.345232532606	11.414531412877
5	71	26.413562111084	12.581248361664
5	101	30.684024352001	13.858478548486
5	110	35.900760964205	18.1678300387
5	189	58.827385212727	28.852568739571
5	196	60.466327477393	13.224020876571
5	201	63.558091603343	11.249218241355
5	206	63.650037091177	9.588680529586
5	211	64.414580645394	9.651491625048
5	216	65.439045407809	8.386621327218
5	230	68.123821619706	0.152484023409
5	277	82.992099936265	2.275339157958
5	284	85.597158462802	3.035291341921
5	295	89.219800561966	6.536058688311

