version 2
run Third-n2-18-20191125-12:37:51-9004
attr configname Third-n2
attr datetime 20191125-12:37:51
attr experiment Third-n2
attr inifile omnetpp.ini
attr iterationvars ""
attr iterationvarsf ""
attr measurement ""
attr network org.omnetpp.queueing.Pizza
attr processid 9004
attr repetition 18
attr replication ""
attr resultdir results_no_transient
attr runnumber 18
attr seedset 18
param **.PS.maxInventoriedPS 2
param **.U1.interArrivalTime exponential(4s)
param **.U2.interArrivalTime exponential(6s)
param **.PS.serviceTimeForInventoryU1 exponential(1.4s)
param **.PS.serviceTimeForInventoryU2 exponential(1.4s)
param **.PS.serviceTimeDirectU1 exponential(1.8s)
param **.PS.serviceTimeDirectU2 exponential(1.8s)
param **.PS.probabilityProducing 0.8
param **.CS.serviceTimeU1 exponential(2.3s)
param **.CS.serviceTimeU2 exponential(2.3s)

vector 0 Pizza.EntryQueueU1 queueLength:vector ETV
attr interpolationmode sample-hold
attr title "queue length, vector"
vector 1 Pizza.CS queueLength:vector ETV
attr interpolationmode sample-hold
attr title "queue length, vector"
vector 2 Pizza.EntryQueueU2 queueLength:vector ETV
attr interpolationmode sample-hold
attr title "queue length, vector"
vector 3 Pizza.sink lifeTime:vector ETV
attr interpolationmode none
attr title "lifetime of arrived jobs, vector"
attr unit s
vector 4 Pizza.sink lifeTimeU2:vector ETV
attr interpolationmode none
attr title "lifetime of arrived jobs, vector"
attr unit s
vector 5 Pizza.sink lifeTimeU1:vector ETV
attr interpolationmode none
attr title "lifetime of arrived jobs, vector"
attr unit s
0	0	0	0
0	17	5.116053541883	1
0	21	7.342774285581	2
0	22	7.383017765291	1
0	27	8.333070114209	0
0	47	14.921397937876	1
0	48	15.199871959804	0
0	57	16.914240144873	1
0	58	17.966370710572	0
0	64	19.858368004629	1
0	65	21.835583337526	0
0	74	25.203128897056	1
0	76	26.152666987197	2
0	77	28.700846753241	1
0	83	29.249526021428	2
0	84	29.586809050812	1
0	91	30.413472638257	0
0	102	35.204654324777	1
0	104	37.49269394489	0
0	142	46.805486284232	1
0	146	47.928187440648	0
0	159	49.34321936227	1
0	160	49.696422084365	0
0	172	55.236905484514	1
0	173	55.289464518232	0
0	202	72.857674452147	1
0	208	73.842736126551	2
0	209	75.900857297205	1
0	215	76.935392068871	0
0	224	77.426958856571	1
0	225	77.57571839666	0
0	234	80.389944843127	1
0	237	83.28646720671	0
1	0	0	0
2	0	0	0
2	13	4.699012251547	1
2	15	4.7684529154	2
2	31	11.349965285439	3
2	34	11.764281548643	2
2	41	14.085809473395	1
2	54	16.204150641556	2
2	90	30.373700311429	3
2	96	34.611572378974	2
2	109	39.4473863979	1
2	113	41.603051156887	2
2	115	41.677506452285	3
2	119	42.733867306142	4
2	120	43.688993833397	3
2	126	45.430226779926	2
2	131	46.018262200931	1
2	136	46.170185236646	0
2	140	46.545426026713	1
2	151	48.768891667866	0
2	157	49.053331984515	1
2	166	51.922488910715	0
2	179	55.991357824687	1
2	183	58.583148318066	0
2	206	73.452307712533	1
2	222	77.329242306849	2
2	230	80.279230375588	1
2	242	84.810732647165	0
2	257	98.394020553225	1
2	259	99.171355689915	0
3	8	1.95605794728	1.481728780304
3	24	7.383017765291	3.179449910411
3	29	8.333070114209	3.217016572326
3	36	11.764281548643	4.421507263062
3	43	14.085809473395	9.386797221848
3	50	15.199871959804	10.431419044404
3	60	17.966370710572	3.044972772696
3	67	21.835583337526	4.921343192653
3	79	28.700846753241	8.842478748612
3	86	29.586809050812	4.383680153756
3	93	30.413472638257	4.26080565106
3	98	34.611572378974	5.362046357546
3	106	37.49269394489	26.142728659451
3	111	39.4473863979	4.242732073123
3	122	43.688993833397	27.484843191841
3	128	45.430226779926	15.056526468497
3	133	46.018262200931	4.415211044044
3	138	46.170185236646	4.492678784361
3	148	47.928187440648	5.194320134506
3	153	48.768891667866	1.963405383634
3	162	49.696422084365	3.150996057652
3	168	51.922488910715	2.579269548445
3	175	55.289464518232	6.236132533717
3	185	58.583148318066	3.346242833552
3	190	61.255683172906	5.264325348219
3	197	62.753893763131	0.082821880902
3	211	75.900857297205	6.763005587201
3	217	76.935392068871	4.077717616724
3	227	77.57571839666	3.732982270109
3	232	80.279230375588	2.852271519017
3	239	83.28646720671	9.834159494177
3	244	84.810732647165	4.420787804038
3	249	87.223813679706	9.894571372857
3	261	99.171355689915	0.995240185808
4	8	1.95605794728	1.481728780304
4	43	14.085809473395	9.386797221848
4	50	15.199871959804	10.431419044404
4	106	37.49269394489	26.142728659451
4	122	43.688993833397	27.484843191841
4	128	45.430226779926	15.056526468497
4	133	46.018262200931	4.415211044044
4	138	46.170185236646	4.492678784361
4	148	47.928187440648	5.194320134506
4	162	49.696422084365	3.150996057652
4	175	55.289464518232	6.236132533717
4	190	61.255683172906	5.264325348219
4	197	62.753893763131	0.082821880902
4	211	75.900857297205	6.763005587201
4	239	83.28646720671	9.834159494177
4	249	87.223813679706	9.894571372857
5	24	7.383017765291	3.179449910411
5	29	8.333070114209	3.217016572326
5	36	11.764281548643	4.421507263062
5	60	17.966370710572	3.044972772696
5	67	21.835583337526	4.921343192653
5	79	28.700846753241	8.842478748612
5	86	29.586809050812	4.383680153756
5	93	30.413472638257	4.26080565106
5	98	34.611572378974	5.362046357546
5	111	39.4473863979	4.242732073123
5	153	48.768891667866	1.963405383634
5	168	51.922488910715	2.579269548445
5	185	58.583148318066	3.346242833552
5	217	76.935392068871	4.077717616724
5	227	77.57571839666	3.732982270109
5	232	80.279230375588	2.852271519017
5	244	84.810732647165	4.420787804038
5	261	99.171355689915	0.995240185808

