version 2
run Third-n2-10-20191125-12:37:42-72
attr configname Third-n2
attr datetime 20191125-12:37:42
attr experiment Third-n2
attr inifile omnetpp.ini
attr iterationvars ""
attr iterationvarsf ""
attr measurement ""
attr network org.omnetpp.queueing.Pizza
attr processid 72
attr repetition 10
attr replication ""
attr resultdir results_no_transient
attr runnumber 10
attr seedset 10
param **.PS.maxInventoriedPS 2
param **.U1.interArrivalTime exponential(4s)
param **.U2.interArrivalTime exponential(6s)
param **.PS.serviceTimeForInventoryU1 exponential(1.4s)
param **.PS.serviceTimeForInventoryU2 exponential(1.4s)
param **.PS.serviceTimeDirectU1 exponential(1.8s)
param **.PS.serviceTimeDirectU2 exponential(1.8s)
param **.PS.probabilityProducing 0.8
param **.CS.serviceTimeU1 exponential(2.3s)
param **.CS.serviceTimeU2 exponential(2.3s)

vector 0 Pizza.EntryQueueU1 queueLength:vector ETV
attr interpolationmode sample-hold
attr title "queue length, vector"
vector 1 Pizza.CS queueLength:vector ETV
attr interpolationmode sample-hold
attr title "queue length, vector"
vector 2 Pizza.EntryQueueU2 queueLength:vector ETV
attr interpolationmode sample-hold
attr title "queue length, vector"
vector 3 Pizza.sink lifeTime:vector ETV
attr interpolationmode none
attr title "lifetime of arrived jobs, vector"
attr unit s
vector 4 Pizza.sink lifeTimeU2:vector ETV
attr interpolationmode none
attr title "lifetime of arrived jobs, vector"
attr unit s
vector 5 Pizza.sink lifeTimeU1:vector ETV
attr interpolationmode none
attr title "lifetime of arrived jobs, vector"
attr unit s
0	0	0	0
0	10	5.901737779903	1
0	13	6.920257362895	2
0	14	7.459240497746	1
0	20	7.803157592981	2
0	21	8.169147729608	1
0	29	8.543963959187	0
0	35	8.544193064941	1
0	37	9.486000124305	0
0	45	11.415528784953	1
0	46	12.825722631939	0
0	54	14.529311557518	1
0	55	14.624496001588	0
0	75	16.398721001239	1
0	76	16.553419651579	0
0	96	20.602551341964	1
0	97	20.929405195205	0
0	107	22.721107645478	1
0	109	23.241333506519	2
0	110	24.987133840577	1
0	115	25.330772588743	0
0	121	26.413965195543	1
0	126	29.801660536571	0
0	134	33.54888673696	1
0	136	34.27025710646	2
0	137	34.754980990505	1
0	142	34.980658236525	0
0	159	42.611918352983	1
0	163	44.373699706366	2
0	167	47.912198666888	3
0	169	48.559787332221	4
0	170	49.33833017057	3
0	176	49.717851065394	4
0	177	50.502385362852	3
0	183	51.574285183854	2
0	188	52.59063971081	1
0	195	53.673419603508	0
0	226	59.043096372489	1
0	227	60.272852953447	0
0	243	63.930715034388	1
0	244	64.064693384898	0
0	263	66.75489768191	1
0	264	67.453649785362	0
0	275	69.333333463244	1
0	277	70.99362498397	2
0	278	72.552877129698	1
0	292	81.23716473164	0
0	302	83.566224734739	1
0	306	85.673667882705	0
0	312	86.064672406601	1
0	314	87.479370345083	0
0	333	89.592441966637	1
0	336	91.56664747487	0
0	344	93.206541723594	1
0	347	95.841672412669	0
0	353	95.972980651591	1
0	355	96.752987572239	0
0	361	96.960520056074	1
0	362	97.012965442473	0
1	0	0	0
2	0	0	0
2	5	2.255262173034	1
2	27	8.280229921312	2
2	60	15.088325897202	1
2	66	15.218183283449	2
2	68	15.886467079088	3
2	69	16.397453531228	2
2	85	19.888675633848	1
2	90	20.106751484926	0
2	105	21.656816273294	1
2	124	27.56242161598	2
2	148	35.992782289379	3
2	150	36.976033268759	4
2	153	39.236464413356	3
2	161	43.431908907123	4
2	165	47.088105011173	5
2	200	53.767212468543	4
2	206	54.877348088948	3
2	211	55.615931755425	2
2	216	56.482577061512	1
2	222	57.584542438347	2
2	232	61.929887465833	1
2	238	62.036183650813	2
2	241	63.860805975758	3
2	250	64.895130540976	2
2	255	64.895757440886	1
2	259	66.008328661219	2
2	269	67.802082836228	1
2	284	72.563909612882	2
2	286	73.235757393518	3
2	291	76.722965065069	4
2	298	81.901404999367	5
2	300	82.324566038136	6
2	305	84.79278472941	7
2	319	88.472494861791	6
2	324	88.723480839443	5
2	329	89.432912878541	4
2	346	93.930945928469	5
2	368	98.472253898703	4
3	16	7.459240497746	5.329800090463
3	23	8.169147729608	2.267409949705
3	31	8.543963959187	1.623706596292
3	39	9.486000124305	1.682842531324
3	48	12.825722631939	4.281529566998
3	57	14.624496001588	3.208967216635
3	62	15.088325897202	0.559014339684
3	71	16.397453531228	14.142191358194
3	78	16.553419651579	8.273189730267
3	87	19.888675633848	3.489954632609
3	92	20.106751484926	4.888568201477
3	99	20.929405195205	5.042938116117
3	112	24.987133840577	4.384582498613
3	117	25.330772588743	2.609664943265
3	128	29.801660536571	6.560327030052
3	139	34.754980990505	8.341015794962
3	144	34.980658236525	1.431771499565
3	155	39.236464413356	4.966207306896
3	172	49.33833017057	27.681513897276
3	179	50.502385362852	7.890467009869
3	185	51.574285183854	7.200585477488
3	190	52.59063971081	4.678441043922
3	197	53.673419603508	5.113632271287
3	202	53.767212468543	4.049361403149
3	208	54.877348088948	27.314926472968
3	213	55.615931755425	19.623149466046
3	218	56.482577061512	19.506543792753
3	229	60.272852953447	16.840944046324
3	234	61.929887465833	2.886791093344
3	246	64.064693384898	16.976588373725
3	252	64.895130540976	0.964415506588
3	257	64.895757440886	7.311215002539
3	266	67.453649785362	5.417466134549
3	271	67.802082836228	1.047185154318
3	280	72.552877129698	8.69207115394
3	294	81.23716473164	11.903831268396
3	308	85.673667882705	14.680042898735
3	316	87.479370345083	3.913145610344
3	321	88.472494861791	2.40782245519
3	326	88.723480839443	22.715152178224
3	331	89.432912878541	16.869003265659
3	338	91.56664747487	18.330890081352
3	349	95.841672412669	6.249230446032
3	357	96.752987572239	3.546445848645
3	364	97.012965442473	1.039984790882
3	370	98.472253898703	1.511733842629
4	16	7.459240497746	5.329800090463
4	71	16.397453531228	14.142191358194
4	78	16.553419651579	8.273189730267
4	92	20.106751484926	4.888568201477
4	99	20.929405195205	5.042938116117
4	172	49.33833017057	27.681513897276
4	208	54.877348088948	27.314926472968
4	213	55.615931755425	19.623149466046
4	218	56.482577061512	19.506543792753
4	229	60.272852953447	16.840944046324
4	246	64.064693384898	16.976588373725
4	257	64.895757440886	7.311215002539
4	266	67.453649785362	5.417466134549
4	280	72.552877129698	8.69207115394
4	326	88.723480839443	22.715152178224
4	331	89.432912878541	16.869003265659
4	338	91.56664747487	18.330890081352
5	23	8.169147729608	2.267409949705
5	31	8.543963959187	1.623706596292
5	39	9.486000124305	1.682842531324
5	48	12.825722631939	4.281529566998
5	57	14.624496001588	3.208967216635
5	62	15.088325897202	0.559014339684
5	87	19.888675633848	3.489954632609
5	112	24.987133840577	4.384582498613
5	117	25.330772588743	2.609664943265
5	128	29.801660536571	6.560327030052
5	139	34.754980990505	8.341015794962
5	144	34.980658236525	1.431771499565
5	155	39.236464413356	4.966207306896
5	179	50.502385362852	7.890467009869
5	185	51.574285183854	7.200585477488
5	190	52.59063971081	4.678441043922
5	197	53.673419603508	5.113632271287
5	202	53.767212468543	4.049361403149
5	234	61.929887465833	2.886791093344
5	252	64.895130540976	0.964415506588
5	271	67.802082836228	1.047185154318
5	294	81.23716473164	11.903831268396
5	308	85.673667882705	14.680042898735
5	316	87.479370345083	3.913145610344
5	321	88.472494861791	2.40782245519
5	349	95.841672412669	6.249230446032
5	357	96.752987572239	3.546445848645
5	364	97.012965442473	1.039984790882
5	370	98.472253898703	1.511733842629

