version 2
run Third-n5-1-20191125-12:37:51-6460
attr configname Third-n5
attr datetime 20191125-12:37:51
attr experiment Third-n5
attr inifile omnetpp.ini
attr iterationvars ""
attr iterationvarsf ""
attr measurement ""
attr network org.omnetpp.queueing.Pizza
attr processid 6460
attr repetition 1
attr replication ""
attr resultdir results_no_transient
attr runnumber 1
attr seedset 1
param **.PS.maxInventoriedPS 5
param **.U1.interArrivalTime exponential(4s)
param **.U2.interArrivalTime exponential(6s)
param **.PS.serviceTimeForInventoryU1 exponential(1.4s)
param **.PS.serviceTimeForInventoryU2 exponential(1.4s)
param **.PS.serviceTimeDirectU1 exponential(1.8s)
param **.PS.serviceTimeDirectU2 exponential(1.8s)
param **.PS.probabilityProducing 0.8
param **.CS.serviceTimeU1 exponential(2.3s)
param **.CS.serviceTimeU2 exponential(2.3s)

vector 0 Pizza.EntryQueueU1 queueLength:vector ETV
attr interpolationmode sample-hold
attr title "queue length, vector"
vector 1 Pizza.CS queueLength:vector ETV
attr interpolationmode sample-hold
attr title "queue length, vector"
vector 2 Pizza.EntryQueueU2 queueLength:vector ETV
attr interpolationmode sample-hold
attr title "queue length, vector"
vector 3 Pizza.sink lifeTime:vector ETV
attr interpolationmode none
attr title "lifetime of arrived jobs, vector"
attr unit s
vector 4 Pizza.sink lifeTimeU1:vector ETV
attr interpolationmode none
attr title "lifetime of arrived jobs, vector"
attr unit s
vector 5 Pizza.sink lifeTimeU2:vector ETV
attr interpolationmode none
attr title "lifetime of arrived jobs, vector"
attr unit s
0	0	0	0
0	8	7.254924258687	1
0	10	7.84011273442	0
0	16	8.332140089392	1
0	18	8.815258635677	0
0	35	15.737672235488	1
0	38	17.604517254212	0
0	44	18.181765079521	1
0	46	21.314802944108	0
0	53	23.216473924222	1
0	54	24.025820999959	0
0	71	31.641097241149	1
0	73	33.78847737639	0
0	118	50.863175462515	1
0	119	51.224653070651	0
0	142	60.433017928611	1
0	146	61.384159369405	2
0	147	62.520966513581	1
0	153	62.61867460277	2
0	155	62.838030977668	3
0	157	64.540379969279	2
0	164	66.176063242508	3
0	166	67.385778908396	4
0	167	71.752753134286	3
0	174	72.198449576665	4
0	175	73.506242896064	3
0	181	74.736148233869	2
0	190	76.501737470888	1
0	197	80.117704019132	0
0	215	84.176432417662	1
0	216	85.57968349747	0
0	222	85.96946999945	1
0	224	88.775644033073	0
0	230	90.032107810309	1
0	231	91.470883314684	0
0	245	93.941286703621	1
0	251	98.895330259613	0
1	0	0	0
2	0	0	0
2	80	35.236349165888	1
2	81	36.496167535504	0
2	87	37.51088601232	1
2	88	39.164072932643	0
2	102	46.686734964447	1
2	103	46.796499667988	0
2	126	54.960637531304	1
2	128	55.724164723205	2
2	130	56.55993415899	3
2	131	56.599449010462	2
2	136	56.800302105724	1
2	144	61.024043434352	2
2	187	75.501683783052	3
2	189	75.780119901726	4
2	202	80.457852859754	3
2	210	82.320318750833	4
2	213	83.404805721343	5
2	236	92.475664751998	4
2	241	93.199272292321	3
2	258	99.150528022141	4
3	12	7.84011273442	5.681689428373
3	20	8.815258635677	1.56033437699
3	24	10.064939206516	1.732799117124
3	40	17.604517254212	4.840803781437
3	48	21.314802944108	5.57713070862
3	56	24.025820999959	5.844055920438
3	60	24.230243915719	1.013769991497
3	75	33.78847737639	2.561481543864
3	83	36.496167535504	4.855070294355
3	90	39.164072932643	3.927723766755
3	94	39.206525362042	1.695639349722
3	105	46.796499667988	2.485566737028
3	110	48.155416494211	1.468681529764
3	121	51.224653070651	1.366233030264
3	133	56.599449010462	5.736273547947
3	138	56.800302105724	1.83966457442
3	149	62.520966513581	6.796801790376
3	159	64.540379969279	4.107362040668
3	169	71.752753134286	10.368593764881
3	177	73.506242896064	10.887568293294
3	183	74.736148233869	11.898117256201
3	192	76.501737470888	10.32567422838
3	199	80.117704019132	12.731925110736
3	204	80.457852859754	8.259403283089
3	218	85.57968349747	29.01974933848
3	226	88.775644033073	4.599211615411
3	233	91.470883314684	5.501413315234
3	238	92.475664751998	2.443556941689
3	243	93.199272292321	32.175228857969
3	253	98.895330259613	23.393646476561
4	12	7.84011273442	5.681689428373
4	20	8.815258635677	1.56033437699
4	24	10.064939206516	1.732799117124
4	40	17.604517254212	4.840803781437
4	48	21.314802944108	5.57713070862
4	56	24.025820999959	5.844055920438
4	60	24.230243915719	1.013769991497
4	75	33.78847737639	2.561481543864
4	83	36.496167535504	4.855070294355
4	105	46.796499667988	2.485566737028
4	121	51.224653070651	1.366233030264
4	133	56.599449010462	5.736273547947
4	159	64.540379969279	4.107362040668
4	169	71.752753134286	10.368593764881
4	177	73.506242896064	10.887568293294
4	183	74.736148233869	11.898117256201
4	192	76.501737470888	10.32567422838
4	199	80.117704019132	12.731925110736
4	204	80.457852859754	8.259403283089
4	226	88.775644033073	4.599211615411
4	233	91.470883314684	5.501413315234
4	238	92.475664751998	2.443556941689
5	90	39.164072932643	3.927723766755
5	94	39.206525362042	1.695639349722
5	110	48.155416494211	1.468681529764
5	138	56.800302105724	1.83966457442
5	149	62.520966513581	6.796801790376
5	218	85.57968349747	29.01974933848
5	243	93.199272292321	32.175228857969
5	253	98.895330259613	23.393646476561

