version 2
run Third-n5-18-20191125-12:38:13-2880
attr configname Third-n5
attr datetime 20191125-12:38:13
attr experiment Third-n5
attr inifile omnetpp.ini
attr iterationvars ""
attr iterationvarsf ""
attr measurement ""
attr network org.omnetpp.queueing.Pizza
attr processid 2880
attr repetition 18
attr replication ""
attr resultdir results_no_transient
attr runnumber 18
attr seedset 18
param **.PS.maxInventoriedPS 5
param **.U1.interArrivalTime exponential(4s)
param **.U2.interArrivalTime exponential(6s)
param **.PS.serviceTimeForInventoryU1 exponential(1.4s)
param **.PS.serviceTimeForInventoryU2 exponential(1.4s)
param **.PS.serviceTimeDirectU1 exponential(1.8s)
param **.PS.serviceTimeDirectU2 exponential(1.8s)
param **.PS.probabilityProducing 0.8
param **.CS.serviceTimeU1 exponential(2.3s)
param **.CS.serviceTimeU2 exponential(2.3s)

vector 0 Pizza.EntryQueueU1 queueLength:vector ETV
attr interpolationmode sample-hold
attr title "queue length, vector"
vector 1 Pizza.CS queueLength:vector ETV
attr interpolationmode sample-hold
attr title "queue length, vector"
vector 2 Pizza.EntryQueueU2 queueLength:vector ETV
attr interpolationmode sample-hold
attr title "queue length, vector"
vector 3 Pizza.sink lifeTime:vector ETV
attr interpolationmode none
attr title "lifetime of arrived jobs, vector"
attr unit s
vector 4 Pizza.sink lifeTimeU2:vector ETV
attr interpolationmode none
attr title "lifetime of arrived jobs, vector"
attr unit s
vector 5 Pizza.sink lifeTimeU1:vector ETV
attr interpolationmode none
attr title "lifetime of arrived jobs, vector"
attr unit s
0	0	0	0
0	17	5.116053541883	1
0	21	7.342774285581	2
0	22	7.383017765291	1
0	27	8.333070114209	0
0	49	14.921397937876	1
0	54	16.852308224163	0
0	85	27.039781926026	1
0	86	28.032369972918	0
0	93	30.256398061893	1
0	94	31.722577429497	0
0	107	34.341562789603	1
0	109	35.473558952147	0
0	118	42.421384562379	1
0	119	42.859925862847	0
0	125	43.723491002263	1
0	126	44.722483652614	0
0	132	44.746161299663	1
0	134	44.811901695324	2
0	136	45.0002808031	1
0	146	45.56385181532	0
0	154	47.466193232617	1
0	156	48.783560694485	0
0	163	50.365933542168	1
0	164	51.297397726685	0
0	189	56.370500542244	1
0	191	56.432379528928	2
0	196	59.866394869566	1
0	202	60.743566080778	2
0	205	61.326600714624	3
0	206	61.927322939328	2
0	211	62.471592793637	1
0	218	63.12579162187	2
0	221	66.126465623756	1
0	226	66.286283872931	0
0	232	67.415679883361	1
0	233	67.810549313386	0
0	240	69.320900207434	1
0	241	69.366281200094	0
0	257	69.987085749367	1
0	259	70.746266970472	0
0	265	70.861924061256	1
0	272	74.250711979544	0
0	279	76.82758878115	1
0	280	77.277121955327	0
0	293	80.997165113224	1
0	298	83.503643896981	0
0	338	98.510599761091	1
0	339	98.672921061206	0
1	0	0	0
2	0	0	0
2	13	4.699012251547	1
2	15	4.7684529154	2
2	31	11.349965285439	3
2	34	11.764281548643	2
2	43	14.085809473395	1
2	52	16.204150641556	2
2	60	17.559560682506	1
2	65	19.209826623426	0
2	101	32.829663473985	1
2	103	32.904118769383	2
2	105	33.96047962324	3
2	116	41.0898238872	4
2	142	45.245053983742	5
2	145	45.462675116994	6
2	169	51.962318184168	5
2	175	53.539349996193	4
2	180	54.040879944679	3
2	185	56.120971051766	2
2	246	69.797021095246	1
2	251	69.908963293488	0
2	267	72.254016921794	1
2	269	72.316054315242	2
2	285	77.719833307188	1
2	295	82.07965678935	2
2	305	86.047154630342	1
2	310	86.254725892304	0
2	316	87.628008951086	1
2	317	90.764399555656	0
3	8	1.95605794728	1.481728780304
3	24	7.383017765291	3.179449910411
3	29	8.333070114209	3.217016572326
3	36	11.764281548643	4.421507263062
3	45	14.085809473395	9.386797221848
3	56	16.852308224163	12.083855308763
3	62	17.559560682506	2.63816274463
3	67	19.209826623426	7.859861337987
3	71	23.427049318476	7.22289867692
3	78	25.168277893579	0.800513509121
3	88	28.032369972918	2.465459967766
3	96	31.722577429497	4.682795503471
3	111	35.473558952147	5.217160890254
3	121	42.859925862847	8.518363073244
3	128	44.722483652614	2.301099090235
3	138	45.0002808031	1.276789800837
3	148	45.56385181532	0.817690515657
3	158	48.783560694485	3.971658999161
3	166	51.297397726685	3.831204494068
3	171	51.962318184168	1.596384642
3	177	53.539349996193	20.709686522208
3	182	54.040879944679	21.136761175296
3	187	56.120971051766	22.160491428526
3	198	59.866394869566	18.776570982366
3	208	61.927322939328	5.556822397084
3	213	62.471592793637	6.039213264709
3	223	66.126465623756	5.382899542978
3	228	66.286283872931	4.959683158307
3	235	67.810549313386	4.684757691516
3	243	69.366281200094	1.950601316733
3	248	69.797021095246	0.476120887812
3	253	69.908963293488	24.663909309746
3	261	70.746266970472	25.283591853478
3	274	74.250711979544	4.263626230177
3	282	77.277121955327	6.415197894071
3	287	77.719833307188	0.892244526038
3	300	83.503643896981	11.249626975187
3	307	86.047154630342	5.049989517118
3	312	86.254725892304	13.938671577062
3	319	90.764399555656	8.684742766306
3	323	93.229604846767	5.601595895681
3	331	95.552390258437	1.067602417282
3	341	98.672921061206	0.6796572489
3	346	99.929110374168	1.418510613077
4	8	1.95605794728	1.481728780304
4	45	14.085809473395	9.386797221848
4	56	16.852308224163	12.083855308763
4	67	19.209826623426	7.859861337987
4	71	23.427049318476	7.22289867692
4	88	28.032369972918	2.465459967766
4	177	53.539349996193	20.709686522208
4	182	54.040879944679	21.136761175296
4	187	56.120971051766	22.160491428526
4	198	59.866394869566	18.776570982366
4	253	69.908963293488	24.663909309746
4	261	70.746266970472	25.283591853478
4	300	83.503643896981	11.249626975187
4	312	86.254725892304	13.938671577062
4	319	90.764399555656	8.684742766306
4	323	93.229604846767	5.601595895681
5	24	7.383017765291	3.179449910411
5	29	8.333070114209	3.217016572326
5	36	11.764281548643	4.421507263062
5	62	17.559560682506	2.63816274463
5	78	25.168277893579	0.800513509121
5	96	31.722577429497	4.682795503471
5	111	35.473558952147	5.217160890254
5	121	42.859925862847	8.518363073244
5	128	44.722483652614	2.301099090235
5	138	45.0002808031	1.276789800837
5	148	45.56385181532	0.817690515657
5	158	48.783560694485	3.971658999161
5	166	51.297397726685	3.831204494068
5	171	51.962318184168	1.596384642
5	208	61.927322939328	5.556822397084
5	213	62.471592793637	6.039213264709
5	223	66.126465623756	5.382899542978
5	228	66.286283872931	4.959683158307
5	235	67.810549313386	4.684757691516
5	243	69.366281200094	1.950601316733
5	248	69.797021095246	0.476120887812
5	274	74.250711979544	4.263626230177
5	282	77.277121955327	6.415197894071
5	287	77.719833307188	0.892244526038
5	307	86.047154630342	5.049989517118
5	331	95.552390258437	1.067602417282
5	341	98.672921061206	0.6796572489
5	346	99.929110374168	1.418510613077

