version 2
run Third-n2-3-20191125-12:37:36-7804
attr configname Third-n2
attr datetime 20191125-12:37:36
attr experiment Third-n2
attr inifile omnetpp.ini
attr iterationvars ""
attr iterationvarsf ""
attr measurement ""
attr network org.omnetpp.queueing.Pizza
attr processid 7804
attr repetition 3
attr replication ""
attr resultdir results_no_transient
attr runnumber 3
attr seedset 3
param **.PS.maxInventoriedPS 2
param **.U1.interArrivalTime exponential(4s)
param **.U2.interArrivalTime exponential(6s)
param **.PS.serviceTimeForInventoryU1 exponential(1.4s)
param **.PS.serviceTimeForInventoryU2 exponential(1.4s)
param **.PS.serviceTimeDirectU1 exponential(1.8s)
param **.PS.serviceTimeDirectU2 exponential(1.8s)
param **.PS.probabilityProducing 0.8
param **.CS.serviceTimeU1 exponential(2.3s)
param **.CS.serviceTimeU2 exponential(2.3s)

vector 0 Pizza.EntryQueueU1 queueLength:vector ETV
attr interpolationmode sample-hold
attr title "queue length, vector"
vector 1 Pizza.CS queueLength:vector ETV
attr interpolationmode sample-hold
attr title "queue length, vector"
vector 2 Pizza.EntryQueueU2 queueLength:vector ETV
attr interpolationmode sample-hold
attr title "queue length, vector"
vector 3 Pizza.sink lifeTime:vector ETV
attr interpolationmode none
attr title "lifetime of arrived jobs, vector"
attr unit s
vector 4 Pizza.sink lifeTimeU2:vector ETV
attr interpolationmode none
attr title "lifetime of arrived jobs, vector"
attr unit s
vector 5 Pizza.sink lifeTimeU1:vector ETV
attr interpolationmode none
attr title "lifetime of arrived jobs, vector"
attr unit s
0	0	0	0
0	5	3.20112956357	1
0	9	4.576191196757	2
0	11	5.675626581148	1
0	16	5.771028807239	0
0	45	13.513914581795	1
0	46	13.599138972934	0
0	60	28.058800148358	1
0	63	29.035319233078	0
0	72	30.381316318756	1
0	73	30.844698773193	0
0	86	37.186887230861	1
0	90	41.650535659484	2
0	93	42.281038192808	1
0	100	43.37309110259	0
0	137	54.738453736066	1
0	139	56.071894092827	2
0	140	59.050961382915	1
0	146	60.445396867015	0
0	169	65.627225434001	1
0	172	67.12358687621	0
0	186	71.120678313316	1
0	187	72.198712753318	0
0	193	72.78182300576	1
0	196	74.358779396212	2
0	197	76.222416271137	1
0	204	76.71497361308	2
0	205	77.050218281176	1
0	211	77.653102934181	0
0	240	83.295703947951	1
0	242	83.849506928133	2
0	243	85.02857616965	1
0	249	85.507038078215	0
1	0	0	0
2	0	0	0
2	28	8.011139297676	1
2	31	8.670361805744	0
2	62	28.345553667548	1
2	70	30.274394269959	2
2	79	31.421940405935	1
2	88	39.367751228412	2
2	92	41.728728949075	3
2	105	45.250087060157	2
2	110	45.303881692289	1
2	116	46.503910427878	0
2	130	51.659396370019	1
2	131	52.383272511883	0
2	161	63.478999182897	1
2	163	65.454095338359	0
2	171	66.177158591337	1
2	178	69.811234977112	0
2	182	69.84470591324	1
2	216	77.713756104214	0
3	13	5.675626581148	5.235523953362
3	18	5.771028807239	2.569899243669
3	23	6.414966327788	1.838775131031
3	33	8.670361805744	0.841212106507
3	37	10.818502089624	2.807362791948
3	48	13.599138972934	1.925966481688
3	53	14.832666765586	1.318752183791
3	65	29.035319233078	2.690237832687
3	75	30.844698773193	2.785898624835
3	81	31.421940405935	1.040624087179
3	95	42.281038192808	13.93548452526
3	102	43.37309110259	6.186203871729
3	107	45.250087060157	3.599551400673
3	112	45.303881692289	15.02948742233
3	118	46.503910427878	7.136159199466
3	122	48.364523272819	6.635794323744
3	133	52.383272511883	1.407394940557
3	142	59.050961382915	7.391565012896
3	148	60.445396867015	5.706943130949
3	152	60.962594258156	4.890700165329
3	165	65.454095338359	2.7133450436
3	174	67.12358687621	3.644587693313
3	180	69.811234977112	4.184009543111
3	189	72.198712753318	6.021554161981
3	199	76.222416271137	5.101737957821
3	207	77.050218281176	4.268395275416
3	213	77.653102934181	3.294323537969
3	218	77.713756104214	0.998782491134
3	223	79.196165455918	9.351459542678
3	233	81.362753168777	0.378834685603
3	245	85.02857616965	2.713471278687
3	251	85.507038078215	2.211334130264
3	257	88.139350882187	4.289843954054
3	265	90.700778350484	1.271706104308
3	273	95.84696170137	1.505092449153
4	13	5.675626581148	5.235523953362
4	33	8.670361805744	0.841212106507
4	37	10.818502089624	2.807362791948
4	48	13.599138972934	1.925966481688
4	65	29.035319233078	2.690237832687
4	95	42.281038192808	13.93548452526
4	112	45.303881692289	15.02948742233
4	118	46.503910427878	7.136159199466
4	122	48.364523272819	6.635794323744
4	142	59.050961382915	7.391565012896
4	174	67.12358687621	3.644587693313
4	189	72.198712753318	6.021554161981
4	223	79.196165455918	9.351459542678
4	233	81.362753168777	0.378834685603
4	245	85.02857616965	2.713471278687
5	18	5.771028807239	2.569899243669
5	23	6.414966327788	1.838775131031
5	53	14.832666765586	1.318752183791
5	75	30.844698773193	2.785898624835
5	81	31.421940405935	1.040624087179
5	102	43.37309110259	6.186203871729
5	107	45.250087060157	3.599551400673
5	133	52.383272511883	1.407394940557
5	148	60.445396867015	5.706943130949
5	152	60.962594258156	4.890700165329
5	165	65.454095338359	2.7133450436
5	180	69.811234977112	4.184009543111
5	199	76.222416271137	5.101737957821
5	207	77.050218281176	4.268395275416
5	213	77.653102934181	3.294323537969
5	218	77.713756104214	0.998782491134
5	251	85.507038078215	2.211334130264
5	257	88.139350882187	4.289843954054
5	265	90.700778350484	1.271706104308
5	273	95.84696170137	1.505092449153

