version 2
run Third-n2-14-20191125-12:37:46-1168
attr configname Third-n2
attr datetime 20191125-12:37:46
attr experiment Third-n2
attr inifile omnetpp.ini
attr iterationvars ""
attr iterationvarsf ""
attr measurement ""
attr network org.omnetpp.queueing.Pizza
attr processid 1168
attr repetition 14
attr replication ""
attr resultdir results_no_transient
attr runnumber 14
attr seedset 14
param **.PS.maxInventoriedPS 2
param **.U1.interArrivalTime exponential(4s)
param **.U2.interArrivalTime exponential(6s)
param **.PS.serviceTimeForInventoryU1 exponential(1.4s)
param **.PS.serviceTimeForInventoryU2 exponential(1.4s)
param **.PS.serviceTimeDirectU1 exponential(1.8s)
param **.PS.serviceTimeDirectU2 exponential(1.8s)
param **.PS.probabilityProducing 0.8
param **.CS.serviceTimeU1 exponential(2.3s)
param **.CS.serviceTimeU2 exponential(2.3s)

vector 0 Pizza.EntryQueueU1 queueLength:vector ETV
attr interpolationmode sample-hold
attr title "queue length, vector"
vector 1 Pizza.CS queueLength:vector ETV
attr interpolationmode sample-hold
attr title "queue length, vector"
vector 2 Pizza.EntryQueueU2 queueLength:vector ETV
attr interpolationmode sample-hold
attr title "queue length, vector"
vector 3 Pizza.sink lifeTime:vector ETV
attr interpolationmode none
attr title "lifetime of arrived jobs, vector"
attr unit s
vector 4 Pizza.sink lifeTimeU1:vector ETV
attr interpolationmode none
attr title "lifetime of arrived jobs, vector"
attr unit s
vector 5 Pizza.sink lifeTimeU2:vector ETV
attr interpolationmode none
attr title "lifetime of arrived jobs, vector"
attr unit s
0	0	0	0
0	26	12.921474105548	1
0	27	13.601412545419	0
0	43	16.017938690223	1
0	44	16.376317938107	0
0	53	21.602007371721	1
0	55	22.068642357513	2
0	57	22.828464473912	3
0	59	24.255689881684	4
0	60	24.944473947384	3
0	65	27.514957660707	2
0	70	27.748608529997	1
0	78	30.384756379154	0
0	86	30.682939520963	1
0	88	30.791620500567	2
0	97	36.282198278449	3
0	99	39.730835082734	2
0	106	41.70931691476	3
0	108	44.116239171385	4
0	113	50.665076026161	3
0	119	53.550668668119	2
0	124	53.67256520665	1
0	134	60.511715898895	2
0	136	62.9897853425	3
0	137	66.455628992871	2
0	144	67.319280134854	3
0	146	68.090720395763	4
0	148	68.902933030387	5
0	150	69.858101330675	6
0	152	72.266529950416	7
0	154	72.834985805459	8
0	155	73.072008754414	7
0	161	73.834413459563	8
0	164	78.836191343093	9
0	166	79.632979623182	10
0	168	80.099353790505	11
0	169	85.598589635349	10
0	175	86.999358591186	9
0	181	89.230519881737	8
0	186	89.604780591934	7
0	192	89.642192097163	8
0	194	90.155104279538	9
0	196	91.725744319808	8
0	202	93.014877706408	7
0	209	93.772584777833	8
0	210	93.817861014492	7
0	218	94.495286548644	8
0	219	95.449609184127	7
0	225	97.846859376983	6
0	231	97.958163281939	7
0	233	98.305056431688	8
1	0	0	0
2	0	0	0
2	50	17.391234206153	1
2	74	29.655655607551	2
2	84	30.406466199811	3
2	90	30.928638083795	4
2	92	30.998430191161	5
2	94	31.384701701834	6
2	110	46.193063668059	7
2	112	47.456490211917	8
2	130	53.834449461947	9
2	216	94.210149638474	10
2	237	99.245150109261	11
2	239	99.673887102828	12
2	241	99.892188981149	13
3	7	4.841322362366	1.955602056708
3	17	9.701079122962	0.881228344075
3	29	13.601412545419	3.777477304531
3	35	13.979057833765	1.057583728217
3	46	16.376317938107	1.078230682116
3	62	24.944473947384	8.926535257161
3	67	27.514957660707	5.912950288986
3	72	27.748608529997	5.679966172484
3	80	30.384756379154	7.556291905242
3	101	39.730835082734	15.47514520105
3	115	50.665076026161	19.982136505198
3	121	53.550668668119	22.759048167552
3	126	53.67256520665	17.390366928201
3	139	66.455628992871	24.746312078111
3	157	73.072008754414	28.955769583029
3	171	85.598589635349	25.086873736454
3	177	86.999358591186	24.009573248686
3	183	89.230519881737	21.911239746883
3	188	89.604780591934	21.514060196171
3	198	91.725744319808	22.822811289421
3	204	93.014877706408	23.156776375733
3	212	93.817861014492	21.551331064076
3	221	95.449609184127	22.614623378668
3	227	97.846859376983	24.01244591742
4	7	4.841322362366	1.955602056708
4	17	9.701079122962	0.881228344075
4	29	13.601412545419	3.777477304531
4	35	13.979057833765	1.057583728217
4	62	24.944473947384	8.926535257161
4	67	27.514957660707	5.912950288986
4	72	27.748608529997	5.679966172484
4	80	30.384756379154	7.556291905242
4	101	39.730835082734	15.47514520105
4	115	50.665076026161	19.982136505198
4	121	53.550668668119	22.759048167552
4	126	53.67256520665	17.390366928201
4	139	66.455628992871	24.746312078111
4	157	73.072008754414	28.955769583029
4	171	85.598589635349	25.086873736454
4	177	86.999358591186	24.009573248686
4	183	89.230519881737	21.911239746883
4	188	89.604780591934	21.514060196171
4	198	91.725744319808	22.822811289421
4	204	93.014877706408	23.156776375733
4	212	93.817861014492	21.551331064076
4	221	95.449609184127	22.614623378668
4	227	97.846859376983	24.01244591742
5	46	16.376317938107	1.078230682116

