version 2
run First-n5-13-20191016-17:03:48-14404
attr configname First-n5
attr datetime 20191016-17:03:48
attr experiment First-n5
attr inifile omnetpp.ini
attr iterationvars ""
attr iterationvarsf ""
attr measurement ""
attr network org.omnetpp.queueing.Pizza
attr processid 14404
attr repetition 13
attr replication ""
attr resultdir results
attr runnumber 13
attr seedset 13
param **.PS.maxInventoriedPS 5
param **.U1.interArrivalTime exponential(2s)
param **.U2.interArrivalTime exponential(4s)
param **.PS.serviceTimeForInventoryU1 exponential(0.8s)
param **.PS.serviceTimeForInventoryU2 exponential(1.0s)
param **.PS.serviceTimeDirectU1 exponential(1.2s)
param **.PS.serviceTimeDirectU2 exponential(1.4s)
param **.PS.probabilityProducing 0.5
param **.CS.serviceTimeU1 exponential(0.8s)
param **.CS.serviceTimeU2 exponential(1.0s)

vector 0 Pizza.EntryQueueU1 queueLength:vector ETV
attr interpolationmode sample-hold
attr title "queue length, vector"
vector 1 Pizza.CS queueLength:vector ETV
attr interpolationmode sample-hold
attr title "queue length, vector"
vector 2 Pizza.EntryQueueU2 queueLength:vector ETV
attr interpolationmode sample-hold
attr title "queue length, vector"
vector 3 Pizza.sink lifeTime:vector ETV
attr interpolationmode none
attr title "lifetime of arrived jobs, vector"
attr unit s
vector 4 Pizza.sink lifeTimeU1:vector ETV
attr interpolationmode none
attr title "lifetime of arrived jobs, vector"
attr unit s
vector 5 Pizza.sink lifeTimeU2:vector ETV
attr interpolationmode none
attr title "lifetime of arrived jobs, vector"
attr unit s
0	0	0	0
0	5	3.549890252068	1
0	13	7.02760041119	2
0	15	8.239772737911	1
0	19	8.897239814039	2
0	22	9.499676164168	1
0	26	9.879426269775	2
0	28	10.588350967696	3
0	33	12.357285146252	2
0	43	12.962283266721	1
0	52	15.307673713546	2
0	53	15.344505705046	1
0	59	16.127959425341	0
0	94	20.304201849867	1
0	96	20.952883874216	2
0	97	21.173840553918	1
0	104	22.878146034868	2
0	105	23.180070429254	1
0	113	23.438832711324	2
0	115	23.625097727971	3
0	117	23.96241267329	2
0	122	24.017660931386	1
0	127	24.280222568629	0
0	136	24.579019801335	1
0	137	25.207129187373	0
0	153	26.543487719249	1
0	155	26.934835483432	2
0	158	28.125086360164	1
0	164	28.79819115136	0
0	183	29.220190269403	1
0	184	29.754040871168	0
0	188	30.4618227981	1
0	194	32.910084175856	0
0	245	43.179522519443	1
0	246	44.921237744319	0
0	252	45.178524718711	1
0	253	45.564971507926	0
0	303	55.843198703808	1
0	306	56.416412274113	0
0	310	56.64909932574	1
0	314	56.789083687533	2
0	315	56.965830917146	1
0	319	57.18617923137	2
0	323	57.451552930411	3
0	327	58.040227691565	2
0	332	58.088002849298	1
0	338	58.107060385392	2
0	339	58.588041988562	1
0	343	58.619464445879	2
0	347	60.51218916901	3
0	348	60.770095498232	2
0	353	62.080792812702	1
0	358	63.957372823474	0
0	389	70.890073575727	1
0	394	72.825742276154	2
0	400	73.756956141582	3
0	401	73.793584315715	2
0	407	74.571545989414	1
0	412	75.612993650494	0
0	423	76.144688128214	1
0	426	76.404457712471	0
0	437	76.790845431761	1
0	439	76.899475250166	2
0	440	77.023728252841	1
0	445	78.137912478635	0
0	449	78.360001466323	1
0	455	79.958212935192	0
0	477	82.429648100059	1
0	478	82.600060456492	0
0	491	87.248399656154	1
0	492	87.416997049975	0
0	496	89.485793030201	1
0	499	90.191324494061	0
0	510	91.948711033055	1
0	512	92.762508059795	2
0	514	93.591891955705	1
0	523	95.393194397467	2
0	524	95.855689605491	1
0	529	95.95760196944	0
0	548	99.079191057845	1
0	551	99.680027239706	0
0	557	99.733044881882	1
0	559	99.92793106206	2
0	562	101.146733731442	3
0	563	101.658507225173	2
0	568	102.562004635901	1
0	573	102.707337056335	0
0	595	104.963759219755	1
0	596	105.730068582248	0
0	664	125.62809566826	1
0	666	125.637582760152	2
0	668	126.418509184874	3
0	669	126.74512084721	2
0	674	127.600228259342	1
0	679	127.910807227738	0
0	687	128.688696209302	1
0	688	128.861585326567	0
0	694	130.081251426708	1
0	695	130.497717387704	0
0	701	130.851137996762	1
0	703	131.558080270575	2
0	704	131.567043602569	1
0	709	132.426894177111	0
0	720	133.049250331333	1
0	721	133.052548388936	0
0	727	133.085138661098	1
0	730	133.27567636229	0
0	734	133.487785229322	1
0	740	133.770167175835	2
0	745	134.364683833503	1
0	750	134.411510210529	0
0	770	138.456433839261	1
0	771	138.80112357488	0
0	784	140.247149180503	1
0	786	141.126154336592	0
0	792	141.324097276617	1
0	797	143.097647281371	0
0	835	147.756211180892	1
0	836	148.075829356392	0
0	858	152.476625950968	1
0	859	152.516076322112	0
0	874	154.049815359272	1
0	876	154.476566276851	2
0	878	155.124385891659	3
0	882	157.091182615752	4
0	885	158.540508570858	3
0	891	158.584910657802	2
0	898	159.758131130272	3
0	901	162.299330378877	2
0	906	163.484304920296	1
0	911	164.391000724272	0
0	927	165.56843822601	1
0	931	167.2213472808	2
0	933	167.401668443633	1
0	939	168.003042812767	2
0	940	168.150258102709	1
0	945	168.527735215512	0
0	964	170.584156372477	1
0	970	171.833286668601	2
0	972	172.300023040445	3
0	973	172.60988522969	2
0	978	172.627189167343	1
0	985	173.877885995751	2
0	987	174.184446710304	3
0	988	175.019069348781	2
0	996	175.435536789862	1
0	1001	175.561135694854	0
0	1007	176.606907446451	1
0	1008	178.917030054157	0
0	1014	178.971744545365	1
0	1016	179.038623106454	0
0	1022	179.353856913422	1
0	1023	179.478227017081	0
0	1027	179.497126741637	1
0	1029	181.439835445005	2
0	1034	183.407801157494	3
0	1037	184.15619819575	4
0	1038	184.778976499595	3
0	1043	184.783084299728	2
0	1048	185.024037599398	1
0	1052	185.411036876472	2
0	1055	185.476386765705	1
0	1061	187.04739763216	2
0	1062	188.023698968031	1
0	1067	188.273334227092	0
0	1071	188.660534458143	1
0	1075	189.162413009569	0
0	1087	189.965161018905	1
0	1088	190.127565136754	0
0	1119	197.198208952308	1
0	1120	198.074702132705	0
0	1132	198.45018841282	1
0	1133	200.282399177439	0
0	1140	201.671356889302	1
0	1141	201.818099522931	0
0	1204	217.88154948889	1
0	1205	218.645193552566	0
0	1209	218.681674736583	1
0	1212	221.280423159114	0
0	1216	221.83448037215	1
0	1225	225.765566741534	2
0	1228	227.169012036528	1
0	1235	227.609554802754	0
0	1246	229.290047941575	1
0	1248	229.81957030376	0
0	1252	230.173110873214	1
0	1257	233.460195541114	0
0	1296	239.980475093233	1
0	1298	241.738731843456	2
0	1302	243.818804430688	1
0	1313	245.888684217493	0
0	1332	246.910825182843	1
0	1333	247.681543674421	0
0	1339	248.84780261276	1
0	1340	249.022308925705	0
0	1380	256.038525704375	1
0	1384	257.413952364618	0
0	1404	259.134441243846	1
0	1406	259.596194212578	0
0	1412	261.314142485897	1
0	1417	265.020711487514	0
0	1432	267.250862839679	1
0	1433	267.469850850887	0
0	1492	284.922660001791	1
0	1494	285.039331207102	2
0	1495	285.094529993135	1
0	1502	285.594155394351	0
0	1545	292.470352403526	1
0	1550	293.119631206341	2
0	1552	293.126509070867	3
0	1553	293.498747976381	2
0	1559	293.903859409325	1
0	1565	294.574992076466	2
0	1566	295.25353869485	1
0	1571	295.676091929098	0
0	1624	304.1927877813	1
0	1625	304.823818737302	0
0	1640	308.110554481428	1
0	1641	308.502336088131	0
0	1673	313.642051148246	1
0	1675	313.653290850367	2
0	1679	314.13432352259	3
0	1681	315.707483044155	2
0	1686	316.75800289143	1
0	1691	319.764192079405	0
0	1713	323.113266632505	1
0	1715	325.068194373398	2
0	1717	325.291918723174	3
0	1723	326.219609764004	2
0	1730	327.10210397828	3
0	1731	327.844377794503	2
0	1736	328.034326716678	1
0	1742	328.401842666499	2
0	1748	330.607509480392	1
0	1754	331.27974874977	0
0	1778	334.075116770018	1
0	1780	334.465950845563	0
0	1803	336.835049512463	1
0	1807	338.12908704591	0
0	1813	338.505973311593	1
0	1815	338.52366632033	2
0	1822	340.339682364816	3
0	1823	340.854426810048	2
0	1830	341.256042032568	1
0	1835	343.413078014343	0
0	1853	345.12941759225	1
0	1854	345.729523151387	0
0	1899	362.692176844894	1
0	1900	362.881579024053	0
0	1928	369.815911826099	1
0	1935	371.912401133113	0
0	1948	372.644983844044	1
0	1949	372.646439925481	0
0	1971	374.592296669348	1
0	1972	374.631079745159	0
0	1983	375.821786412442	1
0	1985	376.328014107691	0
0	2003	378.046877103997	1
0	2005	378.294192913464	0
0	2036	384.57825649855	1
0	2037	384.592107726077	0
0	2043	384.955896199783	1
0	2044	385.356596764246	0
0	2051	385.833497820203	1
0	2053	386.094105951711	2
0	2057	386.222631172832	3
0	2058	386.604359450477	2
0	2067	387.804115950356	3
0	2068	388.167930487363	2
0	2074	388.529624837821	3
0	2075	388.627696351333	2
0	2081	389.625553850853	1
0	2086	389.934841032002	0
0	2103	393.548887507424	1
0	2105	394.025678981753	2
0	2107	394.346315734185	3
0	2108	395.922179952341	2
0	2113	396.493743520667	1
0	2119	396.831803735739	0
0	2153	402.264754836162	1
0	2156	403.365251526438	2
0	2157	404.19391545186	1
0	2162	404.328795463695	0
0	2168	405.843942903639	1
0	2170	406.033341949065	2
0	2171	406.128882363954	1
0	2178	409.143594568704	0
0	2199	412.038915967329	1
0	2200	412.374323509123	0
0	2228	417.35447640042	1
0	2232	418.247988661726	0
0	2238	418.296505500013	1
0	2240	418.648237239726	0
0	2251	419.130016742932	1
0	2252	420.643311136234	0
0	2256	421.043507932546	1
0	2261	421.320502920478	0
0	2279	423.624743352307	1
0	2280	423.796313457542	0
0	2312	428.325992668797	1
0	2313	428.901726462046	0
0	2372	443.229612009904	1
0	2377	444.739461290028	0
0	2383	444.807387213766	1
0	2384	444.875553258686	0
0	2403	445.930518303599	1
0	2408	448.253260982432	2
0	2409	448.825162441526	1
0	2414	448.881708917464	0
0	2421	449.480015148315	1
0	2424	449.987948361971	0
0	2430	450.822063626946	1
0	2431	451.164509033675	0
0	2463	457.257545820862	1
0	2465	457.449096837394	2
0	2475	459.663132257471	3
0	2477	459.905832076746	4
0	2478	460.449573132642	3
0	2490	464.58172743222	2
0	2498	464.96712385732	3
0	2499	465.335793876888	2
0	2504	465.436110369586	1
0	2509	466.126723479131	0
0	2522	467.129646204675	1
0	2524	467.257492457653	0
0	2549	468.83800940035	1
0	2558	471.892514462096	0
0	2580	478.373766552028	1
0	2582	478.535846438829	2
0	2583	478.695074296778	1
0	2589	479.289336528294	0
0	2609	480.965722409869	1
0	2612	481.412626552344	0
0	2620	482.031929395416	1
0	2623	482.662134841424	0
0	2635	484.446767600903	1
0	2636	485.691978908391	0
0	2657	489.639238787286	1
0	2659	489.690919402164	2
0	2660	492.501869324574	1
0	2665	492.616310764301	0
0	2681	493.888458975128	1
0	2683	493.914327403526	2
0	2685	494.055427759584	3
0	2690	495.392265921098	4
0	2692	495.583339456939	5
0	2694	495.705779948942	6
0	2696	496.009262276161	7
0	2697	496.621122253992	6
0	2703	496.767834336287	7
0	2704	496.983236519302	6
0	2711	499.542679608602	5
0	2716	499.558712766097	4
0	2721	501.235580024125	3
0	2725	501.294339424423	4
0	2729	502.358916055293	5
0	2731	502.574333495044	6
0	2732	503.017218610842	5
0	2740	504.770064788534	4
0	2749	505.926109840354	5
0	2751	506.34398157866	6
0	2752	506.519059758909	5
0	2757	506.808078090718	4
0	2764	508.223414726	3
0	2769	510.333029899128	2
0	2775	511.892029175148	3
0	2777	512.184255051559	4
0	2780	513.708994208852	3
0	2785	515.153056471322	2
0	2793	516.740274603591	1
0	2799	517.043321547871	2
0	2800	517.54569524372	1
0	2805	518.623854298625	0
0	2816	520.647496833595	1
0	2818	521.04801877905	0
0	2822	521.329322058697	1
0	2824	521.492546146803	2
0	2826	522.03657770604	3
0	2831	526.29552059836	2
0	2836	527.249300947983	1
0	2841	528.125709696413	0
0	2847	528.599730490266	1
0	2853	530.828081639726	2
0	2854	531.678882787584	1
0	2859	532.093885794884	0
0	2883	533.634931359762	1
0	2884	533.82253086834	0
0	2954	545.497985373035	1
0	2956	546.381545140283	0
0	2969	547.925640252289	1
0	2970	548.323101043158	0
0	2976	549.224855960682	1
0	2983	550.39603978608	2
0	2984	550.845496885712	1
0	2990	550.847435881569	2
0	2992	550.916497860428	3
0	2994	551.109806730572	4
0	2996	551.190844283933	5
0	2997	551.376129836047	4
0	3002	552.901374406929	3
0	3006	553.034978143156	4
0	3008	553.252188866742	5
0	3010	553.306203178072	6
0	3014	554.368760586251	7
0	3018	555.968945180646	6
0	3023	555.998581889139	5
0	3028	556.656295885761	4
0	3039	557.328225988565	5
0	3040	557.516728814084	4
0	3045	557.536085202075	3
0	3052	558.449326332834	4
0	3054	558.638642608482	5
0	3056	559.180434043792	6
0	3057	559.635138323617	5
0	3062	560.426850384848	4
0	3067	561.977154203016	3
0	3072	563.454543186147	2
0	3076	563.668171732945	3
0	3079	566.793493791612	2
0	3083	566.982603536668	3
0	3086	567.197925288936	2
0	3092	567.67982515653	1
0	3098	567.894604440412	2
0	3100	568.297919249259	1
0	3105	568.397451127733	0
0	3122	571.539265906186	1
0	3125	572.506755925722	2
0	3126	573.276137444416	1
0	3132	573.428508869129	2
0	3133	574.909883671461	1
0	3138	576.490043365994	0
0	3145	577.484644294235	1
0	3149	578.954655940573	2
0	3151	579.712612157538	3
0	3152	580.093133750721	2
0	3157	580.20672546394	1
0	3162	580.718413422413	0
0	3166	582.315983216871	1
0	3168	583.025200781903	2
0	3171	584.625899930831	1
0	3175	584.853414208583	2
0	3177	585.177815832559	3
0	3181	586.084159662552	4
0	3182	586.160241587602	3
0	3188	588.268639078763	2
0	3193	588.338610701189	1
0	3197	588.513978089093	2
0	3206	591.924045287851	1
0	3211	592.263178302004	0
0	3217	592.481112521279	1
0	3219	592.692696425014	0
0	3274	601.724153146713	1
0	3275	602.453216926678	0
0	3304	606.061548127969	1
0	3305	606.63013179705	0
0	3311	607.152279875012	1
0	3312	607.373296636126	0
0	3318	607.606467028936	1
0	3320	607.898512634253	2
0	3322	610.232928814702	1
0	3329	610.573869600551	0
0	3362	613.999752336123	1
0	3363	614.105010084417	0
0	3370	614.513553803114	1
0	3373	615.199636535075	2
0	3378	616.682812770259	1
0	3383	616.74880846799	0
0	3444	631.995917593211	1
0	3445	631.996161333217	0
0	3475	634.116418693876	1
0	3477	634.214357035748	2
0	3478	634.361199875248	1
0	3484	634.363873607058	2
0	3485	634.625079867538	1
0	3489	635.521460270184	2
0	3491	635.754804950292	3
0	3493	635.886231065901	4
0	3499	641.598390661947	5
0	3500	641.803686798849	4
0	3510	642.872406680629	5
0	3515	644.523635832617	6
0	3516	644.858882004985	5
0	3522	645.587400273081	6
0	3523	645.76298520762	5
0	3528	646.430319480263	4
0	3534	646.931801664033	3
0	3539	646.993909262879	2
0	3544	647.144843743808	1
0	3548	648.097349593858	2
0	3552	648.902378793926	3
0	3554	649.59178742864	4
0	3556	649.77304769298	5
0	3560	651.151263319995	6
0	3561	651.455126285497	5
0	3571	655.340527194246	4
0	3577	655.416984591429	5
0	3579	655.543405489067	6
0	3581	656.28678191271	7
0	3582	656.761714590118	6
0	3597	659.253585651903	5
0	3601	661.520582953624	6
0	3604	664.361118056785	5
0	3608	664.740879394306	6
0	3610	665.038450319231	7
0	3612	665.759603316557	8
0	3617	666.395374327717	7
0	3624	666.910588918783	8
0	3626	667.131324938239	9
0	3627	667.236677481528	8
0	3636	670.535936288867	7
0	3642	671.173095112779	8
0	3643	671.541445118945	7
0	3648	672.131117563652	6
0	3653	673.176430783938	5
0	3659	673.318939762176	6
0	3660	673.833994598224	5
0	3666	674.784312817294	4
0	3671	675.755061245575	3
0	3677	676.157075238502	4
0	3678	676.917782383415	3
0	3682	676.95335552192	4
0	3684	678.012161970987	5
0	3686	678.555547470323	6
0	3689	678.724351982338	5
0	3693	679.219767761954	6
0	3695	680.203770963801	7
0	3701	681.217048759017	6
0	3707	681.224854435533	7
0	3712	682.246829434832	6
0	3719	683.805935459091	5
0	3724	684.385726596595	4
0	3730	684.722470247424	5
0	3731	684.882980657364	4
0	3736	685.036367031308	3
0	3741	686.842935249759	2
0	3746	688.838448062109	1
0	3752	689.603432578944	2
0	3753	691.757512753578	1
0	3757	691.801089034833	2
0	3761	692.13292535213	3
0	3764	692.25466126548	2
0	3769	692.625050353773	1
0	3773	693.637181728552	2
0	3777	694.989734799763	3
0	3778	695.114520857402	2
0	3783	695.245108070425	1
0	3794	700.146945205863	0
0	3812	701.11560943641	1
0	3817	701.753196843664	2
0	3818	701.754576061393	1
0	3823	701.770458858558	0
0	3841	703.535322517486	1
0	3843	704.32242229575	0
0	3879	708.333729681464	1
0	3882	708.82720009873	2
0	3883	709.048362671507	1
0	3889	709.554067039739	0
0	3902	711.466258765599	1
0	3906	711.711328655186	2
0	3909	712.541822238366	1
0	3914	713.553829669841	0
0	3931	715.431706679659	1
0	3935	718.831401254515	0
0	3946	720.021841231386	1
0	3949	720.409917096993	2
0	3950	720.492085233803	1
0	3957	720.823863410328	2
0	3959	721.296641782682	1
0	3964	721.445972096282	0
0	3980	721.803308870729	1
0	3983	721.986927160898	2
0	3984	722.255361272323	1
0	3992	723.19038477558	0
0	4023	726.527341727573	1
0	4025	727.632766945726	2
0	4026	728.521291422746	1
0	4032	729.77586753341	0
0	4061	733.264996811242	1
0	4065	734.273636447135	2
0	4066	734.673335877343	1
0	4071	734.779626563585	0
0	4094	738.076022068756	1
0	4095	738.115815994372	0
0	4122	740.48276714825	1
0	4123	740.76175734751	0
0	4141	744.20495744264	1
0	4143	744.683999765206	2
0	4146	746.258846787559	1
0	4152	746.576511470214	2
0	4155	746.927941427039	1
0	4160	747.146530429509	0
0	4171	748.532864109596	1
0	4173	748.941145459666	2
0	4174	749.815205669547	1
0	4181	751.607739192453	2
0	4182	751.928710550628	1
0	4188	752.225397657292	2
0	4191	753.289480573209	1
0	4196	753.414028216355	0
0	4207	753.908223235608	1
0	4209	754.048861678577	0
0	4226	757.616093684722	1
0	4227	758.931585068886	0
0	4286	767.411248814828	1
0	4289	768.440216564992	0
0	4310	770.032524826277	1
0	4313	770.586763246641	2
0	4315	770.720293636799	3
0	4316	771.139545732574	2
0	4321	771.148314324601	1
0	4328	771.804169139385	0
0	4339	772.770634338871	1
0	4340	772.806726528272	0
0	4347	773.200839974919	1
0	4348	774.38977711982	0
0	4354	774.783765669332	1
0	4355	775.957945747696	0
0	4361	776.988112485846	1
0	4371	778.074560973467	2
0	4372	778.513697516883	1
0	4376	778.639821393017	2
0	4380	779.765673198803	3
0	4384	779.970982234689	4
0	4388	780.761535253978	3
0	4393	781.607623019193	2
0	4398	784.761891047538	1
0	4403	786.168661996311	0
0	4407	786.629487637479	1
0	4411	787.557263791068	2
0	4414	788.4193605665	1
0	4420	790.059708144097	2
0	4422	792.718052212802	3
0	4424	792.917321667366	4
0	4432	795.256095050044	3
0	4437	795.885744468558	2
0	4441	797.484406218706	3
0	4444	798.221042875908	2
0	4448	798.995261917168	3
0	4451	799.387549375041	2
0	4458	800.789485863244	1
0	4463	801.680944123084	0
0	4467	802.091672658059	1
0	4469	802.195958359692	2
0	4471	803.947984732867	3
0	4474	804.673664047872	2
0	4478	804.782154779177	3
0	4483	805.598305096011	4
0	4487	806.400883146692	5
0	4489	806.513323553021	6
0	4491	806.595586535723	7
0	4494	806.874798472232	6
0	4500	807.24712089464	7
0	4507	807.826338267042	6
0	4512	808.118212641801	5
0	4517	808.489080347544	4
0	4523	809.069420125823	5
0	4524	809.239813052441	4
0	4533	811.692007156753	3
0	4539	814.483558037817	4
0	4541	814.89188800506	5
0	4544	815.09222588844	4
0	4548	815.706104369871	5
0	4551	816.496473887474	4
0	4561	817.219987258258	5
0	4564	817.396753986206	4
0	4571	819.572984485425	3
0	4576	819.708197614611	2
0	4585	821.410603410451	3
0	4586	821.995295654012	2
0	4592	824.200081075719	3
0	4593	824.249562715636	2
0	4598	824.697520921705	1
0	4602	824.731999776716	2
0	4604	824.86072900994	3
0	4606	826.335062030053	4
0	4611	828.102884202019	3
0	4617	829.867768539895	4
0	4618	829.931615892641	3
0	4625	831.564283464156	2
0	4632	832.901124633731	1
0	4636	832.955434850257	2
0	4638	833.181587275027	3
0	4642	834.682671462121	4
0	4645	836.006169422261	3
0	4649	836.999294263744	4
0	4654	838.157060074092	3
0	4660	841.056796626471	4
0	4661	841.544747374907	3
0	4665	842.964671037768	4
0	4669	843.606601244515	5
0	4670	843.782493479647	4
0	4675	844.088061736662	3
0	4679	844.275189433836	4
0	4682	844.713855546159	3
0	4687	846.304621144825	2
0	4691	846.98074604341	3
0	4693	847.290059986269	4
0	4695	847.483596575041	5
0	4698	849.89052663541	4
0	4703	850.390920357326	3
0	4707	850.533732986755	4
0	4710	852.192058492824	3
0	4716	854.600940749851	4
0	4722	858.617470767019	5
0	4724	858.667574335493	6
0	4725	858.94688348533	5
0	4729	858.948072469894	6
0	4732	859.257924664582	5
0	4736	859.298103751532	6
0	4741	859.885985229627	5
0	4749	862.054065717088	4
0	4755	862.4487273516	3
0	4763	863.287419758631	2
0	4769	863.340123211331	3
0	4770	863.753727560336	2
0	4774	865.071249459561	3
0	4777	867.316832782515	2
0	4782	867.783635571577	1
0	4788	868.62732049011	2
0	4793	869.542353170562	1
0	4797	869.891501155442	2
0	4803	871.284119324972	3
0	4807	871.69230649159	4
0	4809	872.468709537988	3
0	4815	874.100239730454	4
0	4816	874.359198468139	3
0	4825	876.002969731665	2
0	4830	876.303534050818	1
0	4836	877.073131307568	0
0	4842	877.219744798539	1
0	4844	877.328004202913	2
0	4845	878.446129847069	1
0	4849	878.459951496188	2
0	4851	878.96356960992	3
0	4855	879.586981787137	2
0	4861	879.983769844442	3
0	4863	880.394390939391	4
0	4865	880.437628489916	5
0	4866	880.923069396975	4
0	4874	882.869813481543	3
0	4879	883.05680520893	2
0	4883	885.057132009789	3
0	4886	886.407629211508	2
0	4893	887.999162272593	3
0	4894	888.83101082672	2
0	4900	888.928909119651	1
0	4906	889.014122499092	2
0	4908	889.571407058793	1
0	4913	889.669819369268	0
0	4921	891.106544498108	1
0	4923	891.27244925137	2
0	4924	891.357339059726	1
0	4936	893.568274656507	0
0	4958	896.077385584617	1
0	4960	897.014434183796	2
0	4961	897.208674117387	1
0	4966	897.283399254571	0
0	4986	899.716650381195	1
0	4987	900.033192375468	0
0	5012	902.121051552171	1
0	5013	902.305843461274	0
0	5029	905.728478233873	1
0	5038	912.250088922526	0
0	5055	915.103605416667	1
0	5056	915.114386922672	0
0	5085	917.640753863842	1
0	5086	918.630245679703	0
0	5099	921.489735910866	1
0	5100	922.609452094637	0
0	5119	925.228415969016	1
0	5121	925.346285321454	2
0	5123	925.737513374656	3
0	5127	926.192496640141	2
0	5135	928.592597922963	1
0	5141	929.1887215317	0
0	5183	935.582296403825	1
0	5184	936.036482257454	0
0	5198	937.408796896316	1
0	5203	941.582746684464	0
0	5231	946.471246859158	1
0	5235	948.828154953305	0
0	5241	949.185762536619	1
0	5243	949.636141152871	2
0	5244	949.80195118863	1
0	5249	949.975486697312	0
0	5255	950.202152841868	1
0	5256	950.396580259062	0
0	5300	958.331190945574	1
0	5302	958.342881405584	2
0	5305	959.89285911158	1
0	5310	960.134267961836	0
0	5321	961.974339618256	1
0	5325	962.449993591827	2
0	5326	962.523244964068	1
0	5335	963.019316589754	0
0	5341	963.121965910273	1
0	5343	963.494073865677	2
0	5344	963.657852000451	1
0	5350	964.025871316267	0
0	5379	969.169747891679	1
0	5385	970.086139199951	0
0	5404	971.828278464877	1
0	5406	972.563688895889	2
0	5409	972.884553890254	1
0	5416	974.114724930658	2
0	5418	974.371621915545	3
0	5420	975.340112220592	2
0	5429	977.842302012819	1
0	5434	977.933020737727	0
0	5444	980.072190540635	1
0	5447	984.954363841141	0
0	5453	985.408352659148	1
0	5456	988.573608378453	0
0	5511	994.232277598248	1
0	5514	994.963111062438	2
0	5516	995.743631152922	1
0	5523	996.582229645709	0
0	5542	997.473107475359	1
0	5547	999.023590871963	0
0	5569	1000.689996531137	1
0	5570	1000.978085815043	0
0	5587	1003.782419917745	1
0	5591	1005.289213986445	0
0	5613	1009.499419507356	1
0	5615	1010.072710167936	2
0	5616	1010.094377711672	1
0	5622	1010.553421524195	0
0	5653	1014.42027693376	1
0	5656	1015.672624199435	0
0	5678	1017.62852594982	1
0	5681	1017.781969254814	0
0	5699	1021.361762938968	1
0	5711	1024.861103601419	0
0	5730	1026.087600412047	1
0	5731	1026.176828235822	0
0	5752	1028.030667860683	1
0	5757	1028.939011143054	2
0	5759	1028.974339773404	3
0	5760	1029.169077130785	2
0	5765	1029.41308864376	1
0	5772	1030.689114353836	0
0	5797	1034.986503255617	1
0	5801	1035.244843364583	2
0	5803	1035.788461977303	1
0	5808	1035.821149599354	0
0	5814	1035.926568697006	1
0	5819	1036.678552311341	2
0	5821	1037.20642145424	3
0	5822	1037.749897075577	2
0	5828	1038.050398412592	3
0	5829	1038.216958814876	2
0	5835	1038.478853024485	1
0	5840	1038.895100899018	0
0	5846	1039.139948766414	1
0	5847	1039.748594387763	0
0	5855	1040.484166293701	1
0	5856	1041.077423268726	0
0	5891	1048.483944836191	1
0	5893	1048.546384820287	2
0	5894	1048.704388178547	1
0	5901	1049.489529587086	0
0	5919	1050.005158011269	1
0	5922	1050.781968910904	2
0	5925	1051.403869950086	3
0	5928	1052.192821106727	2
0	5934	1053.52640446952	3
0	5936	1055.684283079195	4
0	5938	1056.839112498698	3
0	5943	1057.01180270093	2
0	5950	1057.36439235887	3
0	5952	1057.701350241234	4
0	5954	1057.810772795972	5
0	5955	1058.682384265504	4
0	5960	1059.183691629845	3
0	5967	1060.45584124799	2
0	5975	1062.222758242912	3
0	5979	1062.541029630763	4
0	5980	1063.925943358277	3
0	5985	1064.151463244096	2
0	5992	1064.661313581771	1
0	5998	1065.805414404952	2
0	6000	1065.916021063928	3
0	6002	1066.022292459389	4
0	6003	1066.381739107083	3
0	6008	1068.250560272711	2
0	6012	1068.60523339885	3
0	6014	1068.802713624095	4
0	6018	1069.108774152319	5
0	6021	1070.587802251466	4
0	6029	1072.108404432516	5
0	6032	1073.429383865528	4
0	6041	1075.283340530576	5
0	6042	1075.531836272831	4
0	6047	1075.878425959177	3
0	6052	1075.907044319029	2
0	6057	1077.151763692634	1
0	6061	1077.847907310079	2
0	6063	1078.097199162645	3
0	6066	1079.117408869698	2
0	6070	1080.026165169236	3
0	6073	1081.02085684102	2
0	6081	1082.525646101483	3
0	6089	1084.905929896334	4
0	6091	1085.908412220122	5
0	6092	1086.108971116268	4
0	6098	1086.611760762605	5
0	6099	1086.977143086295	4
0	6104	1087.168794427223	3
0	6109	1087.941154558888	2
0	6117	1088.434163791731	3
0	6118	1088.533881966957	2
0	6124	1089.077029060951	3
0	6127	1089.159856898424	4
0	6131	1090.506570876861	5
0	6132	1090.571451210125	4
0	6137	1091.409437231789	3
0	6142	1091.494461571987	2
0	6147	1091.519463206316	1
0	6152	1091.837192363732	0
0	6164	1094.070907123296	1
0	6165	1094.158809305594	0
0	6193	1099.499082425925	1
0	6195	1100.508365147509	0
0	6218	1103.076557730586	1
0	6220	1103.264924103706	2
0	6222	1104.792939228173	3
0	6226	1106.683591229302	2
0	6232	1106.828803164555	3
0	6236	1107.100138760138	2
0	6241	1107.160383066941	1
0	6249	1110.144574731173	0
0	6264	1113.374651279358	1
0	6271	1115.707656105999	2
0	6276	1117.227283260822	3
0	6278	1117.508947302468	4
0	6279	1117.779927207282	3
0	6284	1117.824375832491	2
0	6291	1118.368835176195	1
0	6296	1118.587801316395	0
0	6332	1124.783836009603	1
0	6336	1125.512766049534	2
0	6338	1126.156817934229	3
0	6340	1126.618128548501	4
0	6341	1126.679319277032	3
0	6349	1127.175270020149	4
0	6350	1127.303601551591	3
0	6358	1127.917959345817	4
0	6360	1127.997037233843	5
0	6363	1128.671123036387	6
0	6364	1128.865778700217	5
0	6370	1129.948853711258	4
0	6375	1130.753136650554	3
0	6382	1131.225091383853	4
0	6383	1132.037811813986	3
0	6392	1133.934688024871	4
0	6393	1134.579271834494	3
0	6399	1134.703580424262	4
0	6400	1134.985230021281	3
0	6407	1136.314046804198	2
0	6412	1136.759555523714	1
0	6417	1137.213853384344	0
0	6423	1137.683273100903	1
0	6426	1138.651461846534	2
0	6428	1139.347707358963	1
0	6434	1139.626293462242	2
0	6436	1139.717717808207	3
0	6437	1140.265911058682	2
0	6443	1142.03586824861	3
0	6445	1142.161373578757	4
0	6446	1142.811585696435	3
0	6451	1143.672336641094	2
0	6459	1146.095468459096	3
0	6461	1146.238359945004	4
0	6463	1148.02680779658	5
0	6465	1149.417319787657	6
0	6469	1149.943671289163	7
0	6471	1149.96992411706	8
0	6472	1150.190800266551	7
0	6476	1150.23935644161	8
0	6478	1150.974825116675	9
0	6480	1151.593133857297	10
0	6482	1151.826297269965	11
0	6484	1153.090292718368	12
0	6488	1154.640170157818	13
0	6492	1155.593851746108	14
0	6493	1156.352740102551	13
0	6500	1158.176092091816	12
0	6509	1160.392246092806	13
0	6510	1160.637722443114	12
0	6516	1160.706693466693	13
0	6517	1160.830296551812	12
0	6523	1161.780541476278	11
0	6528	1162.606481426523	10
0	6532	1163.944364300438	11
0	6534	1164.673545478155	12
0	6538	1165.283772858821	13
0	6539	1165.308310580175	12
0	6543	1165.711489237751	13
0	6545	1166.690557942374	14
0	6548	1167.062195029237	13
0	6553	1168.333288714454	12
0	6558	1170.224961286339	11
0	6567	1171.730667258643	10
0	6572	1171.946284739394	9
0	6577	1172.390893218944	8
0	6583	1173.564800821722	9
0	6585	1173.832501709953	10
0	6587	1174.218546590042	11
0	6592	1175.447043016288	12
0	6593	1175.661805647792	11
0	6598	1176.047888326185	10
0	6605	1177.303082544838	9
0	6611	1178.439724824564	10
0	6613	1178.558414218013	11
0	6614	1178.631910565937	10
0	6618	1179.297234109381	11
0	6622	1180.433215544336	10
0	6630	1181.109937224791	9
0	6635	1181.41386630712	8
0	6640	1182.431997831182	7
0	6645	1184.599424415281	6
0	6649	1185.304755168918	7
0	6653	1186.335213425606	8
0	6656	1186.856991398662	7
0	6660	1189.486924385046	8
0	6664	1190.279299657205	9
0	6668	1190.548469289669	10
0	6669	1190.593694845723	9
0	6673	1190.865514641086	10
0	6675	1190.881241349698	11
0	6677	1191.139404643584	12
0	6680	1191.215709165875	11
0	6686	1194.63710446732	12
0	6688	1194.833991281998	13
0	6689	1195.120824870526	12
0	6693	1196.510137808552	13
0	6696	1197.529614030544	12
0	6703	1199.253757435881	11
0	6708	1199.89186462608	10
0	6717	1201.164745435139	9
0	6722	1201.698340444642	8
0	6732	1203.753762012344	9
0	6733	1204.767664723182	8
0	6740	1205.404019257621	9
0	6742	1205.441802089922	10
0	6743	1205.507545906479	9
0	6749	1205.601029470089	10
0	6750	1205.93534085786	9
0	6754	1206.626841248084	10
0	6756	1206.759490249168	11
0	6759	1208.872948809141	10
0	6764	1210.175042624792	9
0	6769	1212.836523011128	8
0	6773	1212.940329931333	9
0	6775	1214.475427540493	10
0	6781	1217.121196467758	11
0	6783	1217.131917515301	12
0	6784	1217.477123695552	11
0	6796	1222.255068801883	10
0	6803	1222.518614123704	11
0	6804	1222.824871834624	10
0	6809	1222.990075846649	9
0	6814	1223.503195159988	8
0	6820	1223.968517984588	9
0	6821	1225.348121965385	8
0	6826	1226.392491072835	7
0	6832	1227.374143159868	8
0	6837	1231.080196172039	7
0	6841	1231.756308584484	8
0	6846	1233.865727950197	7
0	6851	1234.734021205366	6
0	6857	1235.802687618444	7
0	6858	1236.46723314775	6
0	6864	1239.261481605604	7
0	6866	1239.902793739278	8
0	6869	1240.787320966814	7
0	6873	1241.423521113468	8
0	6876	1242.358461839158	7
0	6880	1242.502290101062	8
0	6892	1245.79125367383	7
0	6899	1246.379809677002	8
0	6901	1246.663722318604	7
0	6906	1246.96150687424	6
0	6911	1247.912459118977	5
0	6916	1248.359519098987	4
0	6922	1249.006462639101	3
0	6930	1252.237212707426	2
0	6935	1252.782966436452	1
0	6939	1253.950062876079	2
0	6943	1255.147433350871	1
0	6948	1255.171110024856	0
0	6975	1260.550135204752	1
0	6977	1260.999421997008	2
0	6979	1261.211385127916	3
0	6982	1261.838060961872	4
0	6983	1263.164954205513	3
0	6988	1263.390056882257	2
0	6995	1263.67396865236	3
0	6998	1263.810091954191	4
0	6999	1264.831976969279	3
0	7004	1264.942727572797	2
0	7009	1265.169510262777	1
0	7015	1265.171786984431	2
0	7022	1267.436443611717	3
0	7026	1268.583738852168	4
0	7028	1268.639191656137	5
0	7035	1269.666498608844	6
0	7036	1270.133377933993	5
0	7041	1270.411924251136	4
0	7046	1271.276442297782	3
0	7052	1271.669426559336	4
0	7053	1271.901565447623	3
0	7059	1272.006216544861	4
0	7060	1272.262140480187	3
0	7066	1272.54095171136	4
0	7068	1273.773024642281	5
0	7069	1273.91395626202	4
0	7073	1274.026559992993	5
0	7079	1276.389641207093	6
0	7088	1278.507252649346	7
0	7089	1278.534064036243	6
0	7095	1280.011279737232	7
0	7097	1280.020412456587	8
0	7098	1280.030775871987	7
0	7102	1280.328294860583	8
0	7108	1281.090452772318	9
0	7110	1282.161351534909	10
0	7111	1282.375117021165	9
0	7116	1283.812350289923	8
0	7122	1285.381659278229	7
0	7128	1286.795924165404	6
0	7134	1287.252553530025	7
0	7135	1287.454873888016	6
0	7140	1287.587977045054	5
0	7144	1287.633848981714	6
0	7147	1287.924070866376	5
0	7151	1287.949829214585	6
0	7153	1288.368359758692	7
0	7156	1289.398745809492	6
0	7164	1290.551648352927	7
0	7167	1290.775585485738	6
0	7174	1292.715319753198	5
0	7182	1295.495622205041	6
0	7185	1297.380965056077	5
0	7190	1297.719025491418	4
0	7197	1297.84438369228	5
0	7198	1298.070337603942	4
0	7204	1298.593279462461	5
0	7205	1298.652504206491	4
0	7209	1299.07410393993	5
0	7211	1299.413944738366	6
0	7214	1301.359584242247	5
0	7218	1302.790582637114	6
0	7220	1303.264354315934	7
0	7222	1304.166107622157	8
0	7226	1306.16981800453	9
0	7227	1306.929501994373	8
0	7231	1307.408420248721	9
0	7237	1309.830957168367	10
0	7238	1309.916463151791	9
0	7243	1310.678265633688	8
0	7247	1311.133896230707	9
0	7252	1311.43592263705	8
0	7257	1312.951921292743	7
0	7261	1313.454196658353	8
0	7266	1314.483681683487	7
0	7271	1316.693226470531	6
0	7277	1318.201032529232	5
0	7282	1319.521973052042	4
0	7286	1320.248267231912	5
0	7288	1320.563741822746	6
0	7290	1321.059409845812	7
0	7293	1321.703564296754	6
0	7298	1322.983073139242	5
0	7303	1324.823743951349	4
0	7310	1325.467746009521	3
0	7315	1325.525962352261	2
0	7321	1326.205358837468	3
0	7322	1327.948766693389	2
0	7328	1329.631403330525	3
0	7331	1329.736845106857	2
0	7335	1329.830785207345	3
0	7337	1329.924877182892	4
0	7339	1330.046918955279	5
0	7343	1332.407308237873	4
0	7349	1333.058195527832	5
0	7351	1333.958130298187	4
0	7356	1335.57548131833	3
0	7362	1336.400783826791	4
0	7363	1337.041280736608	3
0	7371	1338.021267352218	2
0	7377	1338.35672817475	1
0	7382	1338.630759940648	0
0	7395	1339.236027517239	1
0	7396	1339.333086005614	0
0	7403	1340.346866929514	1
0	7404	1341.117523906742	0
0	7410	1342.063970862907	1
0	7413	1342.612495075916	0
0	7419	1344.731198139912	1
0	7423	1344.9786026817	2
0	7428	1345.899171611961	1
0	7436	1346.131125180483	2
0	7439	1346.723000897341	1
0	7444	1347.751360114675	0
0	7448	1348.148637656346	1
0	7452	1348.446628316722	2
0	7457	1349.755184845462	1
0	7462	1350.110531244745	0
0	7536	1370.102299718914	1
0	7538	1370.348633924327	0
0	7545	1370.386561246466	1
0	7546	1370.518929661678	0
0	7583	1373.556214994809	1
0	7588	1375.295092032897	0
0	7634	1379.091436114618	1
0	7638	1381.079398145757	2
0	7640	1382.006839525488	3
0	7646	1383.979043296125	4
0	7648	1384.027448098667	5
0	7649	1384.160833749605	4
0	7654	1384.463832056527	3
0	7659	1384.59664502144	2
0	7666	1385.231261530225	1
0	7673	1385.956130677803	2
0	7675	1386.234042893092	3
0	7677	1387.046736571939	2
0	7689	1390.17184872028	3
0	7690	1390.25457490343	2
0	7698	1390.619358303424	3
0	7699	1390.730538239853	2
0	7704	1390.950764345585	1
0	7709	1391.190023330372	0
0	7716	1392.26067403133	1
0	7717	1392.406433507471	0
0	7733	1393.318512950345	1
0	7734	1393.647851445107	0
0	7751	1394.289496984304	1
0	7757	1395.789770510399	2
0	7759	1395.915535650774	3
0	7760	1395.983539645103	2
0	7766	1396.266446041111	3
0	7770	1396.871496279126	4
0	7771	1397.009108118315	3
0	7776	1397.911845800416	2
0	7780	1397.96638020779	3
0	7782	1398.402957273406	4
0	7784	1398.598581778467	5
0	7790	1400.512039658953	4
0	7799	1401.756480548872	5
0	7801	1402.273402562784	4
0	7807	1402.5606591277	5
0	7809	1402.612555645849	6
0	7811	1402.702267669486	5
0	7817	1404.112143305624	4
0	7823	1404.34447427312	5
0	7824	1404.84570457243	4
0	7831	1406.378325656669	3
0	7837	1406.873121194142	4
0	7838	1407.59951444046	3
0	7843	1407.868616129086	2
0	7848	1407.97048385837	1
0	7855	1410.511337167456	0
0	7874	1411.452436892791	1
0	7878	1414.723838714035	0
0	7886	1416.272890279331	1
0	7892	1417.660711224598	0
0	7898	1417.674034232994	1
0	7899	1418.173928297947	0
0	7905	1418.603197768093	1
0	7907	1419.193634549177	0
0	7918	1419.806417755242	1
0	7919	1420.301912007312	0
0	7935	1420.714543396234	1
0	7937	1421.098707320418	2
0	7938	1421.832922316436	1
0	7947	1423.799465111719	2
0	7949	1423.887262774422	3
0	7950	1424.170555248042	2
0	7956	1424.511979513076	1
0	7964	1426.694807035417	2
0	7965	1426.869973558969	1
0	7972	1427.714447501209	2
0	7974	1427.859276316528	3
0	7975	1428.006051525442	2
0	7980	1429.233519816107	1
0	7986	1429.651759844018	0
0	7992	1429.869230080194	1
0	7995	1430.707482092559	0
0	8007	1433.076747449053	1
0	8008	1433.222885672281	0
0	8014	1434.111292822941	1
0	8018	1436.598063755483	2
0	8020	1436.756507764234	3
0	8025	1437.456803301168	2
0	8029	1437.920442314033	3
0	8033	1441.498852276288	4
0	8035	1442.765020109003	5
0	8041	1446.993888284572	4
0	8046	1447.190684892434	3
0	8051	1449.058974847269	2
0	8056	1451.402958016494	1
0	8060	1452.337248803913	2
0	8063	1452.857990268021	1
0	8068	1453.926250335563	0
0	8105	1458.922885832556	1
0	8106	1459.65508670772	0
0	8122	1461.826603167937	1
0	8124	1461.918451008113	2
0	8126	1462.069637646921	3
0	8134	1466.485669200153	2
0	8139	1467.459573668215	1
0	8144	1467.814281420386	0
0	8150	1467.979981244528	1
0	8151	1469.302602444117	0
0	8157	1473.925823002177	1
0	8161	1475.473766545695	2
0	8163	1475.760866164435	1
0	8168	1476.086202190644	0
0	8172	1477.862085387372	1
0	8179	1483.20592115966	0
0	8185	1483.79020125074	1
0	8187	1484.919933255976	0
0	8193	1485.070181665663	1
0	8195	1485.169407112418	2
0	8197	1485.23588178649	3
0	8199	1485.420273463024	4
0	8200	1485.449702002495	3
0	8204	1486.265728587389	4
0	8210	1487.756039233834	5
0	8213	1488.365195921205	4
0	8217	1489.947089464723	5
0	8220	1490.773915884062	4
0	8224	1494.888728021749	5
0	8228	1496.361067202216	6
0	8231	1497.373899429749	5
0	8236	1498.091394864263	4
0	8242	1499.991191698835	5
0	8244	1500.381004600423	4
0	8251	1500.69731891517	5
0	8254	1501.288771593353	4
0	8259	1501.523451937122	3
0	8267	1501.967114716447	4
0	8270	1502.868131501439	3
0	8276	1502.968934259273	4
0	8277	1503.015251776213	3
0	8282	1503.245881508824	2
0	8286	1504.03180023663	3
0	8292	1504.985141857803	2
0	8299	1506.041326661446	1
0	8304	1506.212040352848	0
0	8310	1507.430393057131	1
0	8311	1508.18435794597	0
0	8323	1509.090349176341	1
0	8325	1509.197228125676	2
0	8329	1509.340366947113	3
0	8331	1512.125642395485	2
0	8337	1512.189003383994	3
0	8338	1512.347849862881	2
0	8343	1512.380514692027	1
0	8347	1513.425610158536	2
0	8351	1515.426377080562	1
0	8360	1516.587233793203	0
0	8371	1516.873500762805	1
0	8373	1517.059851737244	2
0	8375	1517.32132002708	3
0	8379	1518.657205889696	4
0	8380	1519.242105991245	3
0	8389	1520.304315750949	2
0	8394	1520.542275723181	1
0	8402	1522.273465295821	2
0	8403	1522.305982069414	1
0	8407	1523.091076309838	2
0	8409	1523.432204663316	3
0	8411	1523.518307102331	4
0	8414	1525.249043620689	3
0	8420	1525.999357491971	4
0	8423	1528.212317239188	3
0	8428	1528.561004424209	2
0	8434	1529.17143937943	1
0	8439	1529.83532326685	0
0	8443	1532.381111918273	1
0	8445	1532.803058884566	2
0	8449	1533.973547408576	3
0	8451	1534.67897422323	4
0	8454	1534.793484392828	3
0	8459	1535.969850429759	2
0	8464	1536.271515024577	1
0	8470	1537.281162719011	2
0	8472	1537.549037811754	3
0	8475	1538.704763088639	2
0	8479	1539.786093835527	3
0	8483	1540.636250704593	4
0	8484	1542.309305743565	3
0	8488	1542.72069419612	4
0	8493	1546.045240287192	3
0	8501	1548.021509064128	2
0	8506	1548.476717134899	1
0	8511	1549.732301219457	0
0	8527	1550.194716964757	1
0	8529	1551.837178588925	0
0	8540	1551.899469737036	1
0	8542	1552.020306230306	2
0	8544	1552.266083175208	3
0	8547	1554.719142484881	2
0	8551	1554.803364305134	3
0	8554	1556.116081567857	2
0	8560	1556.80941204637	1
0	8565	1556.825529280038	0
0	8623	1567.869415343793	1
0	8629	1568.998185090162	0
0	8647	1571.834187217532	1
0	8648	1571.924139425463	0
0	8664	1572.789265337903	1
0	8666	1572.954658921966	2
0	8667	1573.038882759021	1
0	8676	1574.133080662211	0
0	8684	1575.055945695903	1
0	8685	1575.296898282786	0
0	8692	1575.698209538983	1
0	8695	1577.247753807466	0
0	8699	1577.333222434589	1
0	8705	1578.606169999621	2
0	8706	1578.886377060817	1
0	8710	1579.755340480686	2
0	8712	1579.856929511139	3
0	8715	1580.765228779875	2
0	8720	1582.798071971886	1
0	8726	1583.118942971154	2
0	8728	1583.627889551422	3
0	8729	1584.377656864166	2
0	8736	1586.121497477061	1
0	8741	1587.059965835601	0
0	8745	1587.111740148451	1
0	8749	1588.277402991434	0
0	8756	1589.681790054794	1
0	8757	1589.845299619516	0
0	8784	1591.862060988081	1
0	8786	1591.992809020751	0
0	8790	1592.405195897022	1
0	8794	1592.924774131662	2
0	8796	1593.338548141331	3
0	8798	1594.489497616453	2
0	8804	1594.554077882023	3
0	8806	1595.650514424273	2
0	8811	1596.243631053271	1
0	8818	1598.298320524199	0
0	8834	1599.47321597848	1
0	8835	1599.644908065215	0
0	8841	1602.015044393785	1
0	8844	1602.644279060002	2
0	8847	1602.686673335329	1
0	8852	1602.794017013957	0
0	8856	1603.678220574114	1
0	8859	1606.035901337191	0
0	8872	1607.783062357985	1
0	8873	1607.983461712891	0
0	8891	1608.671390652068	1
0	8894	1608.750791943207	0
0	8901	1608.972384971142	1
0	8906	1610.091394205642	2
0	8907	1610.181540518549	1
0	8912	1610.675463841565	0
0	8928	1611.696716993454	1
0	8929	1612.008074675756	0
0	8943	1614.542463619676	1
0	8944	1615.335928977575	0
0	8950	1615.818964407846	1
0	8953	1616.32290258676	0
0	8972	1618.053518213506	1
0	8973	1619.164598601034	0
0	9025	1625.934842575359	1
0	9026	1626.060477665636	0
0	9032	1626.063297199115	1
0	9034	1626.808511315832	0
0	9048	1628.756320328515	1
0	9052	1630.280964118002	2
0	9054	1631.388035670051	3
0	9056	1631.592631481111	2
0	9061	1631.70688752416	1
0	9066	1632.230863992668	0
0	9085	1634.788106985673	1
0	9086	1635.524627877915	0
0	9098	1636.874579807226	1
0	9103	1637.67427521214	2
0	9105	1637.92411955245	3
0	9106	1638.282703746672	2
0	9111	1638.97755745018	1
0	9117	1639.225452008959	2
0	9118	1639.502726646758	1
0	9122	1639.555632524414	2
0	9127	1639.928627423979	1
0	9131	1640.805705900145	2
0	9133	1641.503760573606	3
0	9135	1641.54709530925	4
0	9138	1641.805151989344	3
0	9143	1642.169645872062	2
0	9148	1645.001073686937	1
0	9154	1647.685549521976	2
0	9159	1648.221682401436	1
0	9164	1649.884566692424	0
0	9172	1650.977404512248	1
0	9173	1651.712602868054	0
0	9204	1653.793693247299	1
0	9205	1653.960626218417	0
0	9211	1654.524807940294	1
0	9212	1655.362764347919	0
0	9227	1658.196473045085	1
0	9233	1660.085517156167	0
0	9240	1661.673005137542	1
0	9241	1661.78632755622	0
0	9245	1662.249511663438	1
0	9247	1662.371418424862	2
0	9249	1662.906312884922	3
0	9252	1663.935171799658	2
0	9256	1664.63851002316	3
0	9259	1665.435296331808	2
0	9270	1666.519751258839	1
0	9277	1668.392381957146	0
0	9281	1669.086839237796	1
0	9283	1669.93960241273	2
0	9286	1670.179902855959	1
0	9292	1670.992219766305	2
0	9295	1671.782383503458	1
0	9299	1673.095646809095	2
0	9303	1674.203571300413	3
0	9305	1674.369747033334	4
0	9309	1676.851005263066	3
0	9316	1677.720844909737	2
0	9321	1679.276493097875	1
0	9326	1679.549859398297	0
0	9356	1683.273492042784	1
0	9360	1683.986894707545	2
0	9361	1684.077004188241	1
0	9366	1684.315031297387	0
0	9382	1687.259563326407	1
0	9383	1687.858758271848	0
0	9432	1695.271383290011	1
0	9433	1695.745134642852	0
0	9455	1698.065773116905	1
0	9457	1698.209345076028	2
0	9458	1698.51430152907	1
0	9464	1698.906417077793	2
0	9468	1699.698413461168	1
0	9475	1700.240127535862	0
0	9503	1706.29239346403	1
0	9507	1708.562756042052	2
0	9509	1708.911471973614	3
0	9510	1709.094159722671	2
0	9518	1709.652286609383	3
0	9522	1709.802462827426	2
0	9527	1710.559918121958	1
0	9535	1712.386239639659	0
0	9548	1714.201418661491	1
0	9549	1714.363094465349	0
0	9555	1714.454301180505	1
0	9558	1714.862878805553	2
0	9559	1715.022632808106	1
0	9567	1716.070525995837	0
0	9574	1717.263844877726	1
0	9575	1717.742781431177	0
0	9597	1720.501688890674	1
0	9598	1720.826257070712	0
0	9616	1723.982412138355	1
0	9619	1725.422272136365	0
0	9640	1729.186614826472	1
0	9644	1730.272679302006	2
0	9646	1730.622359491814	3
0	9647	1730.716098980165	2
0	9653	1731.244341484284	3
0	9654	1731.27491539799	2
0	9660	1732.205157949697	1
0	9667	1732.56917004149	0
0	9710	1743.234308890651	1
0	9711	1743.323514461857	0
0	9724	1744.859086614618	1
0	9726	1744.958361971934	2
0	9727	1745.263531813475	1
0	9735	1747.212175215731	2
0	9736	1747.240080439867	1
0	9742	1748.190869427009	2
0	9744	1748.851695116833	1
0	9751	1749.768713267473	0
0	9764	1752.135044190346	1
0	9765	1752.220171087658	0
0	9778	1754.214637434808	1
0	9780	1754.222252053724	2
0	9781	1754.615114261874	1
0	9786	1754.824543422388	0
0	9825	1761.583228422744	1
0	9828	1762.256108783817	0
0	9843	1763.93531562143	1
0	9845	1764.167602260916	2
0	9853	1767.43690986884	3
0	9854	1767.804163479048	2
0	9861	1768.856865596288	1
0	9866	1769.263563966248	0
0	9890	1771.088498490982	1
0	9893	1772.106693692277	2
0	9895	1772.506343012779	1
0	9900	1772.521367833959	0
0	9907	1772.818008151183	1
0	9912	1773.449775827499	0
0	9924	1773.892447556558	1
0	9926	1774.159714747755	2
0	9929	1774.757025208116	1
0	9936	1774.976698303272	0
0	9965	1779.399354027862	1
0	9967	1779.752377181433	0
0	9983	1782.769398342148	1
0	9987	1783.286159037001	2
0	9988	1783.533109996927	1
0	9999	1785.804322559895	2
0	10003	1787.509269204554	3
0	10005	1787.524646697039	4
0	10006	1787.546746457801	3
0	10014	1788.020095800318	4
0	10019	1789.287208960883	3
0	10025	1789.630056647027	4
0	10026	1789.86561462136	3
0	10033	1790.805950001052	4
0	10034	1790.827489491159	3
0	10041	1791.758431019746	2
0	10048	1792.86394243459	3
0	10050	1792.911191204475	4
0	10052	1793.111687291597	3
0	10058	1793.189731721666	4
0	10061	1793.396233046312	3
0	10067	1793.499475702881	4
0	10068	1794.155507586105	3
0	10074	1794.693433070391	2
0	10081	1796.314973916148	1
0	10087	1797.501639488065	2
0	10088	1797.659630670775	1
0	10094	1799.101159767172	2
0	10096	1800.912050192482	1
0	10101	1801.379776032261	0
0	10116	1804.394419826414	1
0	10120	1805.281388548693	2
0	10122	1807.154189058142	1
0	10127	1807.573265459521	0
0	10141	1810.034279365838	1
0	10142	1810.1030206193	0
0	10155	1811.998574837632	1
0	10157	1813.16185412748	2
0	10158	1814.426578996362	1
0	10167	1818.86825659557	0
0	10173	1821.02820438023	1
0	10179	1822.460723233537	0
0	10195	1823.119776148532	1
0	10197	1823.543176291176	0
0	10204	1824.266970321719	1
0	10205	1824.358394975992	0
0	10211	1824.811470757116	1
0	10213	1824.839814852884	2
0	10215	1825.174382372136	3
0	10216	1825.645284874358	2
0	10221	1826.034162052866	1
0	10228	1828.405491298074	2
0	10229	1828.713739112437	1
0	10234	1829.238195132504	0
0	10245	1829.484025720295	1
0	10246	1829.963128113248	0
0	10268	1832.691822685015	1
0	10272	1833.249466095269	0
0	10279	1833.356005695961	1
0	10281	1833.784914021567	0
0	10295	1834.674862432015	1
0	10296	1834.830084576798	0
0	10307	1836.468117786664	1
0	10309	1836.774267199118	2
0	10312	1837.173822463874	3
0	10314	1837.329444371615	4
0	10316	1837.3913292721	5
0	10318	1838.217716937097	4
0	10324	1838.842373829217	3
0	10331	1840.143977249087	2
0	10336	1840.240686515062	1
0	10342	1840.283771654648	2
0	10343	1840.315493962926	1
0	10349	1840.395021676751	0
0	10355	1840.486992763345	1
0	10358	1840.81144333088	2
0	10361	1841.040930619923	3
0	10363	1842.246666563015	2
0	10368	1842.59064093447	1
0	10375	1843.272637122467	0
0	10436	1850.471997145962	1
0	10438	1850.740109336566	2
0	10442	1851.554525522403	3
0	10443	1851.831992660835	2
0	10452	1855.001961594755	3
0	10454	1858.778417502731	4
0	10455	1860.143345394979	3
0	10460	1860.288799016449	2
0	10469	1863.07218823141	3
0	10471	1863.074483200948	4
0	10472	1863.322920214151	3
0	10479	1863.921108769969	4
0	10480	1864.453686382607	3
0	10493	1865.755051076443	4
0	10494	1866.13805038453	3
0	10499	1866.259213365805	2
0	10505	1866.305316030538	3
0	10506	1866.491440093489	2
0	10511	1866.655438458858	1
0	10518	1867.796724418202	0
0	10522	1868.782901424493	1
0	10530	1871.017106955491	2
0	10531	1871.251495011875	1
0	10535	1872.116865111088	2
0	10537	1872.3292966191	3
0	10540	1872.86778454285	2
0	10544	1875.312755391061	3
0	10547	1876.113932348236	2
0	10551	1876.39109213145	3
0	10553	1876.438438721672	4
0	10557	1876.728904061841	5
0	10558	1877.701987212885	4
0	10566	1879.944642016722	3
0	10571	1880.272183764658	2
0	10581	1883.237123430447	3
0	10582	1883.370138334867	2
0	10587	1883.434048466635	1
0	10593	1883.56811450803	2
0	10597	1884.042045021654	1
0	10603	1885.054304974653	0
0	10609	1885.929960227148	1
0	10612	1886.373162592268	0
0	10673	1893.867433500747	1
0	10675	1894.120172263895	2
0	10677	1894.583996277937	3
0	10678	1895.169260646277	2
0	10683	1895.210482583113	1
0	10690	1895.451024266433	2
0	10693	1896.132297147567	1
0	10701	1896.935686024532	2
0	10702	1897.145686801767	1
0	10710	1899.028611084519	0
0	10729	1900.501044556191	1
0	10732	1901.16831122402	0
0	10745	1902.229377516869	1
0	10747	1902.333570905031	2
0	10749	1904.035180298783	3
0	10752	1904.828708076875	4
0	10753	1904.850396507642	3
0	10759	1905.303776850165	4
0	10760	1905.354808201674	3
0	10765	1905.485517980082	2
0	10772	1906.803409588485	3
0	10773	1907.598281545315	2
0	10782	1908.946296348101	1
0	10790	1910.214728867641	0
0	10798	1910.855995880999	1
0	10800	1911.175218575662	2
0	10802	1911.436506848184	3
0	10803	1912.001303597934	2
0	10808	1912.103264783475	1
0	10813	1912.293407347077	0
0	10819	1912.314916411138	1
0	10820	1912.315589066723	0
0	10826	1912.984932405759	1
0	10831	1914.338412466705	0
0	10837	1914.834839977946	1
0	10839	1915.378192022884	2
0	10841	1915.421215453524	3
0	10842	1916.276376238784	2
0	10848	1916.823267816571	3
0	10850	1917.197572566663	4
0	10852	1917.616300604345	5
0	10854	1917.62716795995	6
0	10857	1918.235352822183	5
0	10862	1918.954798732032	4
0	10866	1918.963538239099	5
0	10869	1919.978960524971	4
0	10875	1920.261376568782	5
0	10878	1920.943209980674	4
0	10884	1922.505448024943	5
0	10886	1922.966378564762	6
0	10887	1923.041416679333	5
0	10895	1923.56396654007	6
0	10896	1923.783456817057	5
0	10901	1925.188504837109	4
0	10905	1925.228939869154	5
0	10908	1926.790043978397	4
0	10917	1927.313472755003	3
0	10923	1930.275341525313	2
0	10930	1930.832804522857	1
0	10935	1931.932259904522	0
0	10943	1933.184991176129	1
0	10950	1934.215869986769	2
0	10954	1934.359141945019	3
0	10958	1936.12737741587	2
0	10964	1936.585682419235	1
0	10969	1936.640806041929	0
0	10990	1938.479981869186	1
0	10992	1938.967044389198	2
0	10994	1939.172742220226	3
0	10995	1939.514424206225	2
0	10999	1940.021757442605	3
0	11004	1940.604755863439	2
0	11008	1941.779503002198	3
0	11011	1942.442699220136	2
0	11017	1943.973601107548	1
0	11021	1944.813883394029	2
0	11027	1947.04013977518	1
0	11032	1947.071480847648	0
0	11036	1947.503530331806	1
0	11040	1948.045092032935	2
0	11042	1949.576055778696	3
0	11044	1949.857710848999	4
0	11045	1950.060656768017	3
0	11052	1950.982012530974	2
0	11057	1951.215278052621	1
0	11062	1951.271805306759	0
0	11077	1954.513567169205	1
0	11078	1955.463538704342	0
0	11089	1956.353598801701	1
0	11092	1957.018363934159	0
0	11103	1957.352846293406	1
0	11106	1957.833999749338	0
0	11113	1958.469315926622	1
0	11118	1958.985484197809	0
0	11146	1960.812360089695	1
0	11148	1961.754853222097	0
0	11156	1963.846313246386	1
0	11158	1963.906190603837	2
0	11160	1965.323942189787	3
0	11161	1965.3683990284	2
0	11172	1966.653611899255	1
0	11178	1966.6967663049	2
0	11182	1967.729694030077	1
0	11188	1968.290265994009	2
0	11189	1969.398599570909	1
0	11193	1969.803900922429	2
0	11195	1969.841351223407	3
0	11197	1971.365401826665	4
0	11202	1974.295649319268	3
0	11210	1978.073764424802	4
0	11211	1978.213687309317	3
0	11216	1980.331422260981	2
0	11223	1981.508559558192	1
0	11230	1982.374104428755	0
0	11236	1982.93411197218	1
0	11238	1983.965333548841	2
0	11240	1985.014387869281	3
0	11242	1985.259449401274	4
0	11243	1985.49604732144	3
0	11248	1985.531560093722	2
0	11254	1985.858274775037	3
0	11255	1986.838347262576	2
0	11259	1987.23341563534	3
0	11261	1987.388836145025	4
0	11265	1988.437249966933	5
0	11266	1988.602747943784	4
0	11272	1989.769865805013	3
0	11277	1989.906820101312	2
0	11283	1991.337261607941	3
0	11284	1991.646759591541	2
0	11288	1991.776562712357	3
0	11292	1992.990223483805	4
0	11293	1993.584399266299	3
0	11297	1993.944236941651	4
0	11300	1996.473009431461	3
0	11306	1997.444241017489	2
0	11313	1997.663465710557	3
0	11315	1999.07543058824	2
0	11323	2000.068676907399	3
0	11325	2000.37614436077	4
0	11326	2000.931801163785	3
0	11340	2004.727980365525	4
0	11341	2005.89879051197	3
0	11347	2006.82686781065	2
0	11353	2008.525137694774	1
0	11359	2008.926958414167	2
0	11361	2009.096756449959	1
0	11367	2009.570066113622	0
0	11416	2018.745559250503	1
0	11417	2019.287692902766	0
0	11425	2019.99468294122	1
0	11426	2020.329695997803	0
0	11439	2021.148424462351	1
0	11441	2021.816376044852	2
0	11442	2023.56797951719	1
0	11448	2024.081624608574	0
0	11487	2030.776254916547	1
0	11490	2031.404593626063	0
0	11496	2032.143201536972	1
0	11500	2033.349449826789	0
0	11512	2034.405109496471	1
0	11513	2035.116673143119	0
0	11526	2037.192566550334	1
0	11528	2037.241090170891	2
0	11530	2039.058655408299	3
0	11532	2039.074957986194	4
0	11534	2039.825593726016	5
0	11538	2041.394901333252	6
0	11539	2041.421782174675	5
0	11544	2041.434901372229	4
0	11551	2042.852811741	3
0	11562	2044.689934347206	4
0	11563	2046.674391481642	3
0	11569	2046.785682499704	4
0	11570	2047.76703574086	3
0	11576	2047.91308639127	4
0	11578	2048.44249638377	3
0	11588	2053.287425257885	2
0	11594	2053.333316249665	3
0	11598	2055.743210498973	4
0	11600	2055.9857116927	5
0	11601	2056.1582215575	4
0	11606	2058.018988038107	3
0	11612	2058.280383167458	2
0	11617	2059.219778286722	1
0	11625	2059.593922422912	2
0	11626	2059.720972471782	1
0	11631	2059.828874922416	0
0	11654	2061.046942954198	1
0	11657	2061.898723373348	0
0	11673	2062.84544055298	1
0	11674	2063.062097349426	0
0	11689	2066.720144452689	1
0	11694	2067.178220118865	2
0	11699	2067.989226547518	1
0	11706	2068.220609964607	0
0	11725	2069.058667659206	1
0	11726	2069.306338890537	0
0	11749	2071.517904478509	1
0	11753	2071.957940148327	2
0	11754	2072.04312983587	1
0	11759	2073.091847567271	0
0	11770	2074.497847965902	1
0	11771	2074.534692966161	0
0	11784	2076.230629981508	1
0	11786	2076.904763948882	0
0	11792	2076.985253695321	1
0	11794	2077.823749861819	0
0	11820	2081.598650692207	1
0	11823	2082.503365909584	0
0	11834	2084.046543688739	1
0	11836	2085.451490692646	2
0	11838	2085.987495504635	3
0	11842	2086.90440995973	4
0	11843	2087.056599231175	3
0	11848	2087.143939830037	2
0	11853	2087.857321361526	1
0	11858	2088.424682564905	0
0	11867	2089.433097087947	1
0	11874	2090.982615630141	2
0	11876	2091.38963459654	1
0	11881	2091.503906431759	0
0	11892	2093.682671433842	1
0	11894	2093.81703303075	0
0	11907	2094.416266811352	1
0	11912	2095.181211147836	2
0	11915	2095.642538791379	3
0	11916	2095.983720062445	2
0	11921	2096.370024265193	1
0	11935	2100.160689876415	0
0	11943	2100.957351705905	1
0	11945	2101.070777636934	0
0	11951	2101.699991804024	1
0	11953	2102.021118126378	0
0	11970	2103.092715580842	1
0	11971	2103.14641103419	0
0	11983	2104.571617411186	1
0	11984	2104.931391504276	0
0	11996	2105.827598085434	1
0	11998	2107.027109776789	0
0	12012	2108.310238285181	1
0	12014	2109.499858368956	0
0	12031	2111.130072317698	1
0	12032	2111.413267301258	0
0	12043	2111.790447470473	1
0	12044	2112.759663930792	0
0	12071	2119.053762521828	1
0	12075	2119.802310370789	2
0	12076	2120.205880282523	1
0	12081	2120.585881358202	0
0	12103	2124.906716992137	1
0	12105	2124.918687365426	2
0	12107	2125.072418207311	3
0	12108	2125.108242403245	2
0	12113	2125.355518523009	1
0	12119	2126.581827811791	0
0	12136	2128.639309260284	1
0	12137	2128.844074765312	0
0	12154	2131.10011551839	1
0	12158	2132.403246016454	0
0	12167	2134.51570575476	1
0	12169	2135.04798110923	2
0	12175	2136.416494790114	1
0	12180	2137.787279576033	0
0	12204	2140.903152078451	1
0	12206	2141.340666800346	0
0	12212	2141.393691122898	1
0	12214	2141.549038574445	0
0	12218	2141.634763336294	1
0	12224	2144.729939848121	0
0	12236	2149.067972922349	1
0	12244	2149.978868231863	2
0	12246	2149.989235270006	3
0	12248	2150.615433937648	4
0	12249	2150.904883783613	3
0	12254	2151.033605971679	2
0	12260	2153.696044440836	3
0	12263	2155.162834020926	2
0	12268	2156.377558581678	1
0	12275	2156.972923669846	0
0	12283	2159.285580939519	1
0	12284	2160.624815655944	0
0	12288	2161.716122187678	1
0	12291	2163.651599099259	0
0	12295	2164.797609465948	1
0	12299	2165.60784711649	2
0	12300	2165.918280099207	1
0	12305	2166.641671646295	0
0	12311	2167.608090965563	1
0	12313	2167.639653812419	2
0	12318	2170.261081819882	3
0	12319	2171.024108338123	2
0	12324	2171.030412525269	1
0	12328	2171.293928549502	2
0	12331	2172.045216539043	1
0	12335	2172.659033627463	2
0	12339	2174.736698579728	3
0	12340	2174.901508299063	2
0	12345	2175.539564694235	1
0	12349	2175.758360526322	2
0	12351	2176.249328102945	3
0	12353	2177.779217999826	4
0	12358	2179.904676095399	3
0	12365	2181.017227137048	4
0	12369	2181.641811035046	5
0	12370	2183.23801903869	4
0	12376	2183.410090771542	5
0	12377	2183.676085992617	4
0	12381	2184.326973524039	5
0	12383	2184.505323811162	6
0	12385	2186.239159169994	7
0	12389	2187.409401426786	6
0	12395	2187.61656322542	7
0	12396	2188.045069142329	6
0	12403	2189.230396868003	5
0	12407	2190.002398856979	6
0	12410	2190.016217017334	5
0	12417	2191.612276985845	4
0	12422	2194.119084048903	3
0	12427	2194.354950331499	2
0	12431	2194.587812717936	3
0	12439	2196.895152432925	4
0	12442	2198.192067136787	5
0	12443	2198.738001898386	4
0	12448	2199.697036545501	3
0	12453	2199.781038363885	2
0	12461	2202.223629790213	1
0	12466	2202.269004764946	0
0	12473	2203.196866399799	1
0	12474	2203.7432615764	0
0	12517	2207.776965616108	1
0	12519	2208.048608320642	2
0	12520	2208.781228820043	1
0	12525	2208.982262667735	0
0	12548	2211.072728891274	1
0	12549	2211.599439730522	0
0	12560	2213.373280401834	1
0	12562	2213.97150751588	2
0	12565	2214.697885488928	1
0	12572	2215.426029848975	2
0	12574	2215.913726698774	3
0	12575	2216.01794654884	2
0	12582	2217.212962685026	3
0	12583	2217.546130768121	2
0	12589	2218.237294709956	1
0	12593	2218.932575463236	2
0	12595	2219.150309838864	3
0	12599	2219.389807182068	4
0	12604	2221.267869408257	3
0	12610	2222.720051509441	2
0	12616	2222.875021978999	3
0	12617	2223.33572874061	2
0	12622	2224.921530760923	1
0	12630	2226.663895199081	2
0	12631	2226.970904690538	1
0	12636	2227.554021957979	0
0	12654	2229.268522595513	1
0	12656	2229.425209648707	2
0	12660	2230.635707911046	1
0	12665	2230.666147156577	0
0	12671	2233.654644957028	1
0	12676	2234.773824608662	0
0	12706	2237.205748546354	1
0	12707	2237.809440256921	0
0	12751	2243.536764129888	1
0	12754	2243.57642514983	0
0	12767	2246.238092333349	1
0	12768	2246.245986744388	0
0	12782	2248.158150948705	1
0	12784	2248.600805055849	0
0	12795	2249.082377873086	1
0	12797	2249.271213337846	2
0	12800	2250.228142283525	1
0	12806	2250.407446085684	0
0	12819	2253.223291573911	1
0	12820	2253.281284963224	0
0	12836	2254.348932692097	1
0	12837	2254.576325216111	0
0	12843	2254.683092796243	1
0	12844	2254.97300426649	0
0	12856	2257.877199223046	1
0	12858	2258.034480613193	2
0	12860	2259.60210971175	3
0	12865	2260.538173821863	2
0	12872	2261.881658202007	3
0	12874	2263.313199546257	2
0	12879	2263.686829999878	1
0	12885	2263.749748158725	2
0	12890	2265.006520382144	1
0	12896	2265.568481582799	0
0	12900	2265.786708509759	1
0	12902	2267.23111522223	2
0	12904	2268.23185937107	3
0	12908	2268.342420151376	4
0	12909	2268.619222623519	3
0	12914	2269.453035089839	2
0	12921	2272.115727825361	1
0	12926	2272.527040493616	0
0	12945	2274.683234980844	1
0	12953	2277.821751536724	0
0	12971	2278.645345185833	1
0	12973	2279.520032807462	0
0	12984	2279.599046861516	1
0	12986	2280.966034530429	0
0	13019	2285.301788114155	1
0	13020	2285.500065724093	0
0	13082	2295.021565574802	1
0	13086	2295.27877958076	2
0	13088	2295.907161837512	1
0	13095	2296.63981070882	0
0	13108	2298.644058282578	1
0	13109	2299.227313403115	0
0	13133	2301.444647491813	1
0	13135	2301.649221471186	2
0	13138	2301.735300552588	1
0	13143	2302.025297549976	0
0	13160	2303.544027634492	1
0	13164	2305.57214794123	0
0	13178	2306.861331776811	1
0	13179	2307.014593274659	0
0	13206	2309.707632231414	1
0	13208	2309.841385580371	2
0	13216	2311.899971245369	3
0	13217	2312.683167468969	2
0	13223	2313.02636335137	1
0	13229	2313.819110940771	0
0	13236	2315.990749424633	1
0	13237	2316.582880951894	0
0	13253	2317.031387542837	1
0	13254	2317.322044969866	0
0	13271	2319.543068602267	1
0	13273	2319.721967527196	2
0	13275	2320.090579698041	3
0	13276	2320.516298742449	2
0	13281	2320.716437307171	1
0	13289	2321.455330387273	2
0	13292	2322.752602551013	1
0	13298	2323.357005482407	0
0	13318	2328.098089755381	1
0	13322	2330.301192060684	0
0	13337	2330.941411877723	1
0	13340	2333.232257239204	0
0	13346	2333.700648008882	1
0	13347	2333.723507210552	0
0	13365	2335.965400625246	1
0	13366	2336.018320994816	0
0	13372	2336.120292073819	1
0	13375	2337.04767706094	2
0	13379	2337.263784997695	3
0	13381	2338.642068812871	2
0	13386	2339.087094742555	1
0	13392	2339.453604817215	0
0	13398	2339.615445952866	1
0	13399	2339.658076532174	0
0	13403	2340.413823432825	1
0	13406	2342.941914825179	0
0	13432	2347.253509223388	1
0	13435	2348.852251224289	0
0	13453	2351.359073167806	1
0	13455	2351.488280946725	0
0	13464	2352.478373256781	1
0	13466	2352.736278716407	2
0	13467	2353.175874319952	1
0	13472	2353.222868868482	0
0	13486	2354.601186243266	1
0	13487	2354.841305947942	0
0	13507	2357.427847200067	1
0	13508	2359.391216814331	0
0	13519	2359.575415865689	1
0	13520	2359.990889586861	0
0	13621	2391.215573378198	1
0	13622	2391.297824608705	0
0	13628	2391.508175734833	1
0	13629	2391.77809671714	0
0	13650	2392.731647425701	1
0	13651	2392.787252136265	0
0	13666	2400.123725793392	1
0	13668	2400.738103761406	0
0	13702	2413.823609621736	1
0	13704	2414.259876231185	2
0	13707	2417.876460698163	1
0	13712	2418.525247234578	0
0	13719	2421.014181157986	1
0	13720	2421.188729251461	0
0	13752	2424.825138700936	1
0	13753	2425.34714881347	0
0	13757	2425.764213949547	1
0	13760	2426.259744703721	0
0	13766	2427.932693140563	1
0	13769	2428.259627284804	0
0	13784	2430.551520893614	1
0	13786	2431.033916905373	2
0	13787	2432.023743367441	1
0	13799	2433.243101786546	2
0	13800	2433.908457141748	1
0	13805	2433.919102648575	0
0	13809	2434.235940290232	1
0	13812	2435.34276243742	0
0	13816	2436.715566597948	1
0	13821	2440.115943300463	0
0	13825	2440.871921163744	1
0	13830	2441.153429292457	0
0	13834	2441.762603508415	1
0	13837	2444.137829048252	0
0	13841	2444.230812660476	1
0	13843	2444.432090355618	2
0	13851	2447.095890704194	3
0	13852	2447.870696150489	2
0	13861	2450.522730729821	1
0	13865	2450.824565316301	2
0	13868	2452.402313031012	1
0	13876	2453.451511876032	2
0	13879	2454.181937876608	1
0	13884	2454.583936011877	0
0	13896	2455.242056812911	1
0	13897	2455.394312117318	0
0	13908	2455.833224071162	1
0	13909	2456.493167620652	0
0	13929	2458.720345407453	1
0	13931	2459.593150957176	2
0	13934	2461.987984793438	1
0	13938	2462.246747330776	2
0	13942	2463.083288462851	3
0	13943	2464.500335036199	2
0	13952	2465.790605530744	3
0	13954	2466.218371874735	4
0	13955	2467.557629176817	3
0	13960	2468.126390093756	2
0	13967	2468.975615383696	1
0	13971	2469.022873165605	2
0	13973	2469.55071090184	3
0	13976	2470.126737302878	2
0	13980	2471.180752867975	3
0	13983	2472.539186423776	2
0	13988	2473.367765871606	1
0	13995	2475.608365538665	0
0	13999	2475.813888861889	1
0	14003	2477.013836927044	0
0	14025	2477.554808842651	1
0	14027	2477.681751582939	2
0	14029	2477.715777828159	3
0	14031	2477.724983104854	4
0	14032	2477.801066633355	3
0	14039	2478.30178207805	2
0	14044	2478.720895915906	1
0	14054	2482.716640930802	0
0	14097	2487.784549420955	1
0	14098	2487.954940344895	0
0	14133	2498.416133267119	1
0	14135	2499.337554968448	0
0	14148	2500.38185262982	1
0	14150	2500.489334677133	2
0	14153	2500.957530922227	1
0	14159	2501.720461862675	0
0	14178	2504.728875863676	1
0	14181	2507.262483995369	0
0	14201	2508.986043219208	1
0	14202	2509.234381656045	0
0	14277	2525.069641943942	1
0	14283	2526.484152933309	2
0	14286	2527.943572209159	1
0	14293	2529.006164384424	2
0	14294	2531.892160548537	1
0	14299	2532.023358086801	0
0	14310	2533.193650493224	1
0	14312	2533.86527984006	0
0	14325	2535.444966516277	1
0	14326	2535.904074883795	0
0	14374	2540.868112077531	1
0	14375	2541.959324308284	0
0	14381	2542.213567772019	1
0	14383	2542.309426180766	2
0	14387	2544.428458914078	1
0	14392	2545.06449807283	0
0	14396	2545.283915692698	1
0	14399	2546.354188297783	0
0	14407	2547.717290015235	1
0	14408	2548.153421462611	0
0	14420	2549.010462352661	1
0	14422	2549.069656193646	2
0	14424	2549.833598554981	1
0	14433	2551.322845230641	2
0	14436	2551.876306537833	3
0	14437	2551.940876879951	2
0	14442	2553.255576593086	1
0	14448	2553.566037389003	2
0	14450	2553.619538176677	3
0	14452	2553.800143600968	4
0	14453	2553.893948367933	3
0	14458	2554.753467471133	2
0	14462	2554.990243245435	3
0	14465	2555.131043049099	2
0	14469	2555.944582656093	3
0	14471	2556.119271279049	4
0	14475	2560.298692837055	5
0	14477	2560.769288672815	6
0	14478	2561.096005175829	5
0	14484	2561.336158291826	6
0	14486	2561.375474166799	7
0	14487	2561.470457332249	6
0	14495	2563.771893469414	7
0	14497	2563.849197217344	8
0	14499	2564.193987739585	9
0	14502	2565.975106058163	8
0	14507	2566.178587340341	7
0	14511	2566.203759811638	8
0	14513	2566.395766775373	9
0	14518	2567.191465068972	8
0	14522	2567.339874073284	9
0	14524	2567.585139942094	10
0	14527	2567.889110325258	9
0	14532	2568.171232256289	8
0	14537	2569.63191549826	7
0	14542	2570.192859811536	6
0	14546	2570.298365147435	7
0	14548	2570.32384999208	8
0	14550	2572.419895162365	9
0	14556	2573.052482338433	10
0	14558	2573.527014841906	9
0	14563	2573.882133029591	8
0	14567	2573.95194470245	9
0	14571	2574.687483598426	8
0	14576	2575.127126452118	7
0	14581	2575.669305232489	6
0	14588	2576.604558449231	5
0	14592	2576.695480623405	6
0	14595	2577.780254310723	5
0	14599	2579.470238625716	6
0	14602	2580.620779962063	5
0	14607	2581.282079917388	4
0	14611	2581.525652553182	5
0	14613	2582.963737902411	6
0	14619	2583.868476718105	7
0	14622	2584.858641311115	6
0	14628	2585.691340053076	5
0	14634	2585.912890580104	6
0	14635	2586.04558351251	5
0	14643	2586.633156969814	4
0	14648	2588.767029248676	3
0	14654	2591.526477795854	4
0	14655	2592.658023526976	3
0	14660	2594.772237895606	2
0	14664	2596.16138123841	3
0	14670	2598.411214352818	4
0	14671	2598.512451287717	3
0	14677	2600.373322861201	4
0	14679	2603.105748444882	5
0	14683	2605.336537010557	6
0	14685	2606.004248242918	5
0	14690	2606.041769847159	4
0	14695	2606.32659927917	3
0	14702	2608.785452926876	2
0	14709	2609.902874610444	3
0	14713	2610.659753178613	2
0	14718	2611.96440873421	1
0	14723	2611.968706620312	0
0	14733	2614.244842422637	1
0	14738	2614.79516969731	0
0	14755	2618.354834376396	1
0	14756	2618.540359462934	0
0	14779	2619.907077331656	1
0	14780	2620.320501410925	0
0	14784	2620.72696617342	1
0	14787	2622.676879868391	0
0	14791	2623.205274385227	1
0	14793	2623.484716202235	2
0	14800	2624.691109967669	3
0	14802	2625.505720977338	2
0	14807	2625.671485688856	1
0	14812	2626.504449629124	0
0	14831	2630.325504028758	1
0	14832	2630.993387993515	0
0	14841	2631.601029329672	1
0	14842	2631.856590465669	0
0	14854	2633.295030043396	1
0	14856	2633.939305844409	0
0	14884	2637.796546624265	1
0	14887	2638.064180624357	0
0	14893	2638.29197421325	1
0	14897	2639.117697939924	0
0	14935	2644.255363701179	1
0	14939	2645.65029964577	0
0	14960	2648.442078705108	1
0	14963	2649.138382365177	0
0	14969	2649.216952328223	1
0	14970	2649.370273719404	0
0	14983	2651.891670589532	1
0	14984	2652.675069973336	0
0	14993	2653.119739373232	1
0	14995	2653.41810975001	2
0	14999	2653.885257605302	3
0	15000	2653.903884381776	2
0	15005	2654.481740835213	1
0	15010	2654.771593836124	0
0	15021	2656.8957672426	1
0	15024	2657.01041282897	0
0	15033	2660.108588523681	1
0	15037	2661.757823717745	2
0	15043	2662.765217994843	3
0	15044	2662.815769751588	2
0	15050	2664.048079613561	1
0	15059	2665.267814196564	0
0	15074	2667.186867053608	1
0	15077	2667.493202640339	2
0	15080	2668.380899915902	1
0	15086	2668.720452245563	0
0	15099	2670.454116705334	1
0	15107	2672.706407309239	0
0	15143	2677.842236422489	1
0	15144	2678.503888909259	0
0	15158	2680.081641111718	1
0	15162	2681.957408746624	2
0	15164	2682.426148713156	3
0	15171	2683.248974398137	2
0	15178	2683.556966660462	1
0	15185	2683.906961862272	2
0	15187	2685.40909408906	1
0	15192	2685.493925108812	0
0	15218	2690.22527769687	1
0	15219	2691.770929495815	0
0	15227	2693.662393930921	1
0	15229	2694.250551777267	2
0	15231	2694.68804062005	3
0	15232	2695.212872328791	2
0	15238	2696.75060209342	3
0	15239	2696.756168817247	2
0	15244	2697.137149587666	1
0	15250	2698.126554023735	0
0	15266	2698.263673547014	1
0	15267	2698.716582519241	0
0	15273	2699.146936518173	1
0	15274	2699.146997080818	0
0	15283	2701.001008091137	1
0	15292	2705.302372998542	2
0	15294	2705.77980066687	1
0	15299	2705.84823028712	0
0	15310	2706.041296918566	1
0	15312	2706.228974517977	2
0	15314	2706.260361340997	3
0	15316	2707.550962081999	4
0	15320	2709.399431595827	5
0	15326	2710.173328815447	6
0	15328	2710.304920657033	7
0	15329	2711.420017878225	6
0	15335	2711.597155992315	7
0	15336	2712.301963025197	6
0	15344	2715.21405812991	7
0	15345	2715.739763820423	6
0	15351	2715.805591462482	7
0	15359	2717.45793368381	6
0	15364	2717.490107386252	5
0	15368	2718.037725321664	6
0	15371	2718.35045498927	5
0	15378	2718.81583065931	4
0	15387	2720.160888077642	3
0	15395	2720.658400858844	2
0	15403	2722.594559185775	1
0	15408	2723.637988314584	0
0	15418	2724.708731004485	1
0	15420	2724.798016078482	0
0	15452	2729.783323213253	1
0	15454	2730.006447341177	2
0	15456	2730.464552821549	3
0	15459	2731.838176556791	2
0	15465	2732.386019596771	1
0	15471	2732.930422539938	0
0	15480	2734.276004432054	1
0	15481	2734.392652466231	0
0	15490	2735.672219014296	1
0	15494	2735.878662618253	2
0	15495	2736.03936308947	1
0	15502	2739.767956478171	0
0	15537	2742.474583702883	1
0	15542	2744.281300642198	2
0	15548	2747.695041230062	3
0	15549	2748.228364095938	2
0	15555	2748.642380489621	3
0	15557	2748.812121651577	4
0	15559	2749.691284817692	3
0	15566	2750.082756500717	4
0	15569	2751.376669101628	5
0	15571	2751.559255315184	6
0	15574	2752.438472405155	5
0	15580	2752.443419268674	6
0	15581	2752.508792721093	5
0	15586	2752.718076535111	4
0	15592	2753.674520915777	3
0	15598	2754.122604336426	4
0	15603	2755.914030291052	5
0	15604	2756.088187321898	4
0	15609	2756.459371347454	3
0	15615	2756.775431935228	4
0	15618	2757.486000064111	5
0	15620	2757.574415123721	4
0	15626	2757.632363627864	5
0	15629	2759.59155231653	4
0	15635	2760.633557678608	5
0	15637	2761.136134044257	6
0	15640	2761.64159679593	7
0	15641	2762.11580109064	6
0	15647	2762.257677842424	5
0	15653	2762.450037767355	6
0	15656	2762.595719896066	7
0	15658	2763.367703448679	6
0	15666	2764.225772420333	5
0	15672	2766.23055203395	4
0	15677	2766.301261706366	3
0	15682	2766.607437090816	2
0	15688	2766.93552729327	3
0	15689	2767.345778121808	2
0	15695	2767.84776013392	3
0	15696	2768.129356432692	2
0	15701	2769.229631054014	1
0	15707	2770.05381674963	2
0	15709	2771.581723395457	1
0	15715	2772.347180068719	2
0	15719	2772.863286219061	1
0	15724	2773.133396837416	0
0	15731	2774.665680131183	1
0	15732	2774.844712995376	0
0	15738	2775.300450708988	1
0	15739	2775.603292053568	0
0	15743	2775.783551922827	1
0	15747	2779.941282092984	2
0	15749	2780.904761910725	3
0	15751	2784.471259646307	4
0	15753	2784.505116852481	5
0	15759	2786.038739706556	6
0	15763	2786.767892448234	5
0	15771	2788.743229697888	6
0	15772	2789.431051009238	5
0	15778	2790.871107216928	4
0	15792	2793.434019055054	5
0	15794	2793.477557868884	6
0	15795	2793.761823543293	5
0	15799	2794.95584763402	6
0	15801	2795.885714716479	7
0	15805	2797.024607585542	8
0	15806	2797.317168107671	7
0	15811	2798.604524178641	6
0	15818	2800.51953033042	5
0	15826	2800.692019877713	6
0	15830	2801.184599163737	7
0	15832	2801.282258783704	8
0	15835	2802.308215629179	7
0	15841	2802.438961241678	8
0	15842	2803.141509250205	7
0	15847	2804.25347854262	6
0	15852	2804.517036006039	5
0	15857	2805.399483118076	4
0	15861	2805.58264030668	5
0	15865	2806.609442153581	6
0	15868	2807.703931155591	7
0	15872	2808.734307657132	8
0	15873	2810.027090420879	7
0	15879	2812.027233560401	6
0	15884	2812.861823053819	5
0	15891	2815.00727332871	4
0	15896	2816.173941107269	3
0	15902	2817.05300095054	4
0	15903	2817.635170388399	3
0	15907	2817.717999908214	4
0	15910	2818.226608747307	3
0	15914	2819.411268059584	4
0	15921	2820.481821588403	3
0	15926	2820.54011130637	2
0	15931	2820.764115432581	1
0	15937	2822.135863083277	2
0	15939	2822.851392456705	3
0	15940	2823.340502134695	2
0	15945	2824.126034297419	1
0	15951	2825.129337839628	2
0	15952	2826.160036772369	1
0	15962	2828.382484798701	2
0	15964	2829.031669171112	3
0	15967	2829.282392633138	4
0	15971	2831.18572489234	5
0	15974	2833.112299294981	4
0	15981	2835.41774701148	3
0	15987	2835.986283075909	4
0	15989	2836.148080145634	5
0	15990	2836.214454161693	4
0	15999	2836.937859674107	5
0	16000	2837.340228876992	4
0	16005	2837.415448241682	3
0	16010	2838.348530283507	2
0	16016	2839.118900986777	1
0	16021	2839.649219601147	0
0	16032	2840.87849180222	1
0	16034	2842.447964859135	0
0	16048	2844.442018653288	1
0	16050	2844.67355914807	2
0	16051	2844.860650367316	1
0	16057	2844.965654148782	2
0	16061	2845.424315558326	3
0	16062	2845.549613836856	2
0	16067	2846.470750272272	1
0	16073	2847.013531093403	2
0	16076	2848.266319396159	1
0	16082	2848.833530873685	2
0	16086	2849.509571403078	3
0	16088	2851.875702524076	4
0	16092	2853.010019353519	5
0	16096	2854.130334545344	6
0	16099	2855.421954083034	5
0	16106	2856.634971007326	4
0	16110	2858.427072785357	5
0	16113	2861.347335451761	4
0	16117	2864.112948726242	5
0	16121	2864.265829185809	4
0	16131	2864.778380325576	5
0	16133	2864.86929711855	6
0	16135	2865.506954478171	7
0	16136	2865.592479368518	6
0	16141	2865.904621736808	5
0	16147	2866.090111975048	6
0	16148	2866.157305991943	5
0	16154	2867.602365347143	6
0	16156	2867.741916266918	7
0	16158	2867.807644015628	8
0	16164	2869.765950616234	9
0	16165	2870.056356019048	8
0	16169	2870.888601110413	9
0	16172	2872.113365738339	8
0	16178	2872.91528443003	9
0	16180	2873.85740661281	10
0	16183	2875.397865095949	9
0	16188	2876.406465372598	8
0	16192	2877.359787524218	9
0	16195	2878.190289621889	8
0	16199	2878.907212126869	9
0	16201	2880.998647830419	10
0	16205	2882.131655403298	11
0	16207	2882.267572761189	12
0	16209	2884.791443022741	11
0	16217	2886.587096471513	10
0	16223	2886.74016500741	11
0	16224	2887.820729287367	10
0	16230	2889.099719211329	11
0	16231	2889.701614522287	10
0	16235	2890.247109087659	11
0	16237	2890.351149513105	12
0	16241	2891.043223918658	11
0	16247	2891.308320149609	12
0	16248	2891.504059631368	11
0	16252	2892.247592761569	12
0	16257	2893.584656469592	13
0	16259	2894.700361222582	14
0	16260	2895.03876724681	13
0	16267	2895.395203739376	12
0	16271	2895.479589025885	13
0	16273	2896.652889633998	14
0	16275	2897.041107817369	15
0	16278	2898.30183920425	14
0	16282	2898.443205163859	15
0	16285	2899.036415451058	14
0	16292	2903.067619250966	13
0	16298	2904.27169495264	14
0	16301	2904.533621732403	13
0	16306	2906.252312866017	12
0	16311	2907.151023532385	11
0	16317	2907.949107772971	12
0	16318	2908.005190775561	11
0	16323	2908.945049907149	10
0	16331	2910.013834587835	9
0	16340	2910.683361495197	8
0	16346	2911.209136752464	9
0	16348	2911.683354608788	10
0	16350	2912.375963443705	11
0	16351	2912.438916964648	10
0	16357	2912.6408607544	9
0	16363	2913.025162443981	10
0	16364	2913.20512840363	9
0	16371	2913.637537117239	8
0	16378	2915.319926824146	7
0	16384	2916.568527583738	8
0	16385	2917.784184930657	7
0	16393	2919.693739207571	8
0	16394	2919.881105272959	7
0	16402	2920.370965111773	8
0	16404	2920.498500493594	9
0	16407	2922.339900567879	8
0	16412	2923.030221762615	7
0	16416	2924.137822030661	8
0	16419	2925.544095066615	7
0	16430	2929.598855773444	6
0	16434	2929.672848560808	7
0	16438	2930.737658551131	6
0	16444	2931.156647178126	5
0	16452	2932.039749397695	6
0	16453	2932.087139419497	5
0	16458	2932.154640223011	4
0	16465	2933.051867657642	3
0	16469	2934.154452361153	4
0	16471	2934.368310871936	5
0	16474	2934.945118036073	4
0	16478	2935.6849363244	5
0	16480	2936.038904525065	6
0	16483	2937.978643185592	5
0	16487	2938.201694421329	6
0	16489	2938.685427325963	7
0	16497	2942.041530659095	6
0	16502	2942.38563731413	5
0	16506	2942.862576287539	6
0	16510	2943.508205692706	7
0	16511	2945.801946777621	6
0	16516	2946.28645308081	5
0	16523	2948.800249683208	4
0	16528	2949.35127087843	3
0	16536	2949.834723751202	4
0	16537	2949.932667775863	3
0	16544	2950.934980045184	2
0	16548	2951.530212870372	3
0	16551	2953.279471102486	2
0	16558	2955.889514255466	1
0	16563	2958.233895005759	0
0	16580	2961.041998567148	1
0	16582	2961.334176943509	2
0	16584	2962.261474243551	1
0	16591	2963.006209265229	2
0	16592	2963.109276533534	1
0	16596	2963.297291969006	2
0	16602	2964.16454695123	1
0	16608	2965.419365608464	0
0	16614	2966.212829866568	1
0	16615	2966.433438336119	0
0	16685	2978.784538732477	1
0	16686	2979.355976829575	0
0	16693	2980.053510428249	1
0	16694	2980.199509697215	0
0	16700	2980.860560604521	1
0	16701	2981.147636565396	0
0	16709	2981.613354226682	1
0	16711	2981.630400777103	2
0	16712	2982.037266414671	1
0	16718	2982.151935133646	0
0	16724	2982.594225847459	1
0	16725	2982.768124180974	0
0	16731	2983.075671763411	1
0	16734	2983.38878292988	2
0	16735	2983.515819131687	1
0	16741	2983.962941450011	2
0	16744	2984.186506740034	1
0	16750	2984.385770978356	0
0	16756	2984.399149426555	1
0	16758	2985.172575820246	2
0	16761	2985.573845551994	3
0	16763	2985.68495350243	4
0	16770	2987.92572530774	3
0	16778	2989.359899640337	4
0	16780	2990.634758185812	5
0	16781	2990.798607537131	4
0	16786	2990.865946525654	3
0	16790	2991.47251338723	4
0	16794	2993.573338243862	5
0	16795	2993.706764414372	4
0	16801	2994.896104812892	5
0	16804	2995.087139071613	4
0	16810	2996.315409973279	5
0	16817	2998.256329010106	4
0	16821	2998.939252796041	5
0	16824	2999.035647758049	4
0	16828	2999.198291308637	5
0	16832	3001.606128273379	4
0	16837	3002.000575346663	3
0	16842	3003.236161595227	2
0	16849	3005.210462586283	1
0	16855	3006.13325762664	2
0	16856	3006.177763417439	1
0	16863	3008.827534416696	0
0	16867	3009.124378904109	1
0	16870	3009.917217784335	0
0	16915	3014.974252053122	1
0	16917	3015.329744877546	2
0	16918	3015.769982500594	1
0	16923	3016.401877006052	0
0	16931	3023.362174872548	1
0	16934	3024.41300041895	0
0	16940	3025.560163655702	1
0	16942	3025.946505174963	0
0	16948	3028.355733867398	1
0	16951	3028.925721076967	0
0	16964	3033.038362721756	1
0	16967	3035.746673192418	2
0	16969	3036.511775442806	1
0	16973	3037.304060764447	2
0	16976	3039.742510816159	1
0	16982	3040.815604597429	2
0	16986	3041.418672392967	1
0	16994	3044.996127244243	2
0	16996	3045.286422175528	3
0	16997	3046.091382792213	2
0	17004	3047.313079316623	1
0	17009	3048.111762330571	0
0	17013	3048.173154599198	1
0	17017	3049.471366104628	2
0	17021	3050.083898377528	3
0	17022	3050.359903073179	2
0	17026	3050.726192909793	3
0	17029	3051.121670843214	2
0	17033	3052.653095340688	3
0	17035	3053.249799829651	4
0	17039	3054.393893855056	3
0	17045	3054.8804724093	2
0	17050	3054.922110482951	1
0	17054	3055.065109154214	2
0	17059	3056.366383684191	1
0	17063	3057.121491808203	2
0	17068	3058.514727748433	1
0	17073	3059.268253759589	0
0	17091	3061.289650966865	1
0	17093	3061.34550807269	2
0	17095	3063.535332787827	1
0	17100	3063.720271709691	0
0	17113	3066.104599893543	1
0	17117	3066.870545596677	2
0	17118	3066.971285663167	1
0	17123	3067.386395787436	0
0	17127	3068.526532753239	1
0	17129	3069.034613152702	2
0	17132	3070.566177666274	1
0	17137	3071.997419057313	0
0	17148	3073.371237700144	1
0	17149	3074.009296622904	0
0	17162	3075.70489571627	1
0	17163	3076.439985494552	0
0	17184	3078.50561428953	1
0	17185	3078.534566614103	0
0	17224	3082.643625966932	1
0	17225	3082.833484319171	0
0	17231	3083.59623190853	1
0	17232	3083.790854778065	0
0	17238	3084.094882674073	1
0	17241	3085.247111385823	0
0	17270	3090.904040685934	1
0	17272	3091.847585451645	0
0	17287	3094.525613707105	1
0	17290	3095.2414416456	0
0	17319	3101.233745207041	1
0	17320	3101.264149428638	0
0	17329	3101.637593740124	1
0	17332	3102.245962436284	0
0	17336	3102.924801488196	1
0	17339	3104.00534091262	0
0	17347	3104.232852579691	1
0	17349	3104.792257869699	2
0	17350	3105.747928162147	1
0	17357	3106.257640724306	0
0	17365	3106.970928077372	1
0	17366	3107.06875827622	0
0	17370	3107.498941443823	1
0	17374	3107.779387910169	2
0	17375	3108.563571720197	1
0	17382	3110.373752906501	0
0	17396	3112.516030498481	1
0	17400	3112.999887392338	0
0	17411	3113.524648521417	1
0	17412	3113.672546050164	0
0	17425	3114.296070276013	1
0	17426	3114.401360434392	0
0	17434	3115.217217833077	1
0	17435	3115.290386132378	0
0	17446	3116.580078715461	1
0	17447	3118.09290725339	0
0	17472	3119.979015897801	1
0	17473	3120.016250444919	0
0	17487	3120.720109805631	1
0	17490	3123.265866894469	0
0	17499	3124.510559432504	1
0	17501	3126.552436392737	2
0	17507	3127.855348487882	1
0	17512	3128.226697125971	0
0	17521	3129.453180816129	1
0	17527	3130.007712597338	2
0	17529	3130.285267469508	1
0	17535	3130.581972821454	0
[...]
5	162536	28280.753509512983	140.37501929766
5	162541	28281.08767591925	139.0109134424
5	162552	28282.369335624389	136.40506381033
5	162591	28287.620422182582	138.65840989362
5	162601	28288.543177220736	135.97842334233
5	162606	28288.586878592288	117.70475707708
5	162611	28288.665339195409	116.06322791731
5	162628	28292.03584154582	118.38441538704
5	162648	28297.935477089342	121.97924147794
5	162653	28298.063855702116	120.94321470313
5	162658	28298.534514929463	114.28917477554
5	162666	28299.023698932713	109.76387350801
5	162677	28300.061679886384	109.83196392834
5	162683	28300.204920075136	109.3449072825
5	162699	28302.570783621732	88.933457427585
5	162716	28305.135422768024	80.891180335902
5	162721	28305.163922467917	79.831686814597
5	162730	28306.167448739624	79.619052960828
5	162765	28312.302592643012	79.999183945558
5	162776	28314.590052924751	81.220002649816
5	162833	28324.266831828977	88.418899116694
5	162839	28325.053505968776	83.634438216303
5	162847	28326.333071144218	83.547707609586
5	162860	28327.057178963462	83.926561660751
5	162872	28329.567802890963	84.684675994717
5	162879	28330.488605702162	83.066880427109
5	162918	28336.03510875391	78.660381877221
5	162935	28339.253205481003	78.304832817221
5	162946	28344.09314736323	81.064074822715
5	162969	28347.232598695115	71.664694680861
5	162977	28348.027271652024	71.330537900793
5	162996	28352.498657028273	75.614712160071
5	163742	28489.018747746276	209.69990362924
5	163817	28503.231096902481	223.04118455162
5	163825	28504.048473267573	217.02521777221
5	163830	28504.090373383072	215.13987213036
5	163837	28504.91749305765	213.97580408507
5	163845	28505.781921213873	203.55617725015
5	163874	28511.771187671753	202.53296501297
5	163924	28516.67067384269	205.7004773133
5	163934	28518.912989351471	200.63601101292
5	163943	28520.753035248208	188.04202089889
5	163952	28524.182283870442	184.65538079006
5	163957	28524.278453170147	178.99370942261
5	163964	28525.258044402896	179.04887991371
5	163976	28526.331902684479	174.89834186014
5	163981	28526.61673454248	166.05074736118
5	163986	28527.022661696805	163.56777795771
5	163995	28533.091574361301	164.17923731208
5	164014	28536.93391049069	167.20560495317
5	164022	28539.092678238245	167.85591566761
5	164027	28539.349601596858	166.10831234408
5	164032	28539.766655247644	165.73309111159
5	164047	28545.455829698288	170.96634253193
5	164065	28549.545331711489	163.95940108919
5	164088	28551.221174199394	162.39919744965
5	164097	28551.803832739767	160.84372751255
5	164109	28552.534509809745	160.96663529719
5	164114	28552.622580107925	159.53543157097
5	164128	28556.177403379046	162.02250424174
5	164170	28561.189764345312	166.90573817583
5	164233	28576.17570267735	179.12541035562
5	164238	28576.276694468985	178.25742025985
5	164245	28577.549676571866	176.84006661482
5	164258	28579.617808564853	171.96171097032
5	164278	28582.298463394063	174.17969188692
5	164283	28582.731483296563	169.2972616194
5	164291	28584.398598675422	168.33123706638
5	164296	28585.825786678567	165.99900807359
5	164301	28586.069842755314	165.06711787894
5	164308	28587.030516246741	159.30724392503
5	164327	28588.711899515323	156.70719651733
5	164333	28589.877381922066	156.69860940676
5	164338	28590.995618958261	153.69990376382
5	164349	28596.39393368792	148.25790387071
5	164378	28598.708097369269	150.37847583517
5	164392	28600.095227832286	143.37672462477
5	164401	28602.702244587477	145.30336003893
5	164441	28607.073911579817	148.02734454964
5	164453	28610.511634748035	150.03966892359
5	164471	28612.161402484009	150.90603504313
5	164484	28614.660872489008	152.94681186936
5	164494	28615.782027583214	152.26858519521
5	164506	28619.155171091554	151.96929833491
5	164516	28619.285899696906	149.97583659726
5	164525	28619.839070161643	145.85221556262
5	164576	28626.155025297802	151.72039930693
5	164581	28626.378568093601	148.82028690945
5	164592	28627.349835919242	145.26206293466
5	164681	28644.433459159902	158.60086073355
5	164693	28646.400441426897	154.47142908477
5	164725	28648.661578332423	149.11596051885
5	164737	28649.432348905494	145.29684769139
5	164748	28650.254613602026	141.78649583073
5	164783	28655.016818525119	142.85540162352
5	164789	28655.959231285102	143.06641584935
5	164794	28656.32726468089	141.64526406386
5	164799	28657.307761540663	140.773053573
5	164808	28658.603795240435	141.97641539717
5	164837	28664.178965770519	147.18646343565
5	164848	28667.316041090838	148.11414838533
5	164877	28671.093332648204	147.94738914519
5	164887	28672.898658373648	139.50332371038
5	164901	28674.922361884684	140.05076366984
5	164907	28675.616324521889	137.03402060021
5	164914	28677.968869228768	136.21620930938
5	164923	28678.517571022478	135.97026931574
5	164936	28680.059667079318	137.21240360245
5	164941	28680.407585308585	136.58781150203
5	164948	28681.821333206035	126.65388895159
5	164955	28681.957342322011	120.74226206298
5	164960	28682.145137367872	119.11637426559
5	164965	28682.243878918315	118.93641569489
5	164987	28691.794394931941	125.27993975577
5	165052	28701.8490157361	127.72160154022
5	165057	28702.048359772247	126.83238791976
5	165071	28703.973252275031	126.04566833306
5	165100	28705.568469790315	127.60714262594
5	165105	28706.327982510518	127.25278209061
5	165116	28708.376683812897	128.43451214263
5	165136	28710.868929535493	130.1856296869
5	165141	28710.904777658752	128.9390406159
5	165154	28711.718140815457	127.39266304453
5	165175	28712.531987630396	114.81499952871
5	165180	28713.26413225099	113.20658370099
5	165187	28717.007372150271	112.51074303322
5	165197	28718.319511297087	112.72744307097
5	165205	28720.475637233349	113.10955587886
5	165210	28720.518683642207	101.00929447799
5	165219	28721.567067440957	98.99482684432
5	165231	28725.227531268946	90.013443472599
5	165238	28725.887545023305	90.179925187054
5	165243	28727.480557943371	90.419970636812
5	165255	28730.833753251438	92.986676672977
5	165307	28734.758414789447	90.003822627148
5	165312	28735.724186613349	89.357951069477
5	165319	28737.291842929145	87.640335940907
5	165331	28738.574159037053	84.995706312082
5	165341	28739.220660399028	78.205601424922
5	165351	28743.459823498099	72.506023443804
5	165357	28743.618432899932	69.948654155103
5	165362	28744.24702635528	70.391264794989
5	165367	28744.429058975229	66.250691959473
5	165372	28745.543506723593	64.84418626012
5	165378	28746.073834427368	64.230858267724
5	165385	28747.056356818788	63.79884065256
5	165390	28747.474397508612	56.68799952952
5	165397	28748.41645458292	56.144223224402
5	165409	28748.957604807276	52.390044257356
5	165418	28750.720103364927	49.486348755506
5	165423	28753.87286869891	43.425914703586
5	165428	28754.230987032686	42.931114820257
5	165437	28756.688898096511	26.809667166563
5	165484	28761.675260273994	29.920345590441
5	165509	28764.825697798484	27.06448376192
5	165522	28766.377988191835	23.094708538868
5	165530	28768.325117310503	18.356470761795
5	165555	28770.42238435245	9.924872039878
5	165590	28776.665738542167	10.518138385713
5	165598	28777.235155608234	8.831544978614
5	165607	28777.489362604258	8.896326539974
5	165617	28778.691452970628	5.53161053775
5	165684	28787.45459023693	10.225227458113
5	165692	28789.128394614145	11.753591559213
5	165705	28791.908950852171	9.969882031041
5	165736	28795.52522275185	11.219355191762
5	165741	28796.738536929434	7.402200846332
5	165749	28797.792757739914	0.127987953763
5	165774	28805.03546200525	0.300837009145
5	165982	28839.629409239607	26.453949794018
5	166049	28850.968103222884	32.835930403081
5	166071	28854.60415359357	29.867084213892
5	166076	28854.918596599266	25.770977952163
5	166081	28855.510977312073	22.648681732447
5	166088	28856.210357714299	20.705085054084
5	166095	28857.064628322396	17.429648826836
5	166108	28857.734918174624	16.412490955908
5	166122	28859.617997337827	17.496667100196
5	166127	28860.362988697481	17.468721283449
5	166134	28861.108353276972	16.269560985568
5	166139	28861.34846387355	16.408013349669
5	166153	28865.30133639564	12.429779952943
5	166182	28869.13421848621	13.17301419645
5	166193	28870.569073893932	11.809425534974
5	166209	28874.284203723703	9.150745008041
5	166238	28878.86186382256	13.714493706277
5	166243	28879.491175619169	12.098914319332
5	166252	28880.259992853043	12.230621020472
5	166263	28882.423522105985	12.897863685427
5	166270	28886.168123635049	16.298368016472
5	166319	28893.306673787352	22.558962093992
5	166597	28950.194252811157	78.738621013046
5	166606	28951.196632204863	71.543106553644
5	166619	28952.727463123863	59.719961702676
5	166625	28953.240136615246	57.746819771654
5	166631	28953.555713881374	52.449838625466
5	166643	28956.670610078485	49.231839152196
5	166656	28957.799106389044	42.834222338097
5	166665	28958.514206594541	41.794566557517
5	166678	28959.997613100503	41.323966864576
5	166691	28960.92166223917	40.893295668815
5	166700	28964.752818728369	42.211277316611
5	166736	28969.469239886769	31.426162271424
5	166742	28969.818238691358	31.239682442843
5	166751	28970.111730156132	29.890323114294
5	166756	28970.87583489998	30.438926919363
5	166761	28970.992745880241	27.746755585018
5	166766	28970.995685650686	26.051869218103
5	166775	28971.743258537781	26.074975240793
5	166789	28973.854844246047	24.240841394557
5	166794	28974.012741241184	23.805115747742
5	166799	28974.24894555326	22.303568342908
5	166808	28976.676006201815	21.760865818855
5	166867	28982.551978688351	19.836313175471
5	166877	28983.535012843484	17.845692617437
5	166884	28984.622799337289	17.663131523564
5	166901	28985.648728222491	18.210387167465
5	166941	28988.960596941956	19.771059481607
5	166959	28993.416680079047	23.340629737031
5	167140	29022.372929623216	49.493759413834
5	167195	29029.7976863498	45.027027210025
5	167211	29031.409728851149	45.663489172746
5	167231	29032.923800755384	46.337439257357
5	167236	29033.174943337718	45.808418009056
5	167242	29034.333487717183	44.600833476166
5	167248	29034.761858065266	37.300457832171
5	167254	29035.631910742274	36.765226208785
5	167261	29035.829057343543	32.276684025648
5	167275	29036.905294197511	30.95902485259
5	167287	29038.037274152275	24.898801086902
5	167308	29042.858008515928	23.161669088783
5	167323	29044.011662709324	21.281194058777
5	167328	29044.34301006762	21.491725692204
5	167335	29046.138547428199	16.316092916361
5	167352	29051.0847383211	20.610918186057
5	167370	29052.66249796297	12.955106742408
5	167600	29099.950437781968	52.667738755647
5	167644	29107.714868551033	51.722008215855
5	167649	29108.077399934242	25.558171083172
5	167654	29108.240119234746	23.281530730413
5	167665	29109.069980041967	17.278738372818
5	167685	29112.504922908445	19.202005072562
5	167690	29113.133207889998	18.599540698995
5	167695	29113.248167855897	18.019613309643
5	167700	29114.404192942493	17.711943909677
5	167705	29114.457072870245	6.060844999329
5	167712	29115.561132621098	6.22483901002
5	167874	29150.60396777242	39.263214563349
5	168237	29228.830388165324	113.20194507489
5	168442	29267.214221356835	150.85552998914
5	168452	29267.464374915696	145.8593177765
5	168458	29268.10319308997	144.42584867204
5	168463	29268.361920120258	132.50816662437
5	168468	29268.512595357415	123.45745143889
5	168477	29272.814474162054	127.51965480101
5	168491	29273.761561613691	121.517176144
5	168499	29277.290201927959	123.09474935437
5	168523	29280.630451419089	126.17014357434
5	168529	29280.807667976584	116.53790497805
5	168542	29283.969804075359	114.32576650649
5	168559	29287.496947579079	115.33506074769
5	168564	29287.841053634803	111.49073719711
5	168575	29289.440322486457	111.69375354703
5	168580	29291.020622522067	112.28931988048
5	168585	29293.289819440881	114.26111441673
5	168590	29293.755847497129	110.43283025302
5	168595	29294.332758721151	110.93825033054
5	168603	29295.113756842399	110.29647003716
5	168614	29295.398503534664	106.94540609934
5	168623	29296.808131949506	106.62520880183
5	168663	29301.706006100552	109.21224881597
5	168668	29302.329532286125	105.80711643444
5	168674	29302.507030060896	105.25618920884
5	168679	29303.354525368199	103.81642736708
5	168688	29304.940105893677	92.131920196091
5	168703	29307.832552785566	89.301894473939
5	168723	29311.771567325345	92.742522284586
5	168741	29312.557048017031	93.41937187957
5	168746	29312.589710199415	92.129257381894
5	168752	29313.184771642667	87.803699586502
5	168759	29315.45249226814	82.957950045641
5	168772	29318.674723371132	85.858738074051
5	168837	29325.624784684039	89.556480597628
5	168849	29326.815378539209	89.267668921661
5	168923	29338.659745591777	93.656082088442
5	168928	29339.558101337109	91.224456540421
5	168935	29340.792230032707	90.718180447305
5	168944	29341.708567241801	91.227842465829
5	168960	29344.274227104182	89.371811157566
5	168966	29344.623204671518	73.734012820262
5	168971	29344.743822409963	71.626017983846
5	168980	29345.344885814216	71.871357792484
5	168995	29347.308849147425	58.783927186154
5	169016	29349.764708462755	61.135465343261
5	169036	29352.024993466603	55.154602696967
5	169054	29356.48294825299	57.525499577499
5	169059	29357.079793144904	52.291375519582
5	169067	29358.645011753254	43.520684224178
5	169072	29359.0935233367	42.670329958178
5	169078	29359.530697031323	38.033954015641
5	169085	29362.169893948915	34.800468713454
5	169096	29366.122099394711	33.247523993747
5	169114	29368.865257960609	32.996580334701
5	169121	29371.226768695152	35.091416847624
5	169131	29371.802775334425	34.047544368761
5	169139	29372.522684945523	34.229675287726
5	169173	29377.833709585517	34.907452346256
5	169184	29379.723022051642	36.193538996089
5	169236	29386.420963709559	41.303100243795
5	169245	29387.71373938097	41.364147362456
5	169263	29389.215158504049	42.205145633459
5	169269	29389.466484732356	41.613270758355
5	169274	29389.633793573155	37.534264164457
5	169281	29389.897544926317	35.146986923946
5	169298	29393.054656610124	37.594257039047
5	169314	29393.671770394963	36.101765562565
5	169319	29393.711105517264	31.397780309732
5	169324	29393.753347055845	26.037946955916
5	169329	29394.5564597704	20.834191861847
5	169351	29400.31616480337	22.723957458423
5	169482	29419.847172983334	37.160973372002
5	169499	29421.275856903006	25.173507593738
5	169506	29422.399386271822	19.938712931215
5	169520	29424.920534023607	21.904764631046
5	169556	29430.893065794615	26.412972573517
5	169608	29441.318593813095	34.668022258801
5	169632	29443.067710823623	33.132865163878
5	169640	29443.903204070449	28.317185308405
5	169671	29445.369551399049	27.389059320901
5	169700	29448.864671858642	26.271065713602
5	169725	29453.848209844932	23.6125615284
5	169730	29454.21992074787	23.163118465137
5	169737	29456.049285157761	24.447229650003
5	169758	29459.260371714989	27.194875580718
5	169769	29460.238131425212	26.159449850141
5	169775	29461.448919888869	24.865961753161
5	169788	29463.830269340694	11.030947628771
5	169805	29465.499805069966	7.001969192526
5	169836	29468.400174260164	6.135735954979
5	169863	29470.395338612004	7.636742598515
5	169867	29470.702204673812	6.161119030522
5	169881	29475.331945128105	2.38457637225
5	169890	29475.581619384931	1.634841922722
5	169903	29478.883957320023	3.588589987856
5	169941	29485.824212434964	10.40707745597
5	169946	29486.714303563544	3.08685667244
5	169962	29489.585156354993	1.077164681686
5	170205	29544.54702439227	51.745765652483
5	170212	29544.909944794799	47.351513060304
5	170221	29545.322767333564	41.572271164653
5	170239	29547.819205597426	42.792755858162
5	170281	29556.820003840941	51.356040109051
5	170299	29558.421147784629	46.045693778814
5	170346	29567.527114198608	49.917025789303
5	170352	29567.868033287092	48.556887935563
5	170360	29568.294881003828	34.985958460001
5	170382	29570.449551402318	35.983869139782
5	170388	29571.047238770543	35.423962097258
5	170397	29572.682194510959	31.785494128175
5	170407	29573.04340713192	29.501167380442
5	170415	29573.8024344617	25.966839428398
5	170422	29574.508279996646	26.104087241373
5	170437	29575.041180837222	26.511032513519
5	170442	29575.162082040184	18.897089559481
5	170449	29578.173345651499	20.331129154899
5	170464	29580.051258842676	22.20431437892
5	170521	29586.97331465161	28.056211421015
5	170526	29587.550929524469	25.127060743766
5	170531	29587.736411286122	14.287473967464
5	170550	29595.41518911016	20.864910611335
5	170561	29595.623067531724	20.656271336488
5	170566	29596.190438940909	18.549014560579
5	170573	29597.741908863421	18.707042749595
5	170579	29598.242320928115	17.583733530255
5	170591	29600.448750106365	19.012773575911
5	170608	29602.190423521727	11.359785315278
5	170613	29602.754277943748	10.200250854283
5	170620	29603.936922202328	11.240939718601
5	170629	29609.269791040593	9.7306980305
5	170650	29612.54696309333	9.762440762567
5	170682	29619.021767764465	4.387677741312
5	170700	29621.996169619698	1.130252644346
5	170715	29626.683739024534	3.719151041014
5	170764	29633.745660421048	2.344601416727
5	170771	29634.057174268789	0.155493284609
5	170778	29635.214275099695	0.415605152821
5	170786	29637.367603242242	1.621695707082
5	170821	29644.5457268018	0.693658783054
5	170860	29655.318098712785	0.13610939959
5	170878	29657.128058641066	0.742970314093
5	170891	29660.497158049465	1.449947044061
5	170895	29660.823553743161	1.213148250756
5	170974	29672.669908229447	9.750426460106
5	170992	29676.342844463988	13.326732553132
5	171022	29686.319481597383	17.563473515986
5	171117	29699.976523339145	19.25952824066
5	171122	29700.011860675148	11.018975018952
5	171134	29703.210172929807	9.392316360324
5	171146	29705.588344179103	6.343729913787
5	171153	29706.56911117638	4.735490884554
5	171164	29707.298817304033	0.402708492841
5	171178	29709.528926526139	0.754296595157
5	171189	29711.622027246973	2.821021702107
5	171232	29714.143560975108	1.586591631559
5	171261	29720.369906444139	4.114670980627
5	171269	29721.166406829038	2.362626803491
5	171278	29721.456469730257	0.380507033164
5	171300	29724.533717883083	0.790471115641
5	171338	29734.645636309405	1.188840275192
5	171357	29739.159883437415	1.785368466714
5	171393	29746.066767682432	0.069692503903
5	171417	29749.274682370545	0.442483939177
5	171432	29750.450616398657	0.367588775559
5	171449	29753.274397919519	1.173129331565
5	171490	29761.399177465733	1.17257552815
5	171501	29762.238108514041	1.442196602091
5	171505	29763.417867748605	2.046757966698
5	171546	29774.046857824067	3.258166970093
5	171566	29781.65128130712	1.718333381727
5	171605	29793.129569043302	0.266364416808
5	171610	29793.776517229978	0.709836868537
5	171661	29800.10591754335	5.673476065541
5	172062	29874.098545100535	75.458370839106
5	172067	29874.104248118362	71.559125510463
5	172075	29874.654634389292	70.52255315048
5	172085	29875.870579912476	71.346837640402
5	172091	29876.071058491106	70.735643563056
5	172096	29877.300517068478	66.736453869947
5	172103	29878.113459875595	57.420116950129
5	172110	29878.406154247333	52.071747308425
5	172122	29880.219781580053	37.114405917198
5	172127	29881.674965200737	36.205170914062
5	172135	29883.588550105849	36.800332232061
5	172147	29888.903785212783	40.78270678365
5	172163	29889.715448728542	39.893893298314
5	172168	29891.397014596468	37.471493832349
5	172173	29893.380428820405	32.002553201411
5	172180	29894.743150190495	28.036298103797
5	172187	29895.422795130608	25.658035997465
5	172210	29899.846059250614	28.888325761633
5	172220	29901.451711661199	29.298717294317
5	172274	29910.911227756131	30.777071577611
5	172279	29911.236690401758	27.846939477254
5	172284	29911.255879114674	23.52323971088
5	172289	29911.338266849952	15.327776623731
5	172300	29916.152115613134	19.868365132348
5	172342	29922.325249280446	0.085077429616
5	172358	29925.296112361676	0.706565600622
5	172381	29929.141072512508	0.400923193677
5	172430	29941.977272413017	2.78887355514
5	172457	29947.383238367066	2.760521344147
5	172553	29962.170599863131	7.395559368869
5	172564	29964.183124349679	7.478958906646
5	172569	29965.042226680682	7.578350207782
5	172580	29967.750427820691	1.247708430643
5	172641	29984.329440703093	0.215812975666
5	172659	29987.909086911827	0.488051327237
5	172670	29990.739293328259	2.972147065143

