version 2
run First-n5-17-20191016-17:04:02-5016
attr configname First-n5
attr datetime 20191016-17:04:02
attr experiment First-n5
attr inifile omnetpp.ini
attr iterationvars ""
attr iterationvarsf ""
attr measurement ""
attr network org.omnetpp.queueing.Pizza
attr processid 5016
attr repetition 17
attr replication ""
attr resultdir results
attr runnumber 17
attr seedset 17
param **.PS.maxInventoriedPS 5
param **.U1.interArrivalTime exponential(2s)
param **.U2.interArrivalTime exponential(4s)
param **.PS.serviceTimeForInventoryU1 exponential(0.8s)
param **.PS.serviceTimeForInventoryU2 exponential(1.0s)
param **.PS.serviceTimeDirectU1 exponential(1.2s)
param **.PS.serviceTimeDirectU2 exponential(1.4s)
param **.PS.probabilityProducing 0.5
param **.CS.serviceTimeU1 exponential(0.8s)
param **.CS.serviceTimeU2 exponential(1.0s)

vector 0 Pizza.EntryQueueU1 queueLength:vector ETV
attr interpolationmode sample-hold
attr title "queue length, vector"
vector 1 Pizza.CS queueLength:vector ETV
attr interpolationmode sample-hold
attr title "queue length, vector"
vector 2 Pizza.EntryQueueU2 queueLength:vector ETV
attr interpolationmode sample-hold
attr title "queue length, vector"
vector 3 Pizza.sink lifeTime:vector ETV
attr interpolationmode none
attr title "lifetime of arrived jobs, vector"
attr unit s
vector 4 Pizza.sink lifeTimeU1:vector ETV
attr interpolationmode none
attr title "lifetime of arrived jobs, vector"
attr unit s
vector 5 Pizza.sink lifeTimeU2:vector ETV
attr interpolationmode none
attr title "lifetime of arrived jobs, vector"
attr unit s
0	0	0	0
0	9	2.210708385975	1
0	11	2.351339497469	2
0	15	3.783911004085	1
0	20	4.113174257508	0
0	24	5.639619000026	1
0	28	6.525372369066	2
0	30	6.649218235706	3
0	31	7.557453343831	2
0	35	8.339100524735	3
0	37	8.408931952725	4
0	45	10.486816781568	3
0	50	10.487716406509	2
0	55	11.506832856323	1
0	60	12.426484587904	0
0	64	12.6048033868	1
0	69	13.207894492492	0
0	75	13.641847394101	1
0	77	14.333366461357	2
0	78	14.412460377242	1
0	84	14.721788891965	2
0	85	15.941082177906	1
0	89	16.400407166182	2
0	91	16.572263280856	3
0	93	16.703237690652	4
0	99	17.70611722291	3
0	108	18.278147140856	4
0	110	19.072212623543	5
0	112	19.213011912291	6
0	114	20.356082539447	5
0	121	20.444915079339	6
0	122	21.370965782562	5
0	127	21.574612475163	4
0	134	23.166766993779	5
0	135	23.794546428266	4
0	140	24.005058350329	3
0	145	24.436495307601	2
0	150	25.43284666968	1
0	155	26.046230924073	0
0	161	26.962885542103	1
0	163	26.984392040169	2
0	165	27.120312402959	3
0	167	28.051284156287	4
0	171	29.782879023774	5
0	172	29.813963500837	4
0	176	31.180155643907	5
0	178	31.302672449859	6
0	180	31.742579180188	7
0	182	32.253972023302	8
0	184	32.427977458143	9
0	187	33.66167246747	8
0	193	36.68986054321	7
0	198	37.569918102752	6
0	202	38.735218269738	7
0	204	39.733967268249	8
0	206	40.373863242831	9
0	209	40.841271864568	8
0	213	42.472654561759	9
0	221	44.671819427797	8
0	227	44.987705967556	9
0	228	45.266356423631	8
0	233	45.948222782546	7
0	238	47.302741003672	6
0	243	47.99445859159	5
0	247	48.062719125577	6
0	250	48.96223541835	5
0	256	49.400320405914	6
0	258	49.849955189238	5
0	263	51.356190203378	4
0	270	52.731747383761	3
0	275	53.966668959546	2
0	280	55.31054735203	1
0	284	55.855437039078	2
0	287	56.915346726379	1
0	291	58.146661747303	2
0	294	59.115126524243	1
0	298	59.145826390686	2
0	304	60.395813043044	3
0	306	60.679708943229	4
0	307	61.253991172795	3
0	317	64.595743937696	4
0	318	65.130166333186	3
0	323	66.260178617245	2
0	330	67.637228047669	1
0	337	69.404726979463	0
0	341	71.257495585943	1
0	348	73.81643565794	0
0	388	77.554051726763	1
0	390	77.738502102121	2
0	393	78.455117166538	1
0	401	82.986550804822	0
0	407	83.029919341649	1
0	408	83.123380336515	0
0	427	84.889703179663	1
0	432	88.027344497358	2
0	434	88.142383708191	3
0	436	88.550031256143	4
0	438	89.079187790291	5
0	440	89.945238412804	6
0	442	92.045433791452	7
0	444	92.07799535568	8
0	445	92.304357663504	7
0	452	92.827574946194	6
0	457	93.716916280228	5
0	463	94.611407137217	6
0	465	94.98563787799	7
0	469	96.418001220384	8
0	470	96.995315467472	7
0	474	97.527407169902	8
0	476	98.652448415073	9
0	479	101.051081589449	8
0	484	101.774276607469	7
0	491	102.48059358805	6
0	495	104.141888513736	7
0	498	104.573236014317	6
0	503	104.979288045927	5
0	509	106.328459528321	4
0	514	106.885555803563	3
0	518	107.678507852859	4
0	521	108.269096295646	3
0	526	108.937074756044	2
0	531	111.282966579957	1
0	538	111.89120858191	2
0	539	112.069444934636	1
0	544	112.080493624995	0
0	548	112.302899668276	1
0	552	113.798104574013	0
0	564	114.099747550956	1
0	565	114.122379857829	0
0	588	118.577679472365	1
0	589	118.76981059044	0
0	606	120.129629499432	1
0	608	120.412838956823	2
0	611	122.103259064592	1
0	616	122.10694881501	0
0	656	125.880088717241	1
0	661	127.699208813141	2
0	662	128.07220944774	1
0	669	129.11358489154	0
0	676	130.634606347999	1
0	679	131.158373379647	0
0	685	131.527815272037	1
0	687	133.224684815348	2
0	689	133.667830851313	3
0	691	133.761895226895	4
0	695	134.683597107213	5
0	696	134.860048565472	4
0	703	135.722065284248	3
0	711	137.617688310688	4
0	713	137.926111151402	5
0	715	139.082030668208	6
0	717	140.350885036078	7
0	719	141.187914646252	8
0	721	141.393711202585	9
0	723	142.212692677923	10
0	725	142.739212837315	11
0	730	145.911126133942	10
0	736	146.970809473859	11
0	737	147.58102267767	10
0	741	147.589875124782	11
0	743	147.815704316182	12
0	746	149.051580331184	11
0	750	149.300222127478	12
0	753	150.294979228591	11
0	757	150.537484943352	12
0	760	150.767851632582	11
0	766	152.696398529657	12
0	769	154.23291008685	11
0	776	155.712483985986	12
0	777	155.975778923778	11
0	785	157.351722157422	12
0	787	159.051129675999	11
0	793	159.450566140828	12
0	797	160.427220456433	13
0	798	160.651065651228	12
0	802	160.714820800663	13
0	804	162.943925700222	14
0	806	163.558105961925	15
0	815	169.207142622285	14
0	821	169.573903381611	15
0	822	170.139567088057	14
0	826	170.47536637405	15
0	830	171.813613951421	14
0	836	172.323184973868	15
0	839	174.516071301417	14
0	843	175.206552469515	15
0	846	176.392351484223	14
0	851	178.653521936062	13
0	855	178.838422412654	14
0	863	180.540090828465	15
0	864	181.174421714791	14
0	869	182.225995453401	13
0	873	182.715550639612	14
0	877	183.05307004085	15
0	878	183.786655924419	14
0	889	187.657552901304	15
0	890	188.254157587732	14
0	900	190.83137303616	15
0	901	191.01072571541	14
0	908	191.574644794146	15
0	912	193.453612538925	16
0	913	193.480436328408	15
0	918	195.179497965325	14
0	923	195.337484232687	13
0	935	197.338154808554	12
0	941	197.343088789395	13
0	942	197.661196355095	12
0	947	197.855161678995	11
0	952	198.236582757716	10
0	959	198.769428883691	11
0	960	199.196729170233	10
0	966	199.926909520868	11
0	968	200.357161658937	10
0	973	200.64852559345	9
0	979	202.3894021467	8
0	984	202.542381411128	7
0	988	203.115519330383	8
0	990	204.007121883804	9
0	993	204.296916216527	8
0	997	204.68539559708	9
0	1001	205.496273833366	10
0	1002	205.689700130943	9
0	1008	206.691968886096	10
0	1011	208.996626372151	9
0	1015	209.250115873511	10
0	1017	209.326432836954	11
0	1019	209.495500559093	12
0	1022	210.000693050969	11
0	1028	210.663277758413	12
0	1030	210.835940085156	13
0	1033	211.24234428203	12
0	1037	211.859585759588	13
0	1040	213.502427069066	12
0	1045	214.248867559071	11
0	1050	215.804706908085	10
0	1054	216.243757698489	11
0	1060	217.750826741732	12
0	1062	217.95582790786	13
0	1063	219.265291736525	12
0	1067	219.728339289345	13
0	1069	220.392112819956	14
0	1071	221.16334085193	15
0	1075	223.018032761116	16
0	1078	223.165517296139	15
0	1085	224.4708872687	14
0	1091	225.085619049385	15
0	1093	225.622364398382	14
0	1099	225.798233743708	13
0	1104	225.966629278909	12
0	1109	226.317493350457	11
0	1113	226.44496259656	12
0	1117	227.646369313705	11
0	1123	228.170255523039	12
0	1125	228.417015527874	13
0	1126	228.484109475407	12
0	1130	228.665795399152	13
0	1133	230.137583568588	12
0	1143	232.021336972509	13
0	1146	233.262982662461	12
0	1155	235.707020264189	11
0	1163	236.004026436622	12
0	1164	236.294935461046	11
0	1169	236.410134969709	10
0	1174	237.425016306827	9
0	1182	238.533769768826	10
0	1188	240.94947872241	9
0	1193	241.478101596478	8
0	1197	241.99094134271	9
0	1199	242.047435057167	10
0	1201	242.127452834042	11
0	1205	242.830159690814	12
0	1207	243.183925564716	13
0	1208	244.235483352996	12
0	1212	244.732392897386	13
0	1214	245.048150898576	14
0	1219	246.696799931889	13
0	1230	247.501223051576	14
0	1232	247.952407634459	15
0	1233	248.029453133085	14
0	1238	248.055481179555	13
0	1245	249.625808407732	12
0	1249	250.250348230532	13
0	1251	250.89950287661	14
0	1254	251.827940458849	13
0	1264	256.738461590917	14
0	1266	256.742999798079	15
0	1267	257.277979594591	14
0	1273	257.884158383228	13
0	1278	258.399023600545	12
0	1283	259.043298766859	11
0	1289	262.26595768624	12
0	1295	265.754794659133	13
0	1297	266.358884474663	14
0	1300	266.572625718949	13
0	1305	266.890875032508	12
0	1310	269.832657522125	11
0	1318	270.578642486039	12
0	1320	270.667851756255	13
0	1321	270.707765988717	12
0	1325	271.590265704287	13
0	1330	273.514076355856	12
0	1335	274.284920537875	11
0	1343	276.383936958381	12
0	1346	277.257195012297	11
0	1350	277.288919910105	12
0	1354	278.095924664159	13
0	1356	278.261433151163	14
0	1358	278.685326195704	13
0	1364	279.553848535228	14
0	1365	279.612957402876	13
0	1370	281.426254317308	12
0	1375	282.435271730819	11
0	1381	283.253758361982	12
0	1382	283.742092681045	11
0	1386	284.184611172472	12
0	1388	286.106387872749	13
0	1393	289.451550730952	12
0	1398	290.600944286321	11
0	1405	292.948909747818	10
0	1412	293.801695992127	9
0	1418	295.041632956833	10
0	1419	295.129056868303	9
0	1425	296.531827515731	8
0	1430	296.552440198061	7
0	1435	298.414707702041	6
0	1442	299.10706866081	5
0	1446	299.77631561462	6
0	1451	300.466189191646	5
0	1455	300.74930678717	6
0	1457	302.363834274932	7
0	1459	303.151904884518	8
0	1462	303.760456776684	7
0	1470	307.004417227348	8
0	1474	307.345896348253	9
0	1475	307.607547323448	8
0	1480	309.975051717135	7
0	1485	310.235362563171	6
0	1492	311.889230077154	5
0	1497	312.023671451115	4
0	1503	312.098089593362	5
0	1504	312.465122025793	4
0	1509	315.332765624043	3
0	1513	315.873849630878	4
0	1520	317.557367477575	5
0	1522	317.58433281921	6
0	1524	317.588583034739	7
0	1525	318.25022127032	6
0	1530	318.253887546739	5
0	1535	319.890567871781	4
0	1540	320.974349534232	3
0	1544	320.993048462773	4
0	1546	321.419569442358	5
0	1550	322.321497849155	4
0	1556	322.43093642896	5
0	1558	322.521761848483	6
0	1560	322.780476809787	7
0	1561	322.875549250936	6
0	1565	323.559402880656	7
0	1568	324.635893834683	6
0	1572	325.094108827409	7
0	1575	326.48854686966	6
0	1583	327.021915116318	7
0	1584	327.126796037428	6
0	1589	328.409650922241	5
0	1594	328.931101772406	4
0	1598	329.277404532349	5
0	1600	329.882000923211	6
0	1602	330.460034905967	7
0	1606	332.057287604366	8
0	1607	332.128095139287	7
0	1614	333.944886297352	6
0	1620	334.087290864389	7
0	1623	334.402888024954	6
0	1629	334.427442691372	7
0	1631	335.087190680154	6
0	1636	335.265666903171	5
0	1641	336.03081899732	4
0	1645	336.712282763896	5
0	1651	338.044991254929	6
0	1653	338.081675759811	7
0	1654	341.693897809031	6
0	1659	343.451149501833	5
0	1666	344.160848771915	4
0	1671	345.7409236848	3
0	1675	346.481494386933	4
0	1677	347.831334361208	5
0	1679	347.90509609765	6
0	1682	348.96608262565	5
0	1686	348.988717856281	6
0	1690	350.341131455637	7
0	1691	350.418414580432	6
0	1698	350.859806129644	7
0	1699	351.742471286217	6
0	1704	351.924555528685	5
0	1708	352.408073715151	6
0	1712	353.288521588254	7
0	1713	353.373529098248	6
0	1719	354.009120023628	5
0	1724	354.808389343878	4
0	1729	355.832646097101	3
0	1734	356.682289235344	2
0	1738	357.029283330754	3
0	1740	357.091700809302	4
0	1744	359.610753513329	5
0	1750	360.377048578612	6
0	1752	363.015911523375	7
0	1759	364.101695697616	6
0	1768	365.533310206433	5
0	1773	366.060901336075	4
0	1779	366.759090364841	5
0	1781	366.786751733649	6
0	1782	367.650648817364	5
0	1789	368.439796370959	4
0	1795	371.44796960002	5
0	1796	371.461871197859	4
0	1801	372.074105220794	3
0	1808	373.774468783024	4
0	1809	374.069239352144	3
0	1814	374.071106731707	2
0	1818	374.675226624851	3
0	1822	374.754201840963	4
0	1824	374.962340146031	5
0	1827	375.154749133083	4
0	1831	375.809360590749	5
0	1833	376.341861467749	6
0	1838	378.580071801153	7
0	1840	379.333699513187	8
0	1841	380.702521808844	7
0	1847	380.78331796352	8
0	1850	381.6333748562	7
0	1854	381.947598279631	8
0	1857	381.995855326727	7
0	1863	383.414496295942	8
0	1865	385.246619620553	9
0	1870	386.264005501026	8
0	1875	388.431158224681	7
0	1879	389.760737738641	8
0	1881	389.823046796311	9
0	1884	390.49525851763	8
0	1893	391.308518779727	7
0	1898	393.530660867413	6
0	1903	394.047604022165	5
0	1908	394.936726508645	4
0	1918	398.902908689155	3
0	1923	399.185248472548	2
0	1927	399.446516316111	3
0	1932	400.598620462028	4
0	1933	400.727419934834	3
0	1939	401.051449824444	4
0	1943	402.325165625707	5
0	1945	402.753352679233	6
0	1948	403.205010808504	5
0	1952	403.402742448109	6
0	1957	405.41897408647	5
0	1963	405.744735631063	6
0	1967	405.89367257012	7
0	1973	407.352803437556	6
0	1980	408.538564184704	5
0	1985	409.022019739465	4
0	1992	409.38550947897	3
0	1997	409.426502927397	2
0	2002	410.162605995457	1
0	2008	411.709091981177	0
0	2044	416.562970063402	1
0	2047	418.779085645747	2
0	2049	418.792480267177	3
0	2050	418.849229557369	2
0	2059	419.852554569276	1
0	2064	419.854735699449	0
0	2076	420.501066221299	1
0	2077	420.528517387595	0
0	2081	420.930065056239	1
0	2083	421.005959322192	2
0	2086	423.631785445894	1
0	2091	424.100985169552	0
0	2112	427.476200908931	1
0	2115	428.76409301162	0
0	2133	429.454852148287	1
0	2137	430.286702081518	2
0	2138	430.571413450986	1
0	2145	430.957661561437	0
0	2169	433.737303084362	1
0	2171	434.519943215954	0
0	2177	434.583581067627	1
0	2178	434.849329874028	0
0	2203	437.27847978464	1
0	2204	438.36449841084	0
0	2210	438.938319547137	1
0	2212	439.149176426501	2
0	2213	440.291542464998	1
0	2218	442.776790957961	0
0	2228	445.208636571074	1
0	2231	445.504782663876	0
0	2253	450.991722777256	1
0	2258	452.187495117571	0
0	2277	454.450718606878	1
0	2281	455.830830474048	0
0	2319	462.277912727349	1
0	2322	465.466084830308	0
0	2341	470.773952103732	1
0	2344	471.111170618827	2
0	2345	471.513043874919	1
0	2351	471.929553369889	0
0	2359	472.423504946527	1
0	2361	472.942410284972	0
0	2367	473.158765065232	1
0	2368	473.495311084815	0
0	2382	475.056078273035	1
0	2383	475.419212636706	0
0	2407	476.655089117071	1
0	2408	476.974092672182	0
0	2415	477.4082374659	1
0	2419	477.699025179951	2
0	2421	477.980921377961	1
0	2428	478.557734671287	0
0	2442	480.903954938967	1
0	2444	481.779807820368	2
0	2447	483.956576680668	3
0	2449	484.157574743541	4
0	2451	484.316375501087	5
0	2452	485.113632455899	4
0	2458	485.162214747529	5
0	2463	486.124861941258	6
0	2464	486.368203335661	5
0	2470	486.664038287099	6
0	2471	487.197637384905	5
0	2476	487.419812786531	4
0	2482	487.443627322848	5
0	2483	487.512053852484	4
0	2488	487.520368543957	3
0	2492	488.897529411552	4
0	2498	490.104108790011	3
0	2504	490.385965166853	4
0	2506	490.593203171562	3
0	2514	492.270027436305	2
0	2519	492.789911419666	1
0	2524	494.287751278629	0
0	2538	496.439262127031	1
0	2540	496.547879575482	2
0	2542	496.576288618857	3
0	2544	497.059436733821	4
0	2545	498.350243513073	3
0	2551	499.154094370405	4
0	2552	499.284053041259	3
0	2557	501.330865262037	2
0	2561	502.319399590463	3
0	2563	502.641132372561	4
0	2567	503.22122751069	3
0	2572	503.280959355712	2
0	2580	505.864838041137	1
0	2586	507.335298090148	2
0	2588	509.079753754388	3
0	2589	510.591547269781	2
0	2593	510.73699460472	3
0	2595	511.234829936813	4
0	2597	512.153093135714	5
0	2601	513.216005019605	6
0	2602	513.396291916851	5
0	2606	513.914937800785	6
0	2608	513.98066733915	7
0	2612	516.683978874536	6
0	2617	516.849512133393	5
0	2622	517.943763827459	4
0	2626	518.502200234322	5
0	2629	519.202004241799	4
0	2635	520.269536771566	3
0	2641	520.489840319826	4
0	2642	520.511934326818	3
0	2647	521.342188918691	2
0	2652	522.598325495277	1
0	2658	523.49973187441	2
0	2662	526.110089486316	3
0	2663	526.118816659637	2
0	2669	526.189185123402	3
0	2671	526.298754976803	4
0	2673	526.620989071991	5
0	2675	528.616196705715	6
0	2676	529.160988357671	5
0	2683	531.910821051819	4
0	2690	532.268468562431	5
0	2691	532.400565841101	4
0	2698	533.277073425702	3
0	2703	533.583092972363	2
0	2708	534.182443591923	1
0	2714	537.148674060964	2
0	2717	540.069097981835	1
0	2724	542.033320054382	2
0	2726	542.304862654779	1
0	2732	542.703835505776	2
0	2733	542.977914705681	1
0	2738	543.276868169021	0
0	2742	544.423423288257	1
0	2744	544.478755833074	2
0	2746	544.533198033109	3
0	2750	545.685307079089	4
0	2752	545.728796036774	5
0	2753	546.778245919077	4
0	2760	547.415226971502	3
0	2764	548.732326043215	4
0	2766	548.738201684856	5
0	2769	549.690196089705	4
0	2773	549.758501616662	5
0	2775	551.115866878148	6
0	2777	552.516605588208	7
0	2780	553.497500821914	6
0	2785	553.729997950504	5
0	2791	556.801398178271	6
0	2793	557.855232599656	7
0	2803	559.84272886569	8
0	2804	560.300719646438	7
0	2810	560.50250245723	8
0	2812	560.784319708392	7
0	2819	561.692728005898	6
0	2826	562.888047113649	5
0	2831	562.996024011526	4
0	2837	563.147539224773	5
0	2838	563.153637260079	4
0	2843	564.14482586493	3
0	2848	564.254113866164	2
0	2855	564.821258143562	1
0	2859	564.977962456779	2
0	2865	565.588418073234	1
0	2870	565.649587033888	0
0	2897	569.281730414603	1
0	2898	569.707952826028	0
0	2904	570.133937515633	1
0	2905	570.158892981608	0
0	2917	571.994184287783	1
0	2919	572.161165040694	2
0	2920	572.233439784227	1
0	2924	572.259909569336	2
0	2926	572.278474044519	3
0	2933	574.12073131072	2
0	2940	574.341503862779	1
0	2945	574.538316299549	0
0	2983	583.767944402878	1
0	2985	584.010879857315	2
0	2991	586.76173791642	1
0	2996	587.517306218048	0
0	3017	589.617587551551	1
0	3019	590.042696765379	2
0	3023	591.351870214073	3
0	3031	593.723149865083	4
0	3035	595.419716243431	5
0	3036	595.929188749628	4
0	3042	596.646921391808	3
0	3048	597.164796354104	2
0	3053	597.578393693168	1
0	3058	598.229968567424	0
0	3069	598.898016323117	1
0	3070	599.070424039216	0
0	3091	600.109814051556	1
0	3094	600.355979137431	0
0	3112	603.103671590517	1
0	3114	603.475460437313	2
0	3115	603.557341939236	1
0	3120	605.365865187834	0
0	3124	605.505384549734	1
0	3127	606.686364840554	0
0	3131	606.813993416182	1
0	3139	609.152316469149	0
0	3160	611.311541672892	1
0	3162	611.80999472303	2
0	3165	612.298234036727	1
0	3170	612.471056967781	0
0	3198	615.291985685356	1
0	3203	617.255467423159	0
0	3223	619.590939382485	1
0	3224	620.117300484116	0
0	3231	620.566795887308	1
0	3233	621.892218582499	0
0	3245	622.919690603682	1
0	3251	624.693683594179	2
0	3254	625.426026811161	1
0	3259	625.836366070179	0
0	3286	630.291493876791	1
0	3288	630.428399370446	2
0	3290	631.531058574824	3
0	3292	631.555916507254	4
0	3293	632.450239079005	3
0	3299	632.678072498148	4
0	3300	632.825940654828	3
0	3306	632.996365817304	4
0	3307	633.013567726681	3
0	3312	633.136642464792	2
0	3318	633.883918001128	1
0	3324	634.198672159014	2
0	3325	634.319485111559	1
0	3331	635.083282044977	2
0	3333	635.581719402328	3
0	3335	636.846665815206	4
0	3337	637.420053036824	5
0	3338	637.694037688438	4
0	3342	637.768917738968	5
0	3347	640.184795745584	4
0	3354	640.930108021568	3
0	3359	641.653248382191	2
0	3365	642.251794939799	3
0	3366	642.557337699661	2
0	3370	642.761708414207	3
0	3373	642.90086019178	2
0	3380	644.144245528752	1
0	3386	646.447988803827	0
0	3392	647.10265424021	1
0	3393	647.682072577005	0
0	3406	650.402186537796	1
0	3407	650.425110081778	0
0	3413	651.836555770172	1
0	3416	653.516043361621	0
0	3422	654.320881908708	1
0	3424	654.996329460525	2
0	3427	656.390032387177	1
0	3432	657.009943205936	0
0	3436	657.925883489232	1
0	3438	657.954160491518	2
0	3440	658.542199236301	3
0	3447	660.167518164126	2
0	3453	662.68938090164	1
0	3457	663.092452831869	2
0	3460	666.809462530427	1
0	3465	667.671233877242	0
0	3471	668.49259377324	1
0	3473	668.688769489829	2
0	3478	669.767613168702	1
0	3483	670.203174286258	0
0	3514	675.25474660782	1
0	3516	676.458344248589	2
0	3522	678.474273774113	3
0	3523	679.394484930006	2
0	3530	680.100787846007	1
0	3535	680.249308752006	0
0	3553	681.801703347312	1
0	3556	682.336897716346	2
0	3557	682.490444367794	1
0	3564	682.676834666958	2
0	3567	683.426392921634	3
0	3570	684.939580018921	2
0	3577	686.762274965509	1
0	3582	687.213436364547	0
0	3598	691.148178184612	1
0	3600	692.536537825798	2
0	3602	692.677140657088	3
0	3604	692.736567487913	4
0	3606	693.482541437564	5
0	3607	693.906493312047	4
0	3615	695.08308973268	5
0	3616	696.196457044516	4
0	3620	697.60036412203	5
0	3622	697.612035755614	6
0	3626	698.889950574921	5
0	3631	698.906211318615	4
0	3637	700.295945394933	5
0	3639	701.323257491431	6
0	3641	702.326047333897	7
0	3642	702.482485718175	6
0	3648	704.231369612566	7
0	3650	704.357955222166	8
0	3651	704.886237922736	7
0	3656	704.889031821202	6
0	3661	706.122290574771	5
0	3665	706.908076227684	6
0	3668	708.681601154798	5
0	3672	709.322450971738	6
0	3675	710.29158829339	5
0	3679	710.474200234254	6
0	3682	711.093391498512	5
0	3689	711.562223945507	4
0	3693	715.446100158671	5
0	3703	717.602356301116	4
0	3709	717.793527716732	3
0	3716	719.115069145671	2
0	3721	719.186690969091	1
0	3727	719.987533088672	2
0	3728	720.245998981464	1
0	3734	721.934825869508	0
0	3740	722.639808037243	1
0	3741	722.692245593049	0
0	3782	726.89355325442	1
0	3784	727.01779843293	2
0	3785	727.204329354458	1
0	3794	728.08152175515	0
0	3811	730.388070947427	1
0	3813	731.16003769713	0
0	3824	732.442126108532	1
0	3830	733.217482375411	2
0	3831	733.297591681575	1
0	3837	733.462735554717	0
0	3862	736.055323765472	1
0	3865	736.99050138471	0
0	3871	738.132417178422	1
0	3873	738.302343719001	0
0	3915	748.005858466447	1
0	3921	749.203877320363	2
0	3922	749.505529778056	1
0	3932	750.665480200415	0
0	3951	753.793430773143	1
0	3952	754.037004751515	0
0	3961	754.639592795115	1
0	3963	754.723569020812	2
0	3966	755.531338005246	1
0	3971	755.831894968011	0
0	3999	759.453860835044	1
0	4002	760.851125748642	2
0	4003	761.161413200984	1
0	4013	762.061576571986	2
0	4014	762.296614479366	1
0	4022	763.842815579204	2
0	4024	764.117928991762	3
0	4027	765.71554521158	2
0	4033	765.761584761632	3
0	4034	766.092618290668	2
0	4039	766.224584874561	1
0	4048	767.399827151835	2
0	4049	767.423170728407	1
0	4054	767.542115028773	0
0	4058	768.294337314647	1
0	4063	769.740496785243	0
0	4070	770.080892881454	1
0	4075	770.533782409606	0
0	4081	770.959828970244	1
0	4083	771.082009598426	2
0	4089	772.600275309293	1
0	4095	772.652378730688	2
0	4096	774.502299747752	1
0	4101	774.77570516745	0
0	4107	776.939390099949	1
0	4112	777.548554487964	0
0	4116	778.294151724817	1
0	4121	779.44407736085	0
0	4135	782.280643759448	1
0	4137	782.447473863764	2
0	4139	782.471748148401	3
0	4141	784.256693057032	2
0	4147	784.292231553894	3
0	4148	784.500387722481	2
0	4156	786.019137433996	3
0	4157	786.923514922598	2
0	4163	787.145434737582	3
0	4166	787.911705246268	2
0	4172	788.698316582881	3
0	4173	788.783934229298	2
0	4178	790.876993863698	1
0	4184	791.529034995129	2
0	4186	792.029129972642	1
0	4191	792.209722381603	0
0	4195	792.648789053696	1
0	4200	792.942729901961	0
0	4241	794.840330362668	1
0	4242	795.121677203556	0
0	4249	795.615598533131	1
0	4250	795.6300963366	0
0	4256	796.612980235414	1
0	4258	796.875923634049	2
0	4265	798.780414532582	1
0	4269	799.947224222103	2
0	4271	799.975197943479	3
0	4277	801.179428809072	2
0	4281	802.794032134829	3
0	4286	804.864099798462	2
0	4292	804.996889960088	3
0	4293	805.591227171386	2
0	4298	805.628734155401	1
0	4304	806.093048021946	2
0	4305	806.86143603669	1
0	4314	808.993564253375	0
0	4321	809.608434975698	1
0	4323	809.781238900505	0
0	4334	809.955914235402	1
0	4335	809.970170963393	0
0	4361	812.257181398953	1
0	4363	812.573291947442	2
0	4365	813.269829137471	3
0	4371	815.707962753673	4
0	4373	815.749725135074	5
0	4376	816.412086170773	4
0	4381	816.650565524997	3
0	4385	816.680700421121	4
0	4387	818.154730333783	5
0	4391	818.824544012657	6
0	4392	818.936162207465	5
0	4396	820.314359572518	6
0	4398	820.447522588812	7
0	4401	820.607138309409	6
0	4405	821.054038324909	7
0	4409	822.501900472237	8
0	4413	823.87601532528	9
0	4414	823.995594996099	8
0	4418	824.46223068284	9
0	4420	825.012493630747	10
0	4426	825.769394635163	11
0	4427	826.271762908705	10
0	4433	827.083099727588	11
0	4434	827.316892003763	10
0	4438	827.905407389386	11
0	4443	829.493147921637	10
0	4449	830.076354751481	11
0	4452	831.166895235286	10
0	4459	832.504124858435	9
0	4465	834.144890689009	10
0	4467	834.202084374152	11
0	4469	834.77306503739	12
0	4471	835.309360751643	13
0	4473	835.410176694598	14
0	4475	835.671757468456	15
0	4482	838.364756300563	16
0	4483	839.839539428619	15
0	4488	840.952969692197	14
0	4492	841.430644854438	15
0	4494	841.497716208196	16
0	4496	841.582260633005	17
0	4499	842.746603931618	16
0	4503	842.873952804801	17
0	4505	843.738549949674	18
0	4507	843.746522650821	19
0	4516	846.39032125702	18
0	4522	847.090584938795	17
0	4528	848.08991958787	18
0	4529	848.235201918567	17
0	4537	849.075540225941	18
0	4540	849.203221518275	17
0	4547	849.682914127831	16
0	4552	849.722956979697	15
0	4562	850.918501579983	16
0	4566	855.233856553209	17
0	4570	856.359745384769	18
0	4572	856.588680793372	19
0	4574	856.906472308889	18
0	4582	858.55291753146	19
0	4583	859.204516503841	18
0	4587	859.885133927534	19
0	4589	860.230888215665	20
0	4591	860.247913385981	21
0	4593	860.872413671737	22
0	4595	860.982010935576	23
0	4598	861.554342088433	22
0	4603	862.856068177613	21
0	4609	862.991356961502	22
0	4611	863.314578030555	23
0	4612	863.761715004335	22
0	4618	865.094336869589	23
0	4619	866.463388397344	22
0	4625	866.792974123352	23
0	4628	867.256312268156	22
0	4632	868.660915507109	23
0	4637	869.375789091755	22
0	4649	871.40574073592	23
0	4650	871.725590136483	22
0	4654	872.171187428017	23
0	4657	872.649982272428	22
0	4664	876.613042663225	21
0	4670	876.773860400746	22
0	4671	876.872824369572	21
0	4680	879.201843535471	22
0	4682	879.925230131957	23
0	4686	880.646537857666	24
0	4688	882.005374356646	25
0	4690	882.113209844969	26
0	4692	882.181785196147	27
0	4693	882.69051539121	26
0	4698	882.995447188276	25
0	4702	883.010531852391	26
0	4704	883.594794349954	27
0	4708	885.908931493657	28
0	4709	886.755343058988	27
0	4715	887.529091267366	28
0	4717	887.68583926232	29
0	4719	888.031123236579	30
0	4720	888.042138402198	29
0	4724	888.255643145041	30
0	4728	890.233414210359	29
0	4733	890.241745317723	28
0	4739	891.526277640871	29
0	4743	892.812424584746	28
0	4748	892.826069355848	27
0	4753	893.401508861831	26
0	4758	893.446327356718	25
0	4762	893.464983355505	26
0	4764	893.599389444858	27
0	4769	894.349222133886	28
0	4770	894.447984260761	27
0	4776	894.751003148066	28
0	4777	895.827604793947	27
0	4782	897.263644332838	26
0	4786	898.39406521952	27
0	4788	899.029227420215	28
0	4793	899.725543854613	27
0	4802	902.843131375908	26
0	4806	903.047148403133	27
0	4808	904.447836027323	28
0	4811	904.651432542683	27
0	4815	905.08176043787	28
0	4820	906.057862252251	27
0	4825	906.381311589294	26
0	4831	906.547277370331	27
0	4832	906.650437237923	26
0	4837	909.076320076963	25
0	4842	909.611210193742	24
0	4848	910.954587170725	25
0	4850	911.031216362306	26
0	4853	912.25655734051	25
0	4859	912.753326137073	24
0	4864	912.837712459614	23
0	4869	913.734045331057	22
0	4874	914.650905771417	21
0	4883	916.419569481004	22
0	4885	916.738872550861	23
0	4886	916.869011386036	22
0	4891	917.02100354713	21
0	4897	917.575555492508	20
0	4905	917.823367924901	21
0	4908	919.570957681234	20
0	4913	921.25913499293	19
0	4918	922.018045170075	18
0	4922	922.485162181924	19
0	4924	922.79569737939	20
0	4927	923.336667449621	19
0	4931	923.53734788037	20
0	4933	924.162712500635	21
0	4935	924.298094107777	22
0	4937	924.70110506261	23
0	4942	925.601204764709	22
0	4951	926.917512119435	21
0	4957	928.816299853336	22
0	4959	928.988435209639	23
0	4960	929.4859868931	22
0	4965	931.364662952617	21
0	4970	932.519474844217	20
0	4978	935.848354179883	19
0	4983	936.696485432687	18
0	4988	937.350634137558	17
0	4999	938.037535932259	16
0	5006	938.97318934477	17
0	5007	939.006603926438	16
0	5013	939.559331102237	17
0	5017	941.348043819627	18
0	5018	941.517685406718	17
0	5024	941.756596728237	18
0	5026	941.760223147505	19
0	5027	941.837455489456	18
0	5032	943.424459413366	17
0	5037	946.07883101809	16
0	5041	946.432501442272	17
0	5043	946.462386943467	18
0	5048	947.69690347813	19
0	5050	947.707702660056	20
0	5052	948.484842612146	21
0	5054	948.630996175071	22
0	5056	949.246390418629	21
0	5062	949.464780675889	20
0	5067	949.572444647942	19
0	5074	951.181272194553	18
0	5079	951.930876283938	17
0	5083	952.526158697354	18
0	5085	954.46902307496	19
0	5087	954.796399352906	20
0	5090	955.164862885173	19
0	5095	955.799715170179	18
0	5100	955.845612093761	17
0	5106	957.634219663395	16
0	5113	958.655438192575	15
0	5117	958.806949019177	16
0	5122	959.423301599231	15
0	5127	960.173167969983	14
0	5131	960.457259234319	15
0	5133	960.702061080347	16
0	5137	960.846997988903	15
0	5142	960.928844871118	14
0	5147	963.176130451671	13
0	5155	963.540496855774	14
0	5157	963.816911850985	15
0	5158	963.929807604311	14
0	5163	965.013232075166	13
0	5168	966.301836182241	12
0	5173	967.678769177026	11
0	5177	968.999811625786	12
0	5182	969.345298365394	11
0	5187	969.591909680929	10
0	5192	969.83994018852	9
0	5196	969.856612963104	10
0	5200	973.081527525004	11
0	5202	973.419405712687	12
0	5204	974.012873404138	13
0	5205	974.31202045685	12
0	5209	975.643663810654	13
0	5213	976.661648268799	12
0	5219	977.618529070415	13
0	5222	979.041253574621	14
0	5226	979.693640349454	15
0	5228	980.020292156491	14
0	5234	980.689280358133	13
0	5241	981.206463804189	12
0	5247	982.084248098878	13
0	5248	982.830774118869	12
0	5258	984.245577898657	13
0	5261	986.349189554518	12
0	5266	986.640718945238	11
0	5270	986.834787486655	12
0	5274	987.434806271206	13
0	5275	987.441916242226	12
0	5279	987.583966803571	13
0	5283	987.793552288052	14
0	5285	988.152101281727	15
0	5287	988.685398030737	14
0	5294	989.089572076248	15
0	5295	989.16752964432	14
0	5301	989.61075023548	13
0	5306	990.237409394455	12
0	5312	991.618549013379	11
0	5317	992.133864228716	10
0	5323	992.965332255948	9
0	5329	993.024679301767	10
0	5330	993.072585529185	9
0	5337	996.48785983991	8
0	5343	997.364411750794	9
0	5344	998.769260748123	8
0	5349	999.021496048747	7
0	5353	999.417952388598	8
0	5357	1001.201535805621	9
0	5359	1003.897100770362	8
0	5365	1004.15023435325	7
0	5370	1004.891640797801	6
0	5376	1007.670796637584	7
0	5380	1009.330046977509	8
0	5382	1009.751391935309	9
0	5384	1010.350863339759	8
0	5391	1011.414389501328	7
0	5398	1013.641077622516	6
0	5403	1014.43107218617	5
0	5408	1016.022432052973	4
0	5412	1016.633134411373	5
0	5414	1017.378471467086	6
0	5418	1018.40372022827	7
0	5424	1020.956605098394	8
0	5426	1021.623010489956	9
0	5429	1024.359893183919	8
0	5435	1024.878772449255	9
0	5436	1025.059333721755	8
0	5443	1026.587955192625	9
0	5444	1027.897149366725	8
0	5449	1029.943531084662	7
0	5455	1031.547694689611	6
0	5461	1032.421347267745	7
0	5463	1032.509429293563	8
0	5464	1032.598593993491	7
0	5469	1033.43276882748	6
0	5476	1035.187791387688	5
0	5481	1036.761096667683	4
0	5486	1037.232133644091	3
0	5491	1037.372513372072	2
0	5496	1037.528631284157	1
0	5503	1038.649628245104	0
0	5507	1039.73442681506	1
0	5512	1042.691316654829	2
0	5513	1043.206864614074	1
0	5518	1043.207588963247	0
0	5522	1043.493767450918	1
0	5529	1045.844751827773	0
0	5540	1046.116144547897	1
0	5541	1046.631726150833	0
0	5545	1046.708115726153	1
0	5547	1047.382075822441	2
0	5549	1048.261271668424	3
0	5551	1048.616988547214	4
0	5555	1050.474668684732	5
0	5557	1051.10897759	4
0	5563	1052.335854672275	5
0	5565	1052.819617755882	6
0	5567	1052.964074310256	7
0	5570	1055.814058770351	6
0	5574	1055.927563642976	7
0	5577	1057.266352964897	6
0	5581	1059.083561261946	7
0	5583	1059.169761589899	8
0	5585	1060.55671747639	9
0	5588	1060.870528192461	8
0	5595	1061.641358234068	7
0	5600	1063.402047006332	6
0	5607	1064.31168603858	7
0	5610	1064.793553973612	8
0	5612	1065.031903629126	9
0	5616	1065.535877328885	8
0	5622	1065.553879130811	9
0	5624	1065.920758144521	10
0	5625	1066.549649536655	9
0	5630	1067.445793256285	8
0	5635	1067.944788835768	7
0	5639	1068.09379900317	8
0	5644	1070.473553802241	9
0	5646	1070.992966970726	8
0	5651	1071.026662379853	7
0	5656	1071.262239454239	6
0	5660	1071.346557118033	7
0	5664	1073.376299461607	8
0	5667	1075.441774317936	7
0	5673	1077.429341932361	8
0	5675	1077.649318833674	9
0	5679	1078.589304290395	10
0	5681	1078.871607426761	11
0	5682	1079.248385555632	10
0	5686	1079.854668140085	11
0	5690	1081.339014130456	10
0	5697	1082.242283115322	11
0	5700	1082.942719025697	10
0	5705	1083.06758267609	9
0	5710	1083.947064407548	8
0	5715	1084.806093639057	7
0	5719	1085.448165218983	8
0	5722	1086.02618293715	7
0	5728	1086.848386652382	8
0	5730	1087.420462370897	9
0	5733	1090.375201840837	8
0	5740	1092.283370723747	7
0	5747	1095.393179388916	6
0	5753	1095.627383914564	7
0	5754	1095.667997022689	6
0	5760	1096.955144157455	5
0	5765	1096.987948260065	4
0	5770	1097.529891796223	3
0	5779	1098.686152225837	2
0	5783	1100.146190457917	3
0	5785	1100.397588482068	4
0	5792	1102.548069237816	3
0	5805	1104.301780875642	2
0	5810	1105.046525126342	1
0	5816	1105.207906452208	2
0	5818	1105.473445620221	3
0	5819	1106.176898040464	2
0	5824	1107.744287335211	1
0	5829	1109.704665664982	0
0	5876	1118.426155791513	1
0	5878	1118.438095325129	2
0	5883	1120.165435267104	1
0	5888	1120.451429761137	0
0	5904	1123.239132748393	1
0	5908	1124.878690200593	2
0	5912	1125.953941388702	3
0	5913	1126.064298207631	2
0	5918	1126.108176537234	1
0	5924	1127.134358765542	2
0	5925	1127.155694437555	1
0	5930	1127.167127730869	0
0	5936	1127.319284360413	1
0	5937	1127.526978440408	0
0	5952	1129.573899149732	1
0	5953	1129.949451407725	0
0	5957	1130.02087917498	1
0	5959	1130.95902699543	2
0	5965	1135.189332755102	3
0	5969	1138.029441712172	4
0	5972	1138.555090386789	3
0	5977	1138.974685972872	2
0	5982	1139.658062873701	1
0	5991	1140.32391608886	2
0	5993	1140.789182678759	1
0	5998	1140.814045873229	0
0	6004	1142.706314050399	1
0	6007	1143.165717823408	0
0	6011	1143.666711566796	1
0	6015	1144.285871443745	2
0	6017	1144.529704070066	3
0	6020	1145.098271600372	2
0	6026	1145.768091645339	3
0	6032	1148.944297613115	4
0	6034	1148.946930411163	5
0	6035	1148.962209261126	4
0	6041	1149.806924780783	5
0	6043	1150.493295474712	6
0	6046	1151.74523730662	5
0	6055	1153.569845808795	4
0	6062	1154.385584433858	5
0	6063	1154.50159016348	4
0	6067	1154.720277559508	5
0	6073	1155.31136092784	4
0	6079	1155.511590917575	5
0	6080	1156.060361659304	4
0	6084	1156.547642348959	5
0	6086	1157.005731369081	6
0	6088	1157.811752170707	7
0	6090	1158.424338865168	8
0	6092	1158.864643468781	9
0	6096	1159.406391197996	10
0	6098	1159.771057071561	11
0	6099	1161.476760011835	10
0	6105	1162.001215055486	11
0	6107	1162.052855850009	12
0	6108	1163.119594803912	11
0	6116	1165.623560154345	12
0	6117	1165.653609295061	11
0	6121	1166.246477210048	12
0	6126	1167.372223716483	11
0	6132	1167.430823516167	12
0	6134	1169.187513868152	11
0	6140	1169.207430195321	12
0	6145	1170.569956676821	11
0	6158	1171.295790583558	12
0	6160	1172.011821683037	13
0	6161	1174.191843774857	12
0	6169	1177.500076791329	11
0	6175	1177.978239936728	12
0	6176	1178.092627890117	11
0	6181	1178.17293010825	10
0	6187	1178.262735731163	11
0	6189	1178.496739415083	12
0	6190	1179.221655604565	11
0	6196	1179.457231876908	12
0	6198	1180.361342259923	11
0	6203	1180.439607790523	10
0	6208	1180.474596802639	9
0	6214	1180.955695735819	10
0	6217	1182.059108658992	9
0	6225	1182.886449282752	10
0	6227	1183.041017509623	11
0	6229	1183.100175019413	12
0	6230	1183.638250552104	11
0	6234	1183.64031157899	12
0	6238	1185.384551335007	13
0	6239	1185.54819285107	12
0	6243	1185.936706730084	13
0	6253	1189.121682158848	14
0	6254	1189.281719767382	13
0	6259	1189.295909593054	12
0	6264	1190.401341175608	11
0	6269	1190.935801590362	10
0	6273	1191.556773247036	11
0	6276	1192.375222894744	10
0	6280	1192.479319575542	11
0	6283	1193.260339721177	10
0	6287	1193.759197848262	11
0	6292	1194.992514829846	10
0	6296	1195.038190596813	11
0	6300	1196.351014859633	12
0	6304	1197.420448784914	13
0	6305	1198.184258040353	12
0	6309	1198.833711308236	13
0	6313	1199.662466381937	14
0	6314	1199.808578866553	13
0	6318	1200.323001215881	14
0	6321	1201.31500190577	13
0	6329	1204.333579661748	12
0	6334	1205.377271934085	11
0	6340	1206.051099050425	12
0	6342	1206.137583995347	13
0	6343	1206.250791860531	12
0	6351	1208.585392385748	11
0	6357	1208.788760898375	12
0	6358	1209.159588336556	11
0	6365	1209.947450786612	12
0	6366	1210.352104923801	11
0	6375	1211.031780631085	10
0	6380	1211.090223754827	9
0	6385	1211.83779762149	8
0	6392	1213.284602280146	9
0	6393	1213.418565345086	8
0	6401	1214.042532416241	7
0	6407	1214.910184947791	8
0	6409	1215.237524938279	7
0	6416	1216.550823389779	6
0	6422	1217.010021268142	7
0	6424	1217.327802811598	8
0	6425	1217.633981855945	7
0	6430	1217.676551843718	6
0	6438	1220.718268374931	7
0	6439	1221.604105470196	6
0	6444	1222.597474331874	5
0	6449	1222.684367477122	4
0	6454	1223.467157707647	3
0	6459	1224.009975283776	2
0	6465	1224.634774609448	3
0	6466	1225.206281201704	2
0	6477	1227.53726870234	3
0	6478	1227.695136662887	2
0	6483	1228.792238630958	1
0	6494	1230.540989661939	2
0	6496	1231.209440603754	1
0	6501	1231.878893510201	0
0	6512	1232.533343970997	1
0	6513	1232.892080614635	0
0	6533	1233.598433402853	1
0	6535	1234.409654693921	2
0	6536	1234.527970527002	1
0	6541	1235.065750247549	0
0	6575	1242.009683825758	1
0	6577	1242.471613464519	2
0	6582	1245.39611326479	1
0	6587	1245.589133558702	0
0	6594	1245.939831396332	1
0	6595	1246.135281705579	0
0	6599	1247.15142456593	1
0	6601	1247.168381302096	2
0	6603	1247.484111689445	3
0	6607	1248.421732636131	4
0	6612	1249.573555104532	5
0	6617	1250.307903540838	4
0	6623	1250.961651959818	3
0	6629	1251.290132179414	4
0	6630	1252.196366691584	3
0	6636	1252.240300016036	4
0	6638	1253.596862881578	3
0	6643	1254.16773924525	2
0	6648	1254.35891132185	1
0	6653	1256.001741079797	0
0	6664	1256.977502444277	1
0	6665	1257.529197564969	0
0	6669	1258.171197077181	1
0	6672	1258.346464782279	0
0	6707	1263.675544884221	1
0	6717	1266.21364535829	2
0	6721	1266.434634496944	3
0	6722	1266.601833086404	2
0	6727	1266.942957289549	1
0	6733	1267.091383921663	0
0	6739	1267.552371803018	1
0	6740	1268.147115461595	0
0	6751	1268.67744805741	1
0	6752	1269.106192284174	0
0	6763	1269.151314337629	1
0	6764	1269.165480752596	0
0	6768	1271.043391148004	1
0	6771	1271.447920529296	0
0	6775	1271.895340526727	1
0	6779	1273.066158375919	2
0	6781	1273.391812672938	3
0	6782	1273.808340412118	2
0	6786	1273.81578351231	3
0	6789	1274.225504914323	2
0	6799	1278.852726196914	1
0	6804	1279.111282597629	0
0	6825	1282.061047138016	1
0	6829	1285.796845689165	2
0	6832	1286.028095573977	3
0	6835	1288.811209370474	4
0	6836	1289.130069790853	3
0	6841	1289.224173799641	2
0	6846	1289.417473372182	1
0	6851	1289.725298914265	0
0	6858	1291.207848505974	1
0	6859	1291.360980066995	0
0	6875	1291.566499506063	1
0	6876	1291.64145260842	0
0	6905	1296.233341898861	1
0	6906	1296.541841574691	0
0	6919	1299.502710658336	1
0	6923	1299.689266035938	2
0	6925	1300.021647205028	1
0	6934	1300.492891458553	0
0	6953	1303.635782477437	1
0	6954	1304.319851231174	0
0	6978	1311.121635791256	1
0	6979	1311.764697412036	0
0	6985	1311.993915277605	1
0	6986	1312.547061272757	0
0	7004	1313.504422468334	1
0	7006	1315.343715380399	0
0	7012	1315.586847333225	1
0	7013	1315.934687422751	0
0	7038	1320.673745909484	1
0	7039	1321.284176262643	0
0	7060	1324.1557263713	1
0	7062	1324.644852023284	0
0	7083	1328.714025683117	1
0	7084	1329.243605731352	0
0	7105	1332.195545077128	1
0	7107	1332.335526589723	2
0	7108	1332.515340007664	1
0	7115	1334.276647137631	2
0	7116	1335.25388010953	1
0	7121	1335.375126540787	0
0	7140	1338.27358655332	1
0	7145	1341.013083320778	0
0	7159	1342.628593616321	1
0	7160	1342.777449125933	0
0	7203	1352.280117927151	1
0	7204	1355.529621890386	0
0	7216	1356.542530804001	1
0	7218	1356.703176320699	2
0	7224	1358.158806948323	1
0	7230	1358.526778639588	0
0	7241	1358.99561714355	1
0	7242	1359.132719060707	0
0	7270	1362.58378669836	1
0	7271	1362.951301528171	0
0	7293	1365.041303122232	1
0	7300	1366.838094499969	0
0	7308	1367.532540573935	1
0	7309	1368.197542881834	0
0	7323	1368.61226946176	1
0	7326	1369.607890594014	0
0	7341	1370.255185547919	1
0	7343	1371.685825072456	2
0	7347	1372.284611431118	3
0	7351	1372.680145389734	4
0	7352	1372.800184550366	3
0	7358	1372.917130873902	4
0	7361	1373.115343177533	3
0	7367	1374.099904203311	2
0	7372	1374.103845077128	1
0	7379	1376.854040458043	0
0	7389	1379.548603735963	1
0	7391	1379.92747397526	2
0	7393	1380.829219396819	3
0	7396	1381.766704265557	2
0	7403	1383.383149129548	1
0	7407	1383.486110622674	2
0	7410	1384.736826370961	1
0	7416	1385.545953926965	0
0	7435	1387.405357371345	1
0	7441	1390.561352325691	2
0	7443	1390.905781853031	3
0	7445	1393.009545277524	4
0	7447	1393.552175055722	5
0	7449	1393.811883626186	6
0	7452	1394.126787428615	5
0	7459	1394.294327621392	6
0	7460	1394.400274474814	5
0	7469	1394.929963049964	6
0	7472	1395.562957514029	5
0	7478	1396.142803167915	6
0	7480	1396.872969762269	7
0	7482	1396.929298900227	8
0	7484	1397.37996334494	9
0	7485	1397.615203102223	8
0	7495	1399.543921872571	9
0	7496	1400.952921788095	8
0	7501	1400.970496559691	7
0	7506	1401.361043661647	6
0	7512	1401.536655809646	7
0	7514	1402.27450342946	8
0	7516	1402.542012001757	9
0	7519	1403.594128883179	8
0	7524	1405.062252458848	7
0	7530	1407.609777197925	6
0	7536	1408.346586764102	5
0	7541	1408.396458850658	4
0	7546	1409.526535506094	3
0	7551	1409.812820785653	2
0	7557	1410.762422717753	1
0	7563	1411.268870015097	2
0	7564	1411.543066318635	1
0	7569	1413.27455575364	0
0	7573	1413.48140622037	1
0	7578	1414.482913432452	0
0	7603	1416.071433537776	1
0	7609	1419.159634980193	0
0	7631	1421.852506617106	1
0	7632	1422.147707042356	0
0	7653	1425.557531789257	1
0	7654	1425.858233144824	0
0	7660	1426.075513845365	1
0	7664	1426.546524648545	0
0	7682	1432.929540946871	1
0	7689	1434.738277419656	0
0	7710	1439.973722597492	1
0	7713	1440.96932684747	0
0	7729	1444.054573248987	1
0	7740	1446.073420299784	2
0	7741	1446.396322578082	1
0	7746	1446.712852964184	0
0	7752	1447.138880337344	1
0	7754	1447.30228949663	2
0	7755	1447.733040961932	1
0	7760	1448.032494476731	0
0	7784	1449.810487416378	1
0	7787	1452.351867723499	0
0	7798	1452.835434082894	1
0	7799	1453.070511351944	0
0	7820	1455.837688735716	1
0	7824	1457.688813545892	0
0	7830	1457.769921543818	1
0	7833	1458.7104985712	0
0	7850	1459.631089150381	1
0	7852	1460.599133763268	0
0	7880	1464.41317509232	1
0	7882	1464.673732487618	0
0	7894	1465.276871700443	1
0	7896	1467.305777008282	0
0	7902	1467.313718238646	1
0	7906	1467.757330347956	2
0	7910	1468.399977990599	3
0	7912	1468.470888450399	4
0	7913	1468.587042405632	3
0	7920	1469.989378556	4
0	7921	1470.325913245855	3
0	7925	1472.633465370062	4
0	7929	1473.386448390803	5
0	7931	1473.656039869328	6
0	7937	1475.016489347693	7
0	7938	1475.302098512487	6
0	7943	1475.353848156306	5
0	7948	1475.531645821302	4
0	7953	1476.194430491351	3
0	7958	1478.779757739836	2
0	7963	1481.344275193699	1
0	7968	1482.49993798127	0
0	7985	1485.628393745973	1
0	7986	1487.172029012476	0
0	8002	1488.000885085886	1
0	8004	1488.190365817796	0
0	8010	1488.251892262258	1
0	8014	1489.671208320265	0
0	8024	1492.470286831827	1
0	8025	1494.232844372225	0
0	8036	1494.964127612495	1
0	8037	1495.137415061899	0
0	8044	1495.702432136598	1
0	8045	1496.087907718238	0
0	8054	1496.813621207188	1
0	8056	1497.008742608322	0
0	8077	1497.889730461318	1
0	8080	1498.635542150012	0
0	8107	1501.943631295116	1
0	8110	1504.087056407847	0
0	8116	1504.530518730779	1
0	8118	1504.715409246717	2
0	8120	1505.744823674314	1
0	8125	1506.417749054791	0
0	8141	1507.200386213092	1
0	8144	1508.359113169793	0
0	8188	1512.083825826563	1
0	8192	1512.615099028845	2
0	8193	1512.942972014409	1
0	8200	1514.093481503953	0
0	8214	1515.4521731445	1
0	8216	1515.604719697191	2
0	8218	1516.312359220862	3
0	8219	1516.872846087986	2
0	8224	1516.954142804512	1
0	8229	1517.257646472393	0
0	8237	1517.49813686724	1
0	8238	1517.773040522897	0
0	8247	1518.322101654913	1
0	8249	1518.810080078437	0
0	8264	1519.557322903686	1
0	8269	1520.582789664079	0
0	8287	1522.129757399053	1
0	8293	1524.46125726767	0
0	8299	1524.50403363081	1
0	8303	1525.427741514302	0
0	8312	1527.414422371119	1
0	8313	1527.462347475539	0
0	8344	1532.249203348606	1
0	8345	1532.279231018191	0
0	8351	1533.089245935283	1
0	8353	1533.144102196595	2
0	8356	1533.685849301654	1
0	8361	1533.746755324571	0
0	8373	1534.417416774954	1
0	8374	1534.581078655632	0
0	8380	1535.062157805104	1
0	8381	1535.312967063078	0
0	8392	1537.3962465217	1
0	8393	1539.003256044841	0
0	8416	1544.390615460653	1
0	8418	1545.635860865794	0
0	8424	1546.103725499688	1
0	8425	1546.110075836084	0
0	8454	1548.977220383147	1
0	8455	1549.541929723964	0
0	8466	1549.910712640681	1
0	8468	1551.234151392631	0
0	8529	1560.680353663616	1
0	8532	1561.188378814411	2
0	8536	1564.677525850566	3
0	8538	1564.710118256511	4
0	8539	1564.803262680608	3
0	8545	1565.192133735625	4
0	8546	1565.99984127481	3
0	8551	1566.115817128857	2
0	8556	1566.818938832868	1
0	8561	1567.067154759927	0
0	8577	1571.015060918797	1
0	8578	1571.287437875892	0
0	8589	1575.063138426792	1
0	8592	1575.209668577194	0
0	8596	1576.415399812294	1
0	8603	1579.337511402034	2
0	8605	1579.614211378307	3
0	8606	1580.337127217226	2
0	8611	1580.369620332605	1
0	8619	1581.548926052283	0
0	8631	1582.40506353699	1
0	8634	1583.359110690077	2
0	8637	1584.077152041984	1
0	8642	1584.128712945105	0
0	8646	1584.55983121151	1
0	8649	1584.838831203955	0
0	8653	1585.058770297135	1
0	8655	1585.459385286454	2
0	8658	1585.739666336152	1
0	8668	1589.528901886138	0
0	8694	1591.612808743882	1
0	8695	1591.659885786535	0
0	8699	1592.241982081523	1
0	8702	1593.147466915749	0
0	8716	1593.86740915972	1
0	8718	1594.061112365046	2
0	8723	1595.39626234161	3
0	8725	1595.992784417423	4
0	8726	1596.640312963305	3
0	8732	1596.753153584369	2
0	8736	1598.183251541147	3
0	8738	1599.402861894831	4
0	8740	1600.442567740184	5
0	8747	1601.542595293469	6
0	8749	1601.622889455313	7
0	8750	1602.960208411901	6
0	8756	1604.685312700242	5
0	8761	1604.693687748214	4
0	8765	1605.082513703084	5
0	8767	1605.238737590998	6
0	8769	1606.179129097194	7
0	8773	1607.737369157655	8
0	8776	1608.223282976309	7
0	8782	1609.043575155223	6
0	8786	1609.167311930926	7
0	8788	1609.882359904268	8
0	8791	1610.138363492904	7
0	8796	1610.614363785588	6
0	8801	1611.095593126861	5
0	8809	1612.241924444214	6
0	8813	1613.135455885399	5
0	8821	1615.639702828293	4
0	8826	1615.772997124097	3
0	8830	1616.882091656842	4
0	8834	1617.428033838338	5
0	8836	1617.611948063111	6
0	8842	1618.989284082923	5
0	8848	1619.009589368503	6
0	8849	1619.041544618752	5
0	8853	1619.182452393062	6
0	8855	1619.739226028665	7
0	8857	1620.338149437305	8
0	8859	1621.184647140774	9
0	8863	1621.801565666879	10
0	8866	1622.312291254553	9
0	8870	1622.571316048029	10
0	8873	1624.575689427465	9
0	8879	1624.898705007343	10
0	8880	1625.46899806453	9
0	8887	1626.0748674378	8
0	8892	1626.50654950059	7
0	8896	1627.136422834503	8
0	8899	1627.293470480233	7
0	8904	1627.574340124636	6
0	8910	1629.064891751889	7
0	8912	1629.093324537192	8
0	8916	1629.866426917683	7
0	8921	1630.020614000939	6
0	8927	1631.064639536704	5
0	8932	1631.198727939731	4
0	8937	1632.048322353354	3
0	8942	1632.530033790732	2
0	8946	1633.415347463597	3
0	8949	1634.993829702666	2
0	8954	1635.356389082715	1
0	8958	1636.254104328218	2
0	8962	1637.688227338694	1
0	8967	1638.287621892741	0
0	8971	1639.347458641782	1
0	8973	1639.883645699873	2
0	8975	1640.257120835838	3
0	8980	1642.791522425252	2
0	8986	1642.958610783718	3
0	8988	1643.149025188126	4
0	8990	1643.726703637205	5
0	8994	1643.904929247916	6
0	8996	1645.312786057597	7
0	8997	1647.852783808391	6
0	9007	1650.049224976863	7
0	9008	1650.485298268383	6
0	9012	1650.720793733978	7
0	9015	1651.856933030919	6
0	9027	1657.833626402143	7
0	9034	1661.983129139546	6
0	9039	1662.158464883403	5
0	9043	1662.346337604131	6
0	9045	1662.557054251199	7
0	9049	1663.461911795493	6
0	9054	1663.829679789397	5
0	9062	1664.26628833369	6
0	9063	1664.612517299319	5
0	9068	1666.735174777973	4
0	9075	1668.357224549087	3
0	9080	1670.253905356521	2
0	9087	1671.473277055371	1
0	9091	1671.755669654812	2
0	9100	1673.320115940756	1
0	9104	1674.239142908537	2
0	9106	1674.305829410224	3
0	9112	1676.520212691299	2
0	9117	1676.666701436951	1
0	9124	1678.377492865036	0
0	9172	1686.444428660592	1
0	9173	1686.690225292261	0
0	9180	1686.852419527045	1
0	9182	1687.142240238742	0
0	9189	1687.649567150351	1
0	9191	1688.315409761062	2
0	9193	1689.158321295946	3
0	9195	1690.940328465802	2
0	9200	1691.535793765212	1
0	9206	1691.968421055147	2
0	9207	1692.411561151887	1
0	9211	1693.50852150996	2
0	9214	1694.984567973583	1
0	9220	1695.967613266522	2
0	9225	1696.535312238944	1
0	9232	1698.224090097499	0
0	9236	1698.665048213305	1
0	9243	1700.989548002156	0
0	9260	1703.279004631817	1
0	9265	1704.101444355882	2
0	9266	1704.565875500746	1
0	9271	1705.333867996616	0
0	9307	1709.543180166828	1
0	9309	1710.193822712858	2
0	9311	1711.833927631186	3
0	9314	1713.283613850691	2
0	9320	1713.610992873194	1
0	9325	1713.940583239764	0
0	9370	1720.413559990898	1
0	9380	1721.568450913549	2
0	9381	1723.106732345466	1
0	9386	1723.719924512876	0
0	9392	1724.062708556864	1
0	9394	1724.349184434921	2
0	9395	1724.509859807437	1
0	9402	1725.088596502895	2
0	9404	1725.360169964292	1
0	9416	1727.909615133713	0
0	9456	1731.581599968932	1
0	9457	1731.693320752514	0
0	9470	1734.984342049838	1
0	9472	1735.305396700078	2
0	9473	1735.691396089837	1
0	9478	1736.062454153814	0
0	9488	1737.925915090126	1
0	9491	1738.308484656132	0
0	9501	1738.708718949094	1
0	9504	1739.293358937726	0
0	9513	1739.557179013255	1
0	9522	1741.336114348639	0
0	9556	1746.199710819571	1
0	9557	1746.418243445479	0
0	9583	1748.706950946152	1
0	9585	1748.921099436161	2
0	9591	1752.014572665466	1
0	9596	1752.098151390083	0
0	9622	1756.933243153641	1
0	9627	1760.621164671136	0
0	9639	1761.654488818558	1
0	9641	1761.689711116923	2
0	9643	1762.519078682448	3
0	9645	1763.693334508722	4
0	9647	1763.768110213974	5
0	9652	1765.337867234763	4
0	9658	1765.415446145787	3
0	9664	1766.416955213226	2
0	9669	1767.138016699925	1
0	9674	1767.484583228456	0
0	9704	1770.97766417572	1
0	9707	1772.088121551501	0
0	9724	1774.809254339177	1
0	9728	1775.87855297781	2
0	9729	1776.047846241862	1
0	9734	1776.343353392816	0
0	9745	1776.743206500864	1
0	9749	1777.818129668741	2
0	9751	1778.574386070065	1
0	9760	1780.056887211939	2
0	9761	1780.18129573205	1
0	9766	1780.190231307989	0
0	9777	1781.601928781309	1
0	9779	1781.957921002253	2
0	9782	1782.359981132625	1
0	9790	1783.232206301988	2
0	9793	1784.382598792578	1
0	9799	1784.539036896032	2
0	9800	1785.724439917487	1
0	9809	1789.619920885787	0
0	9826	1790.708905012803	1
0	9828	1791.247273829561	0
0	9832	1792.025944105173	1
0	9834	1792.799722708878	2
0	9836	1794.12384155117	3
0	9841	1795.625941091073	2
0	9846	1796.718734342597	1
0	9851	1797.35199371436	0
0	9855	1799.148749785792	1
0	9857	1799.496329447809	2
0	9863	1801.983279236237	3
0	9864	1802.443494449505	2
0	9870	1804.248572079373	3
0	9872	1805.917319304904	4
0	9876	1807.752537568506	5
0	9877	1807.984536255598	4
0	9882	1809.083743298989	3
0	9886	1809.110607237061	4
0	9891	1810.020999432175	3
0	9897	1811.371866357533	4
0	9901	1811.660833906661	5
0	9904	1812.758247225687	6
0	9908	1813.534097018156	7
0	9909	1813.976459813902	6
0	9915	1814.563183951736	7
0	9916	1815.091402133148	6
0	9920	1815.546361515136	7
0	9922	1819.195157729107	8
0	9925	1820.846624193914	7
0	9930	1821.520865347193	6
0	9934	1821.811961648094	7
0	9939	1822.563309690916	8
0	9940	1822.931651514837	7
0	9945	1823.23063126582	6
0	9949	1823.623415537042	7
0	9951	1824.725386855432	8
0	9955	1825.751152935051	7
0	9960	1825.808199031123	6
0	9965	1826.204890696745	5
0	9969	1827.245643058571	6
0	9973	1828.327132684719	5
0	9978	1829.39846278901	4
0	9982	1829.940407423957	5
0	9984	1830.286220630743	6
0	9987	1830.697139509805	5
0	9994	1831.453471489043	4
0	9999	1831.907482892944	3
0	10006	1832.919472802411	4
0	10008	1832.946105089249	5
0	10009	1833.394670528799	4
0	10016	1833.62345371804	5
0	10018	1833.917054903402	4
0	10023	1836.030592975731	3
0	10030	1838.104301747406	2
0	10038	1841.5823781724	3
0	10040	1842.096353646888	4
0	10042	1842.248685753787	3
0	10047	1842.904673749995	2
0	10051	1843.139713645269	3
0	10056	1844.643856069638	2
0	10061	1845.07070598545	1
0	10069	1846.251608230566	0
0	10082	1847.133738793094	1
0	10083	1848.130086525809	0
0	10102	1849.426547001591	1
0	10107	1850.538389732544	2
0	10108	1850.639925583256	1
0	10114	1851.639982698735	0
0	10125	1852.156681727884	1
0	10126	1852.350097977394	0
0	10132	1852.415661402766	1
0	10135	1853.030524819297	0
0	10184	1857.580470632046	1
0	10194	1860.14333150471	0
0	10207	1860.765169284516	1
0	10212	1861.957082924386	0
0	10218	1862.263839606369	1
0	10220	1862.453210493613	2
0	10221	1863.082131531627	1
0	10227	1863.198717104014	0
0	10241	1864.217989174307	1
0	10242	1864.317934712469	0
0	10288	1869.750412690146	1
0	10289	1869.911201524381	0
0	10295	1871.070336191757	1
0	10296	1871.827326406057	0
0	10313	1874.844952593151	1
0	10314	1875.698367320058	0
0	10327	1876.350925995038	1
0	10330	1876.935057106275	2
0	10332	1877.378650357766	3
0	10333	1877.465713300447	2
0	10339	1878.702780764607	1
0	10345	1879.612581780185	2
0	10349	1880.12741895476	3
0	10350	1880.972902760002	2
0	10356	1881.121247827436	3
0	10357	1881.181839617124	2
0	10364	1881.906746761866	3
0	10365	1882.203340438546	2
0	10373	1882.63900293504	1
0	10379	1883.533073091291	2
0	10381	1884.966326213058	1
0	10388	1885.392608821351	0
0	10406	1889.396009070027	1
0	10409	1890.91638316842	0
0	10469	1897.354558578434	1
0	10470	1897.845578632614	0
0	10505	1906.279637202103	1
0	10507	1906.630314725126	2
0	10509	1906.82731376911	3
0	10511	1907.365398702498	4
0	10515	1908.36144024288	5
0	10517	1909.764802964017	6
0	10519	1912.47967911401	7
0	10525	1914.166429829988	8
0	10529	1914.992983017754	9
0	10532	1915.617159618409	8
0	10540	1917.00962563022	7
0	10545	1917.224824752569	6
0	10552	1917.644678054558	5
0	10557	1918.098785412245	4
0	10563	1918.235446942724	5
0	10564	1918.325457473376	4
0	10571	1919.033738216018	5
0	10573	1919.357922793383	6
0	10576	1920.249313720275	5
0	10582	1920.56236497171	6
0	10587	1921.181565693404	5
0	10592	1921.260462500653	4
0	10599	1921.59308083596	3
0	10608	1924.881283356717	2
0	10613	1925.082783443498	1
0	10619	1926.187656003391	2
0	10620	1926.814380848519	1
0	10625	1928.121865590219	0
0	10636	1929.312000882847	1
0	10638	1930.22927977825	2
0	10640	1930.743331587156	3
0	10644	1932.423188234405	2
0	10653	1934.012310438501	1
0	10659	1934.327736020084	2
0	10661	1935.002708563829	3
0	10662	1935.005271495144	2
0	10667	1935.143604464148	1
0	10674	1935.579419098031	2
0	10676	1935.84900835384	1
0	10682	1936.049724277548	2
0	10684	1936.736018036773	1
0	10689	1937.836845579507	0
0	10705	1938.712211513228	1
0	10706	1938.878375278668	0
0	10737	1943.526062822473	1
0	10738	1943.568717768563	0
0	10770	1948.392703546865	1
0	10772	1948.430724963646	2
0	10774	1951.953916935382	3
0	10780	1954.018564940502	2
0	10786	1955.331826339134	1
0	10798	1958.926760462315	2
0	10802	1960.292086960406	3
0	10803	1960.487921382947	2
0	10808	1960.911250880405	1
0	10813	1960.92387147373	0
0	10819	1961.613503246384	1
0	10821	1961.929847955106	2
0	10822	1962.593841049701	1
0	10827	1962.613555974236	0
0	10845	1963.855787629548	1
0	10846	1964.260284204703	0
0	10857	1964.721332754887	1
0	10858	1965.607117543216	0
0	10869	1966.132950483837	1
0	10871	1966.325852940796	2
0	10872	1966.460569674398	1
0	10880	1968.696628027776	2
0	10885	1969.193085132053	3
0	10886	1969.196677812742	2
0	10891	1969.834340799981	1
0	10897	1970.190350013986	2
0	10904	1971.041510830676	3
0	10905	1971.115717655803	2
0	10909	1971.555151854769	3
0	10911	1972.459534920792	4
0	10915	1972.640638571755	5
0	10917	1973.100520367362	4
0	10926	1974.508835322206	3
0	10930	1974.711406919163	4
0	10934	1974.917336858008	5
0	10936	1975.944576865586	6
0	10937	1976.184914393114	5
0	10942	1977.548528942603	4
0	10946	1978.433703693559	5
0	10949	1978.589674418017	4
0	10953	1978.684537296995	5
0	10957	1979.663568202763	6
0	10959	1980.397555059094	7
0	10964	1982.215622559861	6
0	10970	1983.503044499735	7
0	10972	1983.961085400516	8
0	10974	1984.039777190466	7
0	10979	1985.487280024381	6
0	10984	1985.853825900111	5
0	10990	1986.842733747725	6
0	10991	1987.258948144091	5
0	10999	1988.361407054936	6
0	11001	1988.663216117923	7
0	11002	1989.225713356416	6
0	11012	1991.298713323031	7
0	11013	1991.389502694629	6
0	11018	1992.691527601553	5
0	11024	1992.907450711252	6
0	11025	1993.591183913161	5
0	11029	1993.834700869566	6
0	11032	1994.183465347881	5
0	11038	1995.962334906554	6
0	11040	1998.185502740808	7
0	11048	2000.625351173748	6
0	11056	2002.584779399675	5
0	11061	2002.857546068928	4
0	11068	2004.014871201258	3
0	11075	2006.591371664704	2
0	11082	2007.78720501375	1
0	11087	2008.550439395059	0
0	11100	2009.490427046251	1
0	11101	2010.292639167401	0
0	11125	2011.439339756087	1
0	11127	2011.491822500892	2
0	11133	2014.813591382078	1
0	11138	2015.729947585413	0
0	11154	2016.775238595391	1
0	11162	2018.959004763607	0
0	11194	2024.156741353458	1
0	11195	2024.239461155806	0
0	11222	2026.772033342002	1
0	11227	2027.899159083531	2
0	11229	2028.53755796452	3
0	11230	2029.156627040376	2
0	11237	2030.773597939894	1
0	11244	2032.592285819191	0
0	11250	2032.752651044977	1
0	11251	2032.859086404995	0
0	11262	2033.319780389239	1
0	11265	2033.904325511658	0
0	11283	2036.445373389228	1
0	11285	2036.704418362655	2
0	11288	2037.932732280535	1
0	11293	2037.966328769141	0
0	11311	2039.006861102107	1
0	11316	2039.981719014997	2
0	11320	2040.58885814786	3
0	11323	2041.06365381298	2
0	11329	2041.188086048664	3
0	11330	2041.264714623915	2
0	11336	2041.294436708919	3
0	11337	2041.543602299655	2
0	11342	2041.58143120908	1
0	11351	2043.333131364683	0
0	11357	2043.652869549968	1
0	11358	2043.754167471738	0
0	11372	2045.171043905732	1
0	11373	2045.280874528822	0
0	11379	2045.313212422203	1
0	11381	2046.29856682797	0
0	11387	2046.498607631167	1
0	11388	2046.608439560315	0
0	11411	2047.817000804447	1
0	11414	2049.266305895649	0
0	11431	2050.003927199241	1
0	11434	2050.606255213275	0
0	11464	2055.281635399824	1
0	11466	2055.72412832917	0
0	11480	2056.344728685959	1
0	11487	2058.361986809769	0
0	11508	2064.778631006739	1
0	11515	2067.4092003017	0
0	11528	2068.93527520745	1
0	11532	2069.507558763373	2
0	11534	2069.516240291598	3
0	11535	2069.874125432174	2
0	11541	2070.190495705983	1
0	11547	2070.72132990938	0
0	11566	2072.342114568125	1
0	11571	2073.246590228067	2
0	11573	2074.725657503907	1
0	11578	2075.216093626979	0
0	11587	2076.510896672851	1
0	11591	2077.458939672359	0
0	11613	2080.84285182941	1
0	11616	2081.035757865416	0
0	11625	2082.726342235684	1
0	11627	2082.744616275724	2
0	11633	2084.97124821314	3
0	11636	2085.61645063773	4
0	11637	2085.801136802465	3
0	11642	2086.109648568538	2
0	11646	2087.608802402154	3
0	11650	2088.393194833004	4
0	11654	2089.123685846665	5
0	11658	2089.394913633884	6
0	11659	2090.258332794518	5
0	11664	2090.439763723124	4
0	11670	2093.539700202748	5
0	11674	2096.407569460565	4
0	11679	2096.462846927906	3
0	11685	2097.329866540639	2
0	11693	2098.908958466785	1
0	11698	2098.949318247403	0
0	11723	2101.115160382522	1
0	11725	2101.340049107885	2
0	11727	2101.733707813291	3
0	11731	2102.636065467606	2
0	11741	2103.730051339813	1
0	11746	2103.972657656198	0
0	11754	2104.462538079966	1
0	11760	2105.327945986272	2
0	11763	2106.025401390033	1
0	11769	2109.358577113469	2
0	11775	2110.019234148562	1
0	11781	2110.687759561357	0
0	11819	2115.404083588247	1
0	11822	2116.628432350067	2
0	11823	2117.458353317116	1
0	11828	2117.621229751673	0
0	11844	2119.864220435185	1
0	11845	2119.871142735353	0
0	11865	2120.823372696597	1
0	11866	2120.920834409137	0
0	11902	2126.063740856426	1
0	11903	2126.437853671562	0
0	11911	2128.22599705931	1
0	11912	2128.329037825845	0
0	11927	2130.138703235929	1
0	11935	2132.355096340637	2
0	11938	2133.790115862935	1
0	11943	2134.978983153482	0
0	11950	2135.503211904193	1
0	11951	2135.715574009113	0
0	11957	2136.227454710737	1
0	11959	2136.862360813614	0
0	11966	2138.279442158485	1
0	11968	2139.553160270661	2
0	11970	2139.58989909051	3
0	11971	2140.398937032207	2
0	11976	2140.682916435651	1
0	11980	2141.34264843072	2
0	11982	2141.88056884625	3
0	11986	2142.328067734215	4
0	11987	2142.331315918907	3
0	11998	2147.048186710968	4
0	12000	2147.263289355287	5
0	12001	2147.532566596413	4
0	12006	2147.598833013797	3
0	12010	2147.722652037353	4
0	12013	2148.308525250605	3
0	12018	2149.206282001105	2
0	12024	2149.371083318436	3
0	12025	2149.76176771576	2
0	12029	2150.064337274286	3
0	12034	2151.136140122681	2
0	12039	2151.293164006145	1
0	12045	2153.177979301371	0
0	12062	2154.911853106676	1
0	12063	2155.726330723537	0
0	12080	2158.372253724033	1
0	12081	2158.675419674349	0
0	12105	2165.426073398568	1
0	12107	2165.50931527363	2
0	12112	2166.028222798597	1
0	12117	2166.348102255537	0
0	12141	2170.593744494375	1
0	12143	2170.630554297414	2
0	12146	2170.890912389968	1
0	12152	2171.380852962867	0
0	12156	2171.726239677951	1
0	12158	2171.892313629561	2
0	12160	2173.337541958192	3
0	12164	2173.901060056554	4
0	12167	2174.924535003355	5
0	12169	2175.155292153875	6
0	12171	2175.715926935133	5
0	12175	2176.296613662061	6
0	12178	2177.181067078716	5
0	12182	2178.277324480054	6
0	12186	2179.581606880773	5
0	12192	2180.476063368338	4
0	12198	2181.133813725563	5
0	12199	2181.293769176095	4
0	12206	2185.37330873754	3
0	12212	2185.783536816466	4
0	12216	2186.562102727858	5
0	12218	2187.051861908892	4
0	12223	2187.253963213006	3
0	12229	2187.39331889545	2
0	12234	2187.475228963743	1
0	12239	2187.808274025509	0
0	12261	2190.21328644196	1
0	12262	2190.910131224086	0
0	12269	2191.505541500193	1
0	12273	2192.776467483046	2
0	12274	2194.412838903259	1
0	12279	2194.924195364643	0
0	12302	2196.940964829561	1
0	12305	2197.515587449808	0
0	12316	2197.998350752393	1
0	12317	2198.404393593075	0
0	12323	2198.725557126375	1
0	12324	2198.766737347352	0
0	12357	2203.902370507168	1
0	12360	2204.35445280831	2
0	12363	2205.114882751619	1
0	12368	2205.257340923341	0
0	12398	2210.493489319635	1
0	12399	2210.50478967842	0
0	12411	2211.127453971934	1
0	12414	2211.391594198482	2
0	12415	2211.527439244523	1
0	12420	2211.882697943043	0
0	12434	2215.148741017634	1
0	12437	2215.489541523227	0
0	12462	2220.315996364868	1
0	12466	2223.835791290364	2
0	12469	2224.627725907096	1
0	12475	2224.812658497356	2
0	12476	2225.360559066995	1
0	12482	2226.184979686846	0
0	12488	2226.676351058104	1
0	12490	2226.9993997495	2
0	12492	2227.388327255884	1
0	12498	2228.74466209026	2
0	12500	2230.142559302525	1
0	12504	2230.87270714736	2
0	12507	2232.484418240072	1
0	12515	2234.774315660789	2
0	12517	2235.035730288922	1
0	12524	2235.866223584534	0
0	12542	2238.442957218424	1
0	12544	2238.713791574875	2
0	12546	2239.199617517057	1
0	12551	2239.243470389074	0
0	12555	2240.07115190882	1
0	12560	2241.009207364554	2
0	12562	2241.089700050976	1
0	12571	2242.098967411457	2
0	12573	2242.168123474042	3
0	12576	2242.535179191838	4
0	12580	2243.208503551499	5
0	12581	2243.489587082956	4
0	12586	2243.830075654103	3
0	12592	2244.637320830886	4
0	12595	2245.574213075633	3
0	12599	2245.992409529038	4
0	12603	2246.563156133684	5
0	12604	2246.578406586489	4
0	12608	2247.331955505244	5
0	12611	2249.274637241861	4
0	12616	2251.373301179098	3
0	12624	2252.554151063071	4
0	12625	2253.660919871809	3
0	12630	2254.730397721748	2
0	12635	2255.686009950471	1
0	12639	2255.983074529327	2
0	12646	2257.09374623875	1
0	12652	2257.676067749916	2
0	12653	2258.35222576805	1
0	12659	2258.379460672113	2
0	12661	2259.009880226432	1
0	12667	2259.176519036861	0
0	12679	2259.812945617073	1
0	12680	2260.219846109906	0
0	12686	2260.519393095904	1
0	12687	2260.61897883057	0
0	12691	2261.089082285538	1
0	12697	2262.738551061776	2
0	12703	2263.730489816312	3
0	12704	2264.250842719542	2
0	12709	2264.333173951826	1
0	12714	2264.418060719516	0
0	12731	2266.268841761338	1
0	12733	2266.923329073966	0
0	12739	2267.023069989333	1
0	12741	2267.152217469147	2
0	12751	2271.176163937748	1
0	12756	2271.468156300289	0
0	12767	2272.589840285585	1
0	12768	2273.285488738932	0
0	12796	2275.274138964276	1
0	12799	2277.614765822479	2
0	12802	2278.370218301265	3
0	12807	2281.141232883515	2
0	12813	2281.159266529692	3
0	12815	2281.43204112067	2
0	12820	2281.98681322255	1
0	12825	2282.408230814184	0
0	12836	2283.505567994167	1
0	12838	2284.254661026729	0
0	12844	2284.929599120539	1
0	12847	2287.123160149098	0
0	12851	2287.363292906023	1
0	12855	2291.41070706438	0
0	12875	2295.390025814541	1
0	12877	2295.553463448858	0
0	12903	2300.314633279328	1
0	12906	2301.112757232841	2
0	12908	2301.936528071389	3
0	12912	2302.57315698961	4
0	12913	2302.71788155475	3
0	12918	2303.487000783566	2
0	12923	2303.731106492148	1
0	12931	2304.691043102017	2
0	12933	2304.837526274732	1
0	12942	2306.779031858404	0
0	12950	2307.521654320744	1
0	12954	2307.672135027079	2
0	12955	2307.778836981637	1
0	12961	2308.536620427415	0
0	12969	2308.930767601378	1
0	12974	2309.200985395965	2
0	12977	2311.920409959375	1
0	12982	2312.047743840827	0
0	12995	2313.69503411102	1
0	12996	2313.731532846402	0
0	13042	2321.603437070961	1
0	13045	2322.077672825142	0
0	13093	2328.712362293457	1
0	13097	2329.24408165657	2
0	13103	2331.415337966515	3
0	13105	2332.440104739251	4
0	13106	2332.738507932775	3
0	13111	2333.80231462921	2
0	13117	2334.154552839162	3
0	13120	2334.399847376721	2
0	13125	2334.441713058807	1
0	13133	2334.934048332354	0
0	13165	2340.298366363442	1
0	13168	2341.142155258061	0
0	13191	2345.163946481868	1
0	13193	2345.190022122188	2
0	13194	2345.303698338672	1
0	13201	2345.586907900597	0
0	13207	2346.500257252589	1
0	13209	2347.089792843942	2
0	13211	2347.577821992535	1
0	13218	2347.775951963627	2
0	13219	2347.780508868358	1
0	13226	2348.518789744044	0
0	13232	2348.614408447328	1
0	13235	2349.278222098248	0
0	13244	2350.472310342052	1
0	13247	2351.843749119356	0
0	13268	2356.107414357154	1
0	13269	2356.216997927674	0
0	13282	2357.556988716854	1
0	13283	2357.704555106882	0
0	13294	2359.342259570068	1
0	13298	2360.020727413697	2
0	13301	2360.664500423323	3
0	13303	2361.124536818321	4
0	13308	2362.352277419549	3
0	13313	2363.380514310755	2
0	13318	2363.406183821025	1
0	13324	2364.10387784109	2
0	13325	2364.417971222872	1
0	13329	2366.472762179122	2
0	13339	2367.486988449359	1
0	13344	2368.173784182617	0
0	13376	2374.469251149887	1
0	13378	2375.07827648052	0
0	13384	2375.71986950892	1
0	13388	2376.357632126762	2
0	13390	2376.807842299886	1
0	13396	2377.470877589856	2
0	13398	2377.542505127442	3
0	13399	2377.714195460751	2
0	13404	2378.69283843934	1
0	13409	2379.368711134519	0
0	13413	2380.603247156456	1
0	13416	2380.969689332432	0
0	13429	2382.356431902061	1
0	13431	2382.451858432415	0
0	13441	2384.883664529302	1
0	13442	2385.487478374475	0
0	13448	2386.814996216571	1
0	13451	2388.898144224551	2
0	13453	2391.009320402684	3
0	13454	2391.920633629429	2
0	13463	2394.102673765123	1
0	13470	2394.309820305832	0
0	13496	2397.905864511281	1
0	13499	2398.204280277881	2
0	13501	2398.404522714967	3
0	13504	2399.719513115283	4
0	13505	2399.758745823911	3
0	13512	2400.685035177179	2
0	13519	2400.979683392674	3
0	13521	2401.494174383155	2
0	13526	2401.721512952237	1
0	13531	2402.077071524708	0
0	13545	2403.518880163524	1
0	13547	2403.969455873666	0
0	13558	2405.460604988714	1
0	13560	2406.183532478343	0
0	13572	2407.8916299129	1
0	13573	2407.978596597291	0
0	13602	2411.727125400119	1
0	13603	2412.024680101459	0
0	13614	2412.324787473926	1
0	13615	2412.497317436837	0
0	13624	2414.421603675636	1
0	13627	2415.378341702243	0
0	13643	2417.825304060276	1
0	13645	2417.863212539087	2
0	13647	2418.494068308347	3
0	13648	2419.419359573121	2
0	13655	2420.598164926714	1
0	13663	2421.25697830065	0
0	13684	2423.328805083111	1
0	13688	2423.760160524189	2
0	13689	2423.80969925488	1
0	13695	2424.118474251636	2
0	13697	2424.727141575285	1
0	13703	2425.868889288419	0
0	13722	2429.561634871804	1
0	13724	2430.26484145771	2
0	13726	2430.359573523261	3
0	13728	2431.959670609977	2
0	13733	2433.165314333857	1
0	13738	2433.612636358624	0
0	13752	2434.313880153908	1
0	13756	2434.908489241772	0
0	13763	2435.666871748946	1
0	13765	2436.666772342401	0
0	13771	2436.70187405947	1
0	13778	2438.26418079801	0
0	13797	2440.394735875361	1
0	13798	2441.376457013031	0
0	13826	2443.435991231049	1
0	13828	2444.297747361835	2
0	13830	2445.660113184886	1
0	13837	2446.406771996129	0
0	13843	2446.951744302406	1
0	13846	2447.504719035691	0
0	13850	2447.717670704596	1
0	13852	2449.654674219373	2
0	13856	2450.523912538214	3
0	13863	2453.062453673885	4
0	13864	2453.639953234671	3
0	13869	2453.742051275388	2
0	13874	2454.277617255102	1
0	13881	2455.582664778893	0
0	13887	2455.849087345919	1
0	13891	2456.634790092505	0
0	13908	2457.492347093176	1
0	13910	2457.591850359881	2
0	13911	2457.783178702442	1
0	13915	2458.55374298948	2
0	13919	2459.540418690588	1
0	13925	2459.551725006054	2
0	13929	2460.65030643283	1
0	13935	2461.292692499202	0
0	13968	2464.068972302611	1
0	13972	2464.523152915366	0
0	13984	2467.017061109321	1
0	13986	2467.22424605971	2
0	13988	2467.616827880231	3
0	13992	2468.003647864512	2
0	13997	2468.15273952865	1
0	14003	2470.274457363094	0
0	14020	2471.946170946027	1
0	14027	2474.913696315221	2
0	14029	2475.050991347971	3
0	14032	2476.379936243659	2
0	14039	2476.581802703038	3
0	14043	2476.854811335684	2
0	14048	2477.136216997466	1
0	14053	2477.208287599034	0
0	14064	2479.563624294563	1
0	14066	2479.712252373517	2
0	14068	2480.208028445583	1
0	14073	2481.814277689318	0
0	14079	2483.244486986363	1
0	14082	2483.260574821978	0
0	14088	2484.133240456384	1
0	14090	2484.535400515704	2
0	14091	2485.122612973986	1
0	14100	2489.320747757127	0
0	14147	2494.261864965138	1
0	14150	2495.107519951098	0
0	14172	2496.510414956425	1
0	14175	2497.156892837627	2
0	14177	2498.216280153517	1
0	14182	2498.434587987998	0
0	14196	2500.155521004759	1
0	14199	2501.885588569907	2
0	14201	2502.553584562506	1
0	14209	2503.577870734215	0
0	14213	2503.96698726084	1
0	14218	2504.709855921044	0
0	14229	2505.836413744587	1
0	14231	2506.571130215341	0
0	14243	2508.546919496829	1
0	14244	2510.377391802545	0
0	14285	2517.937708827817	1
0	14286	2518.135325706431	0
0	14299	2520.157004167123	1
0	14301	2520.274164172654	2
0	14302	2520.357933298215	1
0	14306	2520.703622364499	2
0	14309	2522.274508287532	1
0	14316	2523.456405910144	0
0	14322	2524.048386978652	1
0	14324	2524.072792711349	2
0	14325	2524.495595975664	1
0	14330	2525.810686098257	0
0	14336	2526.198270768727	1
0	14339	2526.311748539202	2
0	14340	2528.246684193975	1
0	14345	2528.92708598792	0
0	14356	2530.16312946647	1
0	14358	2530.745205732448	0
0	14389	2533.1737505329	1
0	14392	2533.830393454205	0
0	14401	2534.149926789642	1
0	14403	2534.272304956555	2
0	14407	2534.675849085833	1
0	14412	2534.881022763559	0
0	14431	2536.115651990756	1
0	14433	2536.328195463302	0
0	14445	2541.100822174162	1
0	14446	2541.107123398232	0
0	14462	2542.129012231503	1
0	14464	2542.980637394795	0
0	14483	2545.35984126548	1
0	14486	2545.875138487388	2
0	14487	2547.352402739712	1
0	14492	2549.022521243271	0
0	14498	2549.576964050179	1
0	14499	2549.868024788235	0
0	14505	2550.282040813256	1
0	14512	2553.690275566014	0
0	14524	2554.869381624066	1
0	14527	2555.089989881294	2
0	14528	2556.505867678253	1
0	14534	2557.313931807731	0
0	14560	2562.780944587628	1
0	14564	2563.33603779878	2
0	14567	2564.424095738988	1
0	14572	2564.572491115169	0
0	14586	2566.150916922538	1
0	14590	2567.75475460258	2
0	14593	2568.026019219657	1
0	14599	2569.296053636922	0
0	14623	2572.320301077402	1
0	14624	2572.459931016219	0
0	14630	2572.698915785768	1
0	14631	2572.782558391392	0
0	14635	2573.644849789495	1
0	14638	2574.613467638998	0
0	14642	2575.11154781357	1
0	14645	2575.257459572873	0
0	14651	2576.27480409294	1
0	14652	2576.440371541759	0
0	14656	2576.711821687769	1
0	14658	2577.566075858313	2
0	14663	2579.688537392316	1
0	14668	2581.228410306428	0
0	14672	2581.26326767244	1
0	14676	2583.756020619904	2
0	14678	2584.237261334409	3
0	14679	2584.758315310059	2
0	14685	2585.569769967675	1
0	14690	2585.790434786306	0
0	14706	2590.548670310238	1
0	14708	2592.164725195538	0
0	14714	2593.998055232277	1
0	14718	2597.678137886139	2
0	14720	2599.61886606634	3
0	14721	2600.461825539631	2
0	14728	2601.022158317433	1
0	14733	2601.193691760607	0
0	14767	2604.693105662282	1
0	14769	2604.813081457947	2
0	14770	2605.00418589506	1
0	14775	2605.294817975939	0
0	14790	2609.431423271376	1
0	14794	2609.974361439965	2
0	14797	2611.17293696165	1
0	14803	2611.514396750101	2
0	14805	2611.522505337184	3
0	14807	2611.733182550977	4
0	14810	2611.975755386837	5
0	14813	2612.688406741271	6
0	14815	2613.104044249434	5
0	14821	2614.545881392808	4
0	14827	2615.142531906281	3
0	14833	2615.502009935184	4
0	14834	2616.019334608566	3
0	14839	2616.099953217548	2
0	14845	2616.276110118044	3
0	14846	2616.489485610781	2
0	14852	2616.555726165433	3
0	14855	2617.324048576497	2
0	14863	2617.720813397367	3
0	14864	2617.780977162269	2
0	14870	2619.096746697798	3
0	14871	2619.102073226938	2
0	14878	2620.099999301028	1
0	14884	2620.952528287171	2
0	14886	2622.102507893213	3
0	14888	2622.877326595636	4
0	14892	2624.489930782331	3
0	14898	2624.52951297375	4
0	14900	2624.822994079351	5
0	14903	2626.329111485492	4
0	14908	2627.270364009432	3
0	14915	2628.392580377007	2
0	14919	2628.645042908855	3
0	14921	2628.709054844351	4
0	14925	2629.373406845514	5
0	14928	2629.8833652041	4
0	14937	2630.605378461864	3
0	14942	2631.691312714396	2
0	14946	2631.979424984004	3
0	14948	2632.311379804115	4
0	14950	2632.418360124777	5
0	14953	2633.040220254567	4
0	14964	2635.478166854234	5
0	14965	2635.520117894697	4
0	14973	2636.312054831909	3
0	14977	2638.061477002337	4
0	14980	2640.343406109735	3
0	14986	2642.244727990155	4
0	14987	2643.5439672538	3
0	14991	2643.652471369752	4
0	14994	2645.233306242232	3
0	14998	2645.621823052548	4
0	15005	2646.524275343328	5
0	15006	2646.959787417567	4
0	15012	2648.51917333909	3
0	15017	2648.602969908801	2
0	15021	2648.989717324059	3
0	15029	2651.709975649314	4
0	15030	2651.846584609689	3
0	15037	2653.619675483161	2
0	15043	2655.069270245628	3
0	15045	2656.614024384341	4
0	15048	2658.137186588333	3
0	15056	2662.867839322416	4
0	15057	2663.32378253514	3
0	15063	2664.355904677112	4
0	15064	2664.406436329401	3
0	15068	2664.442827770219	4
0	15072	2664.906272479483	5
0	15075	2670.972352962844	4
0	15087	2673.166033409327	5
0	15089	2673.859512669409	6
0	15090	2674.595044602132	5
0	15095	2674.700649637201	4
0	15101	2674.832205192899	5
0	15104	2675.43470739449	4
0	15110	2676.189648545831	3
0	15115	2676.455622541898	2
0	15122	2676.898711422055	1
0	15127	2676.97674612716	0
0	15141	2678.788579560518	1
0	15145	2679.92521846899	2
0	15147	2680.08661552557	3
0	15148	2680.902982740863	2
0	15152	2681.307081621731	3
0	15154	2681.876754025168	4
0	15156	2682.437212823419	5
0	15159	2683.193766819402	4
0	15163	2683.559092253987	5
0	15168	2685.144229868218	4
0	15172	2685.955715002702	5
0	15174	2686.95250105799	6
0	15177	2688.078605703919	5
0	15184	2689.411621253512	4
0	15189	2690.571433234754	3
0	15195	2691.228935906897	4
0	15198	2692.972177509845	3
0	15203	2695.434690045272	2
0	15208	2695.682168377953	1
0	15212	2696.51062575432	2
0	15216	2697.103807351261	3
0	15218	2697.548457390874	4
0	15221	2699.442170318035	3
0	15226	2699.980340396882	2
0	15231	2700.248428927376	1
0	15235	2700.993697629005	2
0	15237	2701.408194151292	3
0	15241	2702.495554294614	2
0	15246	2702.829137810909	1
0	15250	2703.179076469917	2
0	15252	2704.253751797034	3
0	15258	2705.177948555525	4
0	15260	2705.584656556968	5
0	15261	2705.591956187165	4
0	15268	2706.361195142493	5
0	15269	2707.707217949604	4
0	15274	2707.773472485466	3
0	15280	2709.607255062035	4
0	15283	2710.089871326178	3
0	15287	2711.465321315247	4
0	15292	2712.89865791772	5
0	15293	2713.164609144462	4
0	15300	2715.34490038101	3
0	15304	2715.799370582748	4
0	15311	2719.579417502477	3
0	15319	2719.874512471794	4
0	15322	2720.31799552884	5
0	15324	2721.089907464083	6
0	15325	2721.212136518507	5
0	15330	2721.46032534447	4
0	15336	2721.632215621461	5
0	15337	2722.772527529786	4
0	15342	2723.771088274582	3
0	15347	2725.590851930101	2
0	15352	2726.133404797766	1
0	15358	2726.57111269601	0
0	15371	2727.498055252256	1
0	15374	2730.031289839358	2
0	15378	2730.387769506758	3
0	15380	2730.797346874741	4
0	15381	2730.986279662098	3
0	15386	2731.474114978058	2
0	15391	2731.524744888093	1
0	15395	2731.694501126167	2
0	15397	2733.002750259699	3
0	15402	2734.9176607031	2
0	15408	2735.49060349627	3
0	15409	2735.568198025778	2
0	15421	2739.023696484934	1
0	15427	2739.583030083777	2
0	15428	2739.658429930727	1
0	15432	2740.786236757105	2
0	15435	2741.489467969952	1
0	15439	2742.126540146193	2
0	15443	2742.957908164161	3
0	15444	2744.299000621373	2
0	15450	2745.220398620497	3
0	15452	2745.901381295275	2
0	15458	2746.625597866742	3
0	15459	2746.957094713958	2
0	15464	2747.151956402213	1
0	15469	2748.525602756455	0
0	15473	2748.546621934014	1
0	15477	2749.018788648925	2
0	15478	2749.331318655486	1
0	15483	2749.965525267188	0
0	15489	2750.0043080359	1
0	15490	2750.75757156534	0
0	15498	2753.434193310574	1
0	15500	2754.171379274798	2
0	15503	2754.477867144978	1
0	15507	2754.56555841241	2
0	15510	2755.328626033232	1
0	15514	2755.656550056022	2
0	15518	2757.596720272627	3
0	15520	2757.651878856611	4
0	15521	2757.719282156999	3
0	15525	2758.289079000058	4
0	15528	2758.45495657598	3
0	15534	2760.118882536311	2
0	15539	2760.12000236991	1
0	15548	2762.830430473072	0
0	15570	2763.976006487631	1
0	15571	2763.979654856308	0
0	15588	2765.860787388518	1
0	15592	2767.059035040524	2
0	15593	2767.267945742942	1
0	15603	2769.673371659219	0
0	15615	2770.232590836573	1
0	15616	2771.179130319363	0
0	15656	2778.401697702791	1
0	15657	2779.601673911397	0
0	15665	2780.18104632309	1
0	15668	2781.235522824725	0
0	15679	2781.815356507069	1
0	15680	2782.224300285112	0
0	15694	2783.260508486893	1
0	15696	2784.013723793004	2
0	15698	2784.338283704843	3
0	15700	2784.538632757193	4
0	15704	2787.327475290993	5
0	15709	2787.671071305151	6
0	15711	2788.375339334124	5
0	15717	2789.080323634666	4
0	15722	2789.745811111006	3
0	15727	2790.959110330166	2
0	15731	2791.504420327086	3
0	15737	2792.794847765305	2
0	15742	2793.298033168553	1
0	15750	2795.001246576538	2
0	15751	2795.13821765409	1
0	15758	2795.726346924489	0
0	15772	2798.280713707489	1
0	15774	2798.313732548131	2
0	15779	2800.836966236503	1
0	15784	2801.161796783968	0
0	15795	2802.217311695808	1
0	15797	2802.587448919857	0
0	15804	2802.898638660263	1
0	15805	2803.433483626227	0
0	15811	2803.680226744107	1
0	15812	2803.726155905378	0
0	15818	2804.426237004451	1
0	15820	2804.834835483714	2
0	15822	2805.169306212484	3
0	15826	2807.48769493547	2
0	15832	2807.937193997188	3
0	15833	2810.649698861691	2
0	15837	2810.76855656977	3
0	15842	2812.035038860967	2
0	15848	2813.660045361823	1
0	15855	2814.008080121657	0
0	15869	2817.403616542906	1
0	15870	2817.551027601874	0
0	15890	2818.902769090652	1
0	15892	2819.195868095569	0
0	15911	2820.695294123508	1
0	15915	2823.475778125375	0
0	15928	2825.842678884153	1
0	15931	2825.960574909466	2
0	15933	2827.060659886932	3
0	15935	2827.324495125993	4
0	15939	2827.517917429287	5
0	15942	2828.177331810128	4
0	15949	2829.386598332306	3
0	15954	2829.39600147355	2
0	15959	2829.493007899756	1
0	15964	2829.60039538737	0
0	15987	2832.723656571011	1
0	15989	2832.977775914704	2
0	15994	2834.402618700228	3
0	15996	2834.501143032125	2
0	16001	2835.489635699065	1
0	16006	2836.246702086199	0
0	16075	2846.903635545547	1
[...]
5	163105	28005.363627595056	0.367897525425
5	163126	28009.038974237471	3.252921457356
5	163181	28015.403062355855	1.209026843793
5	163319	28036.43358106589	18.214139515224
5	163325	28037.193002182096	13.126462224385
5	163330	28037.566997153647	11.708943676167
5	163340	28038.351758323985	12.137225184664
5	163373	28041.717759845915	15.372380337878
5	163378	28042.101070464966	12.641779792516
5	163383	28042.428146798394	11.972413273045
5	163388	28042.774759075612	11.988435104889
5	163397	28043.794403195651	9.073828584253
5	163755	28113.095791965419	64.943430068413
5	163760	28113.203251497921	64.864204241915
5	163765	28113.220682978702	63.549365063107
5	163770	28113.663551551354	63.220191986531
5	163780	28118.2114451874	64.514562113152
5	163796	28121.629812317013	66.445873316533
5	163801	28121.861058941202	56.303164679416
5	163814	28124.086486970958	38.996671316198
5	163844	28127.061193948163	40.667116597592
5	163851	28127.458256367272	32.954032884868
5	163879	28134.716853077104	34.742698537345
5	164122	28183.011826630383	75.194501080394
5	164138	28184.640186009678	74.429071369444
5	164143	28184.869352974728	67.798790387406
5	164151	28185.621389340382	65.275441115489
5	164163	28186.440733866325	64.366375220163
5	164196	28191.780856606049	67.224358139402
5	164213	28194.840357701322	70.266076803751
5	164275	28213.360643191762	77.878820259173
5	164371	28225.543691404412	87.980880518864
5	164378	28225.963005111383	81.056515410613
5	164385	28226.443498775227	70.495385734457
5	164395	28226.835850481317	67.319521180833
5	164400	28226.873326057897	64.94601866387
5	164412	28228.385117540931	65.407961749752
5	164442	28233.879310828301	69.388573902715
5	164457	28236.403889344589	71.451351607214
5	164488	28242.521272546821	67.373072402591
5	164493	28242.688679621664	53.25438257901
5	164501	28243.518415661308	45.427091665934
5	164519	28245.54351442424	40.241424582385
5	164554	28250.888546309198	42.977041791456
5	164592	28255.097267289442	45.263912541102
5	164610	28257.295387160654	39.137307433366
5	164615	28257.41531827175	37.178856850919
5	164621	28258.357944108324	32.554136554804
5	164628	28258.844339761224	30.58281056448
5	164670	28264.241646438843	29.811232304919
5	164676	28264.503970881705	11.886994903326
5	164682	28264.967824506238	10.052480473257
5	164687	28266.791718485521	10.136309067439
5	164694	28267.954880947962	8.331544766028
5	164699	28267.999882753753	5.932071671734
5	164709	28270.160941823205	6.5106996064
5	164727	28273.71928082121	10.021338500771
5	164742	28274.951450501373	4.905210671444
5	164750	28275.471879458227	0.004161395341
5	164761	28277.715540475713	1.601271771975
5	164778	28280.570191399056	2.074378160712
5	164830	28287.271638513639	1.835686565972
5	164847	28288.755093041412	3.201112611805
5	164851	28288.859576195993	2.116561022565
5	164861	28290.040824592253	0.532423056815
5	164877	28296.028487700104	0.879441807185
5	164908	28301.75232146163	0.202240948044
5	164924	28304.551446425291	0.142771197126
5	164954	28309.010372189062	1.09513974571
5	164967	28309.641597361023	1.139926385973
5	164971	28311.128828037701	2.062170651678
5	164983	28312.747804672772	0.787132033975
5	164998	28316.720277926407	0.065079075206
5	165021	28326.925276844291	2.894878420843
5	165040	28328.636185786749	2.404064176384
5	165092	28333.245434002963	4.941440599852
5	165117	28336.767599236846	8.146732441795
5	165122	28337.077199364934	7.111329145899
5	165131	28338.985207696226	7.860554867795
5	165307	28371.989863891915	19.32664607969
5	165315	28372.868783585371	18.68614096241
5	165340	28378.943872187207	24.731643979639
5	165357	28385.518977323919	25.010415642661
5	165934	28514.039509780871	145.36825708489
5	165944	28514.537666153942	143.00379000176
5	165956	28516.675189501968	137.08194696765
5	165974	28518.246657661163	131.80462240377
5	165999	28521.768867911007	129.73852873796
5	166024	28525.356075531307	120.40049403074
5	166029	28525.48209994635	116.29444008489
5	166042	28527.371690458924	114.00745538006
5	166049	28529.376920834586	115.46865125725
5	166058	28530.31498955894	113.38202368786
5	166086	28532.54194023329	112.27221188083
5	166095	28534.376474399131	111.67363158456
5	166311	28577.91270589672	153.02971716358
5	166320	28579.442608929227	146.91675348161
5	166348	28583.670517115287	147.13053269715
5	166357	28585.266046364521	141.44298405042
5	166409	28592.225558984602	146.32042918022
5	166422	28593.709747226627	145.80600634088
5	166427	28594.381559200812	137.11359491614
5	166432	28594.549159249776	118.31907456176
5	166443	28597.093236909801	120.41379081588
5	166479	28602.217297509266	107.47011718256
5	166499	28603.049438506127	108.02037969312
5	166504	28603.120365485506	106.21289196694
5	166511	28603.689316832269	103.38256462248
5	166516	28604.497106513451	102.7000706469
5	166528	28607.713115973466	103.74200297554
5	166536	28608.298939594837	96.813853979333
5	166548	28609.831905744524	89.787209800886
5	166553	28609.991464902666	89.743473767994
5	166558	28611.506003652207	90.887681261094
5	166564	28612.228421463723	90.87826382384
5	166569	28612.897361820399	87.942344764472
5	166576	28614.659187225777	88.667517076805
5	166589	28617.922547869267	90.877213742591
5	166660	28625.559565388769	97.726193392922
5	166673	28625.916104101041	93.961133453252
5	166681	28627.997795646244	90.275541060929
5	166717	28630.657480471126	89.853180467564
5	166724	28631.677301894646	77.490049960416
5	166926	28660.436580228178	105.55839789477
5	166931	28660.594621671253	102.52531197496
5	166942	28662.257507700477	102.46308984098
5	166952	28663.523010783032	100.7472187681
5	166962	28666.9141272057	100.23769075809
5	166985	28670.964169564951	102.99996058195
5	167012	28674.350036243129	105.54956902667
5	167027	28675.516740065535	105.40348836555
5	167032	28675.583948401801	105.46248262239
5	167038	28676.620985034773	106.37248636302
5	167044	28677.137959920382	106.06405400357
5	167049	28677.373942295538	103.89507945859
5	167054	28677.782829484128	101.20695575339
5	167065	28680.996750406948	94.211860977921
5	167132	28686.496453638079	98.480852076504
5	167142	28687.080403928009	97.244545056663
5	167148	28687.516173273841	97.322024826262
5	167154	28687.922173087622	93.080969304085
5	167160	28688.310092391859	90.038390608122
5	167167	28688.395166331967	87.977507477029
5	167172	28690.085534141911	88.843382933383
5	167179	28692.814647528187	88.055476418373
5	167193	28693.924484045055	88.417255729392
5	167216	28696.652043849834	83.242028400701
5	167221	28697.131901316297	80.65096180227
5	167232	28697.457629855826	78.703037115325
5	167251	28699.304222087203	79.676836011722
5	167261	28700.056063677285	78.779530756018
5	167272	28702.761284459636	80.679727118794
5	167278	28703.328127822953	77.460949828812
5	167284	28703.40174979941	72.950374516728
5	167290	28703.566583914967	70.353812918251
5	167298	28704.149473268793	66.640208836135
5	167303	28704.2550709186	56.333361524505
5	167309	28704.940477308562	52.990466079126
5	167319	28706.370228784599	52.333279110292
5	167326	28706.514500422163	48.744599133691
5	167340	28711.358157945064	51.687186978856
5	167354	28714.612311205986	42.372009566546
5	167383	28718.692714215848	44.723832187389
5	167388	28719.600440750338	41.681120517694
5	167394	28722.033497529852	36.816805687158
5	167401	28722.291478108465	36.076946584804
5	167418	28724.476828186136	36.103703524615
5	167445	28726.162186061867	31.809325068715
5	167455	28727.986929008616	30.468199144061
5	167463	28731.024161471651	31.348382213887
5	167468	28731.055529075454	25.829260625913
5	167473	28731.647741661037	25.279098655869
5	167482	28736.698015164118	27.548345841707
5	167518	28742.585662694038	19.20264356521
5	167523	28743.132571512121	17.005362626174
5	167528	28744.088228333618	17.759042189914
5	167537	28744.579958083882	14.677646062352
5	167556	28747.605580298241	10.850763086745
5	167575	28750.528170976162	12.216147460678
5	167628	28756.471394664203	16.251704643063
5	167634	28757.413469183113	6.409373465064
5	167641	28757.987379429851	6.085799517683
5	167648	28759.48422277042	5.690162348032
5	167655	28760.635067971657	0.654433164008
5	167688	28770.178355357865	0.158271425034
5	167701	28773.258995956186	2.158723701496
5	167719	28774.91873783447	0.030494402525
5	167731	28779.200924614729	0.396568824715
5	167759	28783.176302244336	3.656458381482
5	167823	28796.409002879933	2.902366746381
5	167827	28796.419458179689	2.323990859071
5	167839	28798.732454209869	0.550194984628
5	167859	28801.898240464887	1.213956729922
5	167875	28803.843687012274	0.368244670075
5	167900	28808.532644846066	4.404459310183
5	167963	28819.107515973906	12.946639725471
5	167975	28822.015577003887	14.697633539345
5	167983	28823.661944498957	12.778176507062
5	167996	28826.786011542411	15.529983068202
5	168005	28827.896707685209	7.745080301329
5	168012	28828.528228837467	7.156380187188
5	168017	28829.453308064725	5.635341949198
5	168021	28829.762794815961	2.862031744006
5	168041	28834.232771286425	1.819952661199
5	168052	28835.184122525815	0.899136653893
5	168059	28835.530937096859	0.001671842531
5	168068	28836.372692829852	0.639762073866
5	168093	28841.061816651887	0.258818394481
5	168234	28861.545880133594	17.174551282628
5	168357	28881.169904396266	36.103578130278
5	168362	28881.183996703379	35.378519499632
5	168367	28881.316550846482	31.422710623766
5	168381	28883.686840883903	31.148052545871
5	168474	28896.729211416087	42.785756728261
5	168481	28897.431733071801	41.207431836393
5	168494	28900.629158742398	40.616937422939
5	168499	28901.178009484433	39.295676375597
5	168509	28903.91798920608	34.549217058349
5	168515	28906.231371322351	35.65839206936
5	168520	28906.240272035246	27.084007418085
5	168529	28909.042124553699	23.243262959399
5	168545	28911.387534861669	23.553692675727
5	168595	28917.649382448113	28.537948664791
5	168602	28917.703733408922	27.452015142169
5	168609	28918.256456705282	22.884491306738
5	168614	28918.349476517458	22.027698319268
5	168627	28920.358602250911	20.936884565428
5	168646	28922.087705510778	14.180325252355
5	168651	28922.791992363919	5.133627712471
5	168655	28923.232021032688	5.175422009242
5	168698	28928.582701515862	2.929135736517
5	168705	28929.567863200921	0.848062915562
5	168712	28930.191120335182	0.064833476494
5	168768	28935.451914213273	1.961155882188
5	168801	28940.80328009995	0.201145434381
5	168817	28943.936779440736	1.168459602587
5	168825	28944.235499292902	0.210974303723
5	168849	28948.947926276797	2.800451245597
5	168900	28971.605778236821	2.526876814022
5	168904	28971.746416825144	1.123247312657
5	169281	29053.511337634	75.232494832607
5	169286	29053.858508778044	71.545901550397
5	169292	29054.107999408427	57.684145054898
5	169297	29054.557451127397	56.521294512264
5	169304	29055.039415279385	52.055920887999
5	169315	29057.553023776733	54.17695403669
5	169321	29058.567185179302	49.908027467527
5	169328	29059.455517194007	49.371906992139
5	169339	29060.366978532928	47.927721837524
5	169355	29062.931906654621	35.695017176473
5	169367	29065.475684945305	37.8292009622
5	169372	29065.513539634821	22.722620805371
5	169377	29065.517602326352	14.327332129999
5	169388	29066.948877719092	6.753734634977
5	169430	29073.126656661392	1.352629322689
5	169453	29076.117787091145	0.466530592168
5	169460	29077.044555214555	0.781931946227
5	169492	29086.128628492085	1.60713453014
5	169503	29087.152256189059	0.202990265561
5	169583	29107.617089609527	10.281674294469
5	169588	29107.894054692251	6.30846536795
5	169595	29108.450245121368	4.73326063693
5	169602	29110.114750319793	6.123088149399
5	169608	29110.93005111117	1.860908536138
5	169660	29120.016284297482	6.289435796274
5	169680	29123.742664565138	0.784390247164
5	169684	29124.871712675315	1.523330053219
5	169695	29126.344778111565	0.886670253992
5	169747	29135.142320642538	0.030556513854
5	169756	29137.29747333993	0.216713098485
5	169780	29142.326916190208	0.16472390138
5	169797	29149.685267991054	3.315370997226
5	169847	29158.646379658861	2.31292860284
5	170989	29375.545472209525	215.55694916246
5	171045	29382.281558009596	216.87071131936
5	171062	29383.71775870879	200.02144933752
5	171067	29383.863782471722	198.83449227073
5	171077	29386.729491557543	184.85626033913
5	171102	29387.585508362835	179.69316805367
5	171116	29389.038600818256	171.65118662542
5	171160	29393.957402760907	174.69611355216
5	171165	29393.963695073005	174.63094274307
5	171170	29394.282040288522	171.97244821359
5	171177	29394.71382111065	167.03255093809
5	171182	29394.815458725206	162.72692658818
5	171193	29396.914391107806	163.37548590821
5	171233	29399.221221523369	164.3604041686
5	171246	29406.560997907817	164.49605171787
5	171260	29408.861339458511	161.98117524832
5	171281	29410.495217380738	158.15526645023
5	171286	29410.672967943921	158.33008373236
5	171301	29417.060251717304	164.62167326866
5	171364	29422.580136660903	169.08945313597
5	171374	29423.229258810025	169.62953758815
5	171389	29426.797659992073	168.40598427355
5	171397	29428.529878450225	165.40124846234
5	171406	29431.089053623718	167.30099228246
5	171419	29434.934337120727	163.32582808323
5	171426	29435.168745278844	161.24579591668
5	171431	29435.695906419884	161.64917191802
5	171440	29437.121629560524	162.49236417809
5	171489	29446.87287369364	169.54619942963
5	171507	29448.992320363028	169.35161872765
5	171512	29449.178984770616	162.14389041011
5	171522	29450.243734699199	157.14632119474
5	171533	29452.554111124499	154.62616623997
5	171538	29452.997239001339	154.55203373892
5	171547	29453.94697894014	141.57189150783
5	171580	29457.758562598417	139.48349753664
5	171630	29464.536680989976	143.13187575832
5	171638	29465.26791433822	138.2999613063
5	171645	29465.810434421064	138.22473517151
5	171668	29471.728302566905	139.04743219338
5	172056	29561.974139480548	228.44187948276
5	172082	29568.810345225557	235.22345226685
5	172121	29574.358178887143	239.70788961741
5	172126	29575.528155055374	240.53639705089
5	172132	29575.882537508062	240.66798158772
5	172141	29577.8792504286	234.79863928699
5	172161	29581.507639862193	235.68669532654
5	172176	29585.187433231718	239.14821791565
5	172240	29592.515834060532	235.53772931701
5	172252	29595.447987409388	236.91055230173
5	172268	29596.535102560242	236.85667666489
5	172280	29598.409562602417	238.35672040039
5	172290	29599.335611558304	239.20592222423
5	172296	29601.29061301333	239.12284432132
5	172302	29602.189987427498	237.59938291923
5	172311	29603.287235402411	237.77079888157
5	172316	29603.328460709435	236.87979751882
5	172321	29603.547118638939	230.4207816032
5	172326	29604.06505117832	225.95256282328
5	172338	29607.743826611285	220.78590618187
5	172400	29615.743751443184	228.34600271005
5	172410	29615.857480018625	224.41425886621
5	172416	29616.21293986021	224.76750002122
5	172421	29617.217895272168	223.42461666424
5	172432	29619.149777878636	222.07180629072
5	172445	29620.801950824656	220.3781348397
5	172456	29621.960095737431	219.77328717169
5	172462	29622.56727172853	213.44625108966
5	172471	29623.41954066517	210.69038998469
5	172490	29627.532152255016	212.61444540612
5	172522	29631.420273067982	216.09611808106
5	172553	29635.646997525283	216.62792586587
5	172562	29636.47796593794	212.36363167189
5	172729	29669.994689445112	245.2760894057
5	172736	29670.329957419719	239.35778162784
5	172754	29674.107855514528	240.16896399126
5	172769	29675.773650380148	240.79607924141
5	172780	29676.269651037363	236.98792854833
5	172797	29678.452591519989	235.28933077271
5	172802	29678.911098345854	234.49085727576
5	172813	29680.850898827745	217.07530274101
5	172860	29685.554578038862	220.82517363665
5	172865	29685.807235908799	219.22227369294
5	172873	29686.482033339286	215.30791734128
5	172888	29687.420241223136	211.61185514436
5	172897	29687.966869481399	210.17110956811
5	172919	29690.202888817763	210.34280230848
5	172926	29693.652604462946	213.7818021727
5	172939	29695.088896468444	213.4812312546
5	172948	29696.386861611539	213.24587119348
5	172968	29701.314998289761	217.22658722872
5	173020	29706.063096908984	213.93734514499
5	173027	29707.065785016631	212.00533009092
5	173046	29711.242069016748	212.69061606935
5	173051	29712.344097863859	190.15736024346
5	173059	29714.320342128827	189.92943259302
5	173066	29716.654257858841	190.88528214256
5	173071	29716.720541636433	186.92361692504
5	173080	29719.252610903799	188.80314156362
5	173112	29720.902965841106	189.64046720583
5	173123	29721.832605566028	189.80394796193
5	173139	29722.982552591447	190.4293956858
5	173159	29723.917875333711	186.48152351333
5	173178	29725.763309328629	182.43721416043
5	173185	29726.022855550795	182.52672620264
5	173190	29726.153111596149	180.15186047803
5	173195	29726.744416026995	179.58470866718
5	173208	29728.387277523715	172.87273177305
5	173323	29747.284230527961	191.75056063382
5	173328	29747.515016810801	189.518316986
5	173338	29749.046081601205	188.86220218626
5	173343	29749.271065239931	186.88485851155
5	173354	29751.539924800408	185.30613458727
5	173371	29753.024361219505	183.62263070715
5	173376	29753.212311101679	181.68209573712
5	173381	29753.361599766869	181.3971422559
5	173388	29754.915776294225	182.81971812639
5	173431	29761.329948574522	188.39643177078
5	173462	29764.747912883123	185.17531144098
5	173473	29766.261065712342	183.56876739609
5	173534	29776.0044974725	187.80576031493
5	173541	29776.699316066933	186.89403925837
5	173551	29777.040184060985	182.96690314657
5	173557	29777.297318148151	179.24594242702
5	173562	29777.324594532335	174.11081181957
5	173569	29777.586441615066	172.09193843414
5	173599	29782.371204890852	173.10602849795
5	174087	29888.723621495819	278.30719067066
5	174096	29890.776019752841	280.24047046474
5	174159	29898.975634733765	285.01012825066
5	174166	29899.764278190766	277.07531127143
5	174171	29900.115751125302	276.42662861507
5	174178	29900.751225460519	270.74555661954
5	174190	29900.94089893612	270.84354124572
5	174195	29901.531030241325	267.34709391568
5	174200	29902.345467938239	268.07705640654
5	174209	29902.947283521573	265.89667132168
5	174238	29906.443134663702	266.68673119403
5	174272	29909.443146419367	269.57254855566
5	174277	29910.08439897239	268.01491648408
5	174284	29910.772534972917	262.4665751533
5	174296	29912.202688553058	263.06680257983
5	174315	29916.294229979488	265.58228674788
5	174327	29917.686566469039	261.88262105994
5	174332	29918.115888522139	254.27389176416
5	174337	29918.145221570267	246.34416429411
5	174344	29919.124543450196	239.00966631638
5	174351	29920.338138337135	237.96003241267
5	174362	29922.112263735809	235.22018930633
5	174371	29924.216284857437	236.78812820562
5	174391	29927.042557139749	236.95096884791
5	174401	29928.81389176043	233.2186271489
5	174421	29939.007651503249	239.39824637182
5	174502	29955.757740439105	251.11256182848
5	174507	29956.444120797753	246.27426079468
5	174512	29956.48914663177	245.44578223179
5	174517	29956.71373282812	237.36853923317
5	174522	29957.887876446121	237.44037067449
5	174529	29958.174692453028	237.69056781618
5	174537	29960.684590937183	239.25647905996
5	174544	29961.37837299741	239.38885873748
5	174550	29961.804443100026	234.42560285118
5	174560	29962.829403465247	234.78671173989
5	174583	29966.113775191658	237.6991396716
5	174593	29966.241426008557	236.89132103791
5	174600	29967.02713330031	235.02171167232
5	174606	29968.193144071252	235.66006820774
5	174612	29970.168478258441	237.15445782726
5	174620	29973.257337224123	233.76480062228
5	174632	29974.762952541624	233.56383218112
5	174642	29976.363131828808	233.93386782056
5	174653	29977.909957233193	234.43940160176
5	174658	29978.031498202955	234.21293040545
5	174664	29981.079664426495	232.54875325953
5	174671	29982.858522604562	231.37991674066
5	174676	29983.645987387967	216.81771257557
5	174682	29984.030824550309	212.16848513488
5	174689	29986.442924752882	212.15333211449
5	174698	29987.967801813101	205.79016165415
5	174724	29993.123074892406	206.32726229134
5	174729	29993.30581027934	205.95338296478
5	174734	29994.397153045906	206.86681175915
5	174741	29995.031278156752	206.30169100315
5	174755	29997.848149395023	200.90808528171
5	174766	29999.391250427907	201.59149049277

