version 2
run First-n4-15-20191016-17:03:57-14884
attr configname First-n4
attr datetime 20191016-17:03:57
attr experiment First-n4
attr inifile omnetpp.ini
attr iterationvars ""
attr iterationvarsf ""
attr measurement ""
attr network org.omnetpp.queueing.Pizza
attr processid 14884
attr repetition 15
attr replication ""
attr resultdir results
attr runnumber 15
attr seedset 15
param **.PS.maxInventoriedPS 4
param **.U1.interArrivalTime exponential(2s)
param **.U2.interArrivalTime exponential(4s)
param **.PS.serviceTimeForInventoryU1 exponential(0.8s)
param **.PS.serviceTimeForInventoryU2 exponential(1.0s)
param **.PS.serviceTimeDirectU1 exponential(1.2s)
param **.PS.serviceTimeDirectU2 exponential(1.4s)
param **.PS.probabilityProducing 0.5
param **.CS.serviceTimeU1 exponential(0.8s)
param **.CS.serviceTimeU2 exponential(1.0s)

vector 0 Pizza.EntryQueueU1 queueLength:vector ETV
attr interpolationmode sample-hold
attr title "queue length, vector"
vector 1 Pizza.CS queueLength:vector ETV
attr interpolationmode sample-hold
attr title "queue length, vector"
vector 2 Pizza.EntryQueueU2 queueLength:vector ETV
attr interpolationmode sample-hold
attr title "queue length, vector"
vector 3 Pizza.sink lifeTime:vector ETV
attr interpolationmode none
attr title "lifetime of arrived jobs, vector"
attr unit s
vector 4 Pizza.sink lifeTimeU1:vector ETV
attr interpolationmode none
attr title "lifetime of arrived jobs, vector"
attr unit s
vector 5 Pizza.sink lifeTimeU2:vector ETV
attr interpolationmode none
attr title "lifetime of arrived jobs, vector"
attr unit s
0	0	0	0
0	5	4.17274849821	1
0	7	4.284541970041	2
0	9	4.519827285931	3
0	15	5.417214924167	4
0	17	6.14338972316	5
0	22	6.942359780066	4
0	28	7.500111611894	3
0	36	8.688786154527	4
0	37	8.8164932114	3
0	44	9.161625189042	4
0	46	9.242066029311	5
0	48	9.490018313288	6
0	49	9.795606840984	5
0	53	9.936882534884	6
0	60	11.481437250553	5
0	65	11.688471833181	4
0	70	12.189001975725	3
0	76	13.317293734609	2
0	82	14.03695402325	1
0	87	14.817401601139	0
0	131	23.00018522155	1
0	133	23.800441780716	2
0	134	24.229822366857	1
0	140	24.283863123934	2
0	143	25.151549814537	1
0	148	25.48196113969	0
0	154	25.530028959477	1
0	156	25.951370291204	0
0	184	29.600474142153	1
0	185	29.82688254915	0
0	253	44.067237577219	1
0	257	44.325270233045	2
0	261	45.177215075733	1
0	266	45.538368863947	0
0	282	48.010153480432	1
0	284	49.243089452372	0
0	292	49.837939034233	1
0	295	50.150583972555	0
0	313	51.418749349738	1
0	317	53.745427683829	2
0	318	54.172351577317	1
0	325	54.58273192033	0
0	333	57.53622361079	1
0	334	58.664236102198	0
0	356	59.834065321856	1
0	357	59.854740502075	0
0	363	60.352157326602	1
0	364	60.794465952666	0
0	377	61.605943018603	1
0	379	62.211033615996	0
0	399	63.658193043522	1
0	400	64.047266555208	0
0	463	82.49203888878	1
0	464	82.778875484056	0
0	479	85.381310619318	1
0	482	86.649269554385	0
0	496	88.831530116956	1
0	498	88.89424960989	2
0	501	91.426349933002	1
0	506	92.007613970931	0
0	559	102.116938214517	1
0	560	103.411266503575	0
0	592	108.750022404465	1
0	594	109.243671361463	2
0	598	110.582089863166	3
0	599	110.702796349226	2
0	604	111.05735612225	1
0	608	111.921205433321	2
0	610	112.529338253471	3
0	616	116.081866068805	2
0	621	117.053350958407	1
0	625	117.947283623343	2
0	629	118.406600456755	3
0	632	118.968309350791	2
0	638	119.020945506138	3
0	640	120.109635412735	4
0	642	120.240853093767	3
0	647	121.710913840477	2
0	653	121.948650653131	3
0	657	122.198016382754	2
0	666	123.371277048148	3
0	667	124.191211849024	2
0	675	126.738470404842	1
0	681	127.282698731487	2
0	683	127.824009783638	1
0	688	128.075211493264	0
0	692	129.663899878386	1
0	694	130.27745626708	2
0	698	130.872438077405	3
0	700	132.137149367786	2
0	705	132.270948821146	1
0	713	133.266364428063	2
0	715	133.280749245425	3
0	716	133.499345139636	2
0	720	134.058967224198	3
0	723	136.633479946109	2
0	727	136.912840523904	3
0	730	137.039656657319	2
0	735	137.581921994405	1
0	740	138.350074622485	0
0	767	140.184720781162	1
0	771	142.935042266653	0
0	788	145.457091535261	1
0	793	147.506251148396	2
0	794	149.43411705467	1
0	799	149.664436743346	0
0	824	152.12585563471	1
0	826	152.286435961698	2
0	827	152.845016181981	1
0	833	152.863659534796	2
0	834	153.033880219916	1
0	839	153.503844243966	0
0	845	154.152984256638	1
0	850	156.114063805263	0
0	858	156.550141778972	1
0	859	156.88543071985	0
0	865	157.038328280366	1
0	866	157.312670274327	0
0	873	158.329902442905	1
0	874	159.475499909572	0
0	885	159.85144308613	1
0	887	160.454417888336	2
0	890	161.252026199657	3
0	891	161.754572121234	2
0	898	162.098580237836	1
0	903	162.335126131652	0
0	978	181.715616704675	1
0	980	182.150977312038	0
0	1007	187.133155263862	1
0	1012	187.948873226844	0
0	1018	190.354524151467	1
0	1020	191.398223968081	0
0	1043	193.862822092733	1
0	1048	197.021708054919	0
0	1055	200.028654552106	1
0	1056	200.120030282777	0
0	1094	209.490035681819	1
0	1095	209.636548874401	0
0	1142	220.024301970366	1
0	1143	220.960775812614	0
0	1149	221.043513091726	1
0	1151	221.649072602114	0
0	1157	221.827606231948	1
0	1158	222.347190597302	0
0	1164	222.795434742639	1
0	1166	222.852070399133	2
0	1168	222.910986770306	1
0	1176	223.091314606057	2
0	1179	223.267153080809	1
0	1186	224.082988427048	0
0	1206	226.12590963705	1
0	1208	226.172877407134	2
0	1210	227.010791099802	3
0	1211	227.49471658703	2
0	1216	227.506091106991	1
0	1220	227.954179821845	2
0	1224	229.935178378039	3
0	1226	229.950671173662	4
0	1229	230.19000536393	3
0	1233	231.146963303795	4
0	1235	231.783874566065	5
0	1241	232.876998585109	6
0	1246	235.408698505508	5
0	1251	236.216585111288	4
0	1259	237.971085549763	3
0	1265	238.398513109128	4
0	1267	239.155200515011	5
0	1268	239.94440513005	4
0	1273	243.044422820354	3
0	1282	244.052308218901	2
0	1287	245.077882477724	1
0	1295	245.888203439471	2
0	1296	246.167306743188	1
0	1302	250.017990860344	0
0	1309	251.051480452349	1
0	1310	251.115157960512	0
0	1321	251.345005921799	1
0	1323	252.31271283327	2
0	1328	254.431395355564	3
0	1333	255.703700924562	2
0	1337	256.596367866077	3
0	1340	256.824550687327	2
0	1344	257.667896838835	3
0	1346	258.355748525976	4
0	1350	260.091683673707	5
0	1355	260.925227047877	4
0	1361	265.444738037226	5
0	1362	265.847397256922	4
0	1367	266.4719356418	3
0	1371	267.719626796846	4
0	1373	267.822584461016	5
0	1380	271.30789551527	4
0	1384	272.453522367829	5
0	1388	273.637096946301	6
0	1389	273.827000882156	5
0	1393	274.412767756389	6
0	1396	275.031428906576	5
0	1401	277.281094702321	4
0	1405	277.693434289421	5
0	1407	278.113439227678	6
0	1411	279.22363888775	5
0	1416	279.441818131875	4
0	1420	279.935593214022	5
0	1423	281.281001678753	4
0	1429	282.762700426253	3
0	1436	283.205154604748	4
0	1437	283.674429194713	3
0	1443	283.768873776587	4
0	1444	284.173462495175	3
0	1448	285.58271286673	4
0	1452	286.24192828415	5
0	1454	287.241581372504	4
0	1460	288.331835053268	3
0	1466	288.858297434718	4
0	1467	288.865266726237	3
0	1473	289.354732973866	4
0	1474	289.799572251369	3
0	1480	290.219185880028	4
0	1488	291.91218121512	3
0	1493	292.014344966846	2
0	1498	292.743883363479	1
0	1503	293.352551237307	0
0	1510	293.766104344534	1
0	1512	293.871065046741	0
0	1526	294.522700906402	1
0	1528	294.663915497731	2
0	1530	295.296037915258	3
0	1531	295.695368233845	2
0	1537	296.393597865228	1
0	1544	296.944581856541	2
0	1545	297.055454766077	1
0	1551	297.419602641717	2
0	1553	297.800954249174	3
0	1555	297.838998567363	4
0	1557	298.400111894074	5
0	1558	298.434379357689	4
0	1564	298.812001467009	5
0	1574	300.111825425807	6
0	1579	301.213451868885	5
0	1585	301.36849131898	6
0	1589	303.208253031995	5
0	1595	303.625568714344	6
0	1596	303.790770747058	5
0	1604	304.937094305593	6
0	1605	305.458285740707	5
0	1611	305.471828714031	6
0	1612	305.818376186811	5
0	1618	307.347141297221	6
0	1621	308.581318002305	5
0	1630	309.913809644103	4
0	1636	310.894516422835	5
0	1637	311.132726412211	4
0	1641	311.935448267331	5
0	1645	312.610589591205	4
0	1650	312.867871478801	3
0	1654	314.111817930395	4
0	1662	315.786117194871	3
0	1667	315.822827934684	2
0	1671	317.271046802329	3
0	1673	318.139248330249	4
0	1676	318.391232899353	3
0	1682	319.519644539424	4
0	1685	320.845898880779	3
0	1690	321.060317673896	2
0	1695	321.743158121552	1
0	1699	322.307193581711	2
0	1706	323.295337445464	1
0	1710	324.102484946224	2
0	1716	325.193039809185	1
0	1721	325.213370071841	0
0	1746	327.079479010198	1
0	1748	327.163540259827	2
0	1751	328.930398636504	3
0	1754	329.602422393829	2
0	1760	329.817099938386	3
0	1762	330.513093574736	2
0	1768	330.921676208239	3
0	1770	331.081329531718	2
0	1775	332.053345559244	1
0	1780	332.228377920007	0
0	1786	332.881298260992	1
0	1788	333.847461191319	0
0	1813	335.119261139193	1
0	1816	335.465704395477	0
0	1820	335.886268714017	1
0	1823	336.139813017416	0
0	1830	338.087677080084	1
0	1831	338.172175895294	0
0	1847	340.618961516665	1
0	1855	342.198760250457	2
0	1857	342.496563136528	3
0	1861	343.254886890456	2
0	1870	344.155711856396	3
0	1871	344.928298723606	2
0	1876	345.274247900454	1
0	1882	345.351227447735	2
0	1887	346.639526247394	1
0	1893	346.970763549669	0
0	1922	349.219024552398	1
0	1926	350.170427033708	2
0	1928	350.61288908787	3
0	1931	350.943865650744	2
0	1936	351.050686207869	1
0	1946	352.321960866135	0
0	1972	355.009097167924	1
0	1973	355.082802449967	0
0	1982	355.510412086427	1
0	1984	355.917371718734	2
0	1986	356.059520901061	3
0	1991	357.444090778284	4
0	1993	357.517175610459	5
0	1995	358.46523861174	4
0	2000	358.651231631437	3
0	2005	358.831380208728	2
0	2011	359.046131433096	3
0	2013	359.531684698811	2
0	2020	359.713968043852	3
0	2023	359.986425390658	2
0	2032	360.854224701955	1
0	2036	361.08283322151	2
0	2038	362.373855110703	3
0	2043	364.412866831491	2
0	2049	366.494905813834	1
0	2055	366.946027022454	2
0	2057	370.348037672788	1
0	2063	371.05672677152	0
0	2069	371.088154840783	1
0	2071	371.533965863043	2
0	2072	373.690482200555	1
0	2079	374.891483718303	2
0	2080	375.54202954879	1
0	2088	376.121146992233	2
0	2089	376.240096006867	1
0	2095	376.542639909152	0
0	2101	376.761418792223	1
0	2102	377.455719137564	0
0	2108	377.746617130592	1
0	2109	378.670829479264	0
0	2137	382.265666788588	1
0	2138	382.541598763104	0
0	2144	382.566745774289	1
0	2146	382.681935307432	2
0	2147	382.946562011986	1
0	2153	383.474645937183	2
0	2156	384.365413240797	1
0	2161	384.400767890004	0
0	2174	386.97789852628	1
0	2176	387.056779159785	2
0	2178	387.799865761902	3
0	2180	387.818783372706	4
0	2182	388.002223171084	3
0	2191	388.392091505927	2
0	2196	388.392759689396	1
0	2200	388.932765664913	2
0	2206	389.420979787057	3
0	2211	389.960894119684	4
0	2212	390.00332285179	3
0	2217	391.847135203686	2
0	2221	394.11410417758	3
0	2224	395.972414267996	2
0	2229	398.674355681314	1
0	2236	399.25504928209	2
0	2237	399.634636521784	1
0	2243	399.796776319838	2
0	2244	399.798810828082	1
0	2249	402.309874858937	0
0	2253	402.788573682472	1
0	2258	404.03684879078	0
0	2275	405.522620335556	1
0	2276	405.630620921807	0
0	2307	416.741624557807	1
0	2310	417.062988549032	0
0	2322	418.174824781823	1
0	2323	418.412394823837	0
0	2329	418.553379773393	1
0	2331	419.43679120524	0
0	2342	421.224223362614	1
0	2344	422.67772964609	2
0	2347	423.891460395537	1
0	2356	424.779805398298	0
0	2370	426.719452400638	1
0	2376	427.850705479222	2
0	2378	428.426944553371	3
0	2380	428.503027303323	4
0	2381	428.840755973982	3
0	2391	431.137191279731	4
0	2392	431.158111680618	3
0	2397	431.499990213003	2
0	2404	431.935359339583	1
0	2412	433.926118389674	2
0	2414	434.205688854972	3
0	2417	435.704142146052	2
0	2424	436.188712038775	3
0	2427	436.362042110902	2
0	2432	437.284320300976	1
0	2437	440.049587490065	0
0	2445	442.620590748138	1
0	2448	444.347733282015	0
0	2452	444.700855526574	1
0	2454	444.964015085463	2
0	2456	444.97711539707	3
0	2459	445.198098813301	2
0	2466	446.639096869273	1
0	2472	447.803872096198	2
0	2475	448.665366006142	1
0	2483	450.179740403381	2
0	2487	450.739960938074	3
0	2488	450.846946373585	2
0	2493	452.107256986819	1
0	2499	454.179651131114	2
0	2501	454.531495486143	1
0	2510	456.013065240625	2
0	2511	456.484992288016	1
0	2516	457.28264289784	0
0	2520	457.446511173018	1
0	2522	457.93954339086	2
0	2524	459.13106761136	3
0	2528	460.274724510161	4
0	2530	460.291120610112	5
0	2531	461.292260417986	4
0	2535	461.428690004342	5
0	2538	463.524666573442	4
0	2542	463.654781963585	5
0	2545	465.161638034959	4
0	2551	470.616852747282	5
0	2559	471.448718661419	6
0	2560	471.978225368977	5
0	2564	472.020301182089	6
0	2570	473.919405089425	5
0	2577	474.934859829133	6
0	2582	476.770997280721	7
0	2585	480.006441936713	6
0	2590	480.47639538906	5
0	2597	481.527340091551	4
0	2602	481.710885374905	3
0	2607	482.183553159103	2
0	2614	483.94605908621	3
0	2615	484.014558989918	2
0	2620	484.248544895169	1
0	2625	486.305904438015	0
0	2634	487.676971251245	1
0	2635	487.755871904129	0
0	2646	488.591004485737	1
0	2647	489.264116383222	0
0	2653	489.583795011401	1
0	2654	490.288414983257	0
0	2699	494.956866885621	1
0	2701	495.145282883312	2
0	2704	495.725767711376	1
0	2714	497.636629432969	0
0	2720	498.058418299264	1
0	2722	498.82496854853	0
0	2731	499.835090016479	1
0	2733	499.90437114847	2
0	2734	500.066041933305	1
0	2739	500.325547663684	0
0	2756	500.965816608014	1
0	2757	501.32794175845	0
0	2767	501.68638011106	1
0	2771	504.831451829708	0
0	2789	505.771585325239	1
0	2795	508.963617604434	0
0	2801	510.693270501502	1
0	2803	512.78590527615	0
0	2834	516.676684620377	1
0	2836	517.014980198773	2
0	2843	519.465938861251	1
0	2853	521.589633949277	0
0	2870	522.383125505033	1
0	2871	522.745970156348	0
0	2882	526.778907757115	1
0	2885	527.560226390437	2
0	2888	529.087610877851	1
0	2895	529.648363265177	2
0	2897	529.851540842312	3
0	2898	530.036115783327	2
0	2903	530.431695731723	1
0	2909	530.534032483272	2
0	2910	530.622158982382	1
0	2915	530.985349958886	0
0	2922	532.662611609744	1
0	2924	532.714518237946	2
0	2926	532.857783143279	3
0	2929	533.424479596372	2
0	2933	534.573502862281	3
0	2936	536.20660536615	2
0	2945	538.66892794445	1
0	2951	539.765365298579	0
0	2963	540.811438449147	1
0	2965	541.520307692498	0
0	2976	541.841453539129	1
0	2979	541.935623813964	0
0	2983	543.022862322185	1
0	2985	543.594439582153	2
0	2989	544.557002250071	3
0	2992	545.238879756592	4
0	2993	545.313470596341	3
0	2999	547.983670689246	2
0	3005	548.292067276971	1
0	3011	548.688452827565	2
0	3014	550.344446333183	1
0	3018	550.987678932814	2
0	3024	551.746445008895	1
0	3030	552.119435184414	2
0	3031	552.36595116803	1
0	3036	553.229046944757	0
0	3052	554.124568964364	1
0	3058	556.603771428465	0
0	3064	557.504082107081	1
0	3065	557.657057125826	0
0	3078	558.66150853979	1
0	3080	559.392830631016	2
0	3081	559.583339384854	1
0	3087	560.020825722774	2
0	3088	560.128243663723	1
0	3094	560.730351234628	0
0	3100	560.765717809396	1
0	3103	560.964818505594	2
0	3107	561.999278376329	1
0	3113	563.620369837769	2
0	3114	563.97658508514	1
0	3119	564.017447667053	0
0	3140	565.313877861606	1
0	3145	566.931902395382	0
0	3159	569.373244876745	1
0	3163	570.776612847663	2
0	3165	571.200803369827	3
0	3168	572.867345253027	2
0	3173	573.100183014447	1
0	3178	573.887329582988	0
0	3188	575.023679449393	1
0	3191	575.272210207333	0
0	3208	576.914382695796	1
0	3209	577.527436196034	0
0	3215	579.124259129524	1
0	3218	580.207182512283	0
0	3222	580.288816049548	1
0	3224	580.864179331426	2
0	3227	581.299735560559	1
0	3231	581.803399656479	2
0	3233	583.309574043522	3
0	3237	583.810313303025	2
0	3241	583.99576147327	3
0	3246	585.074566084857	2
0	3251	586.242288276393	1
0	3255	587.185521671832	2
0	3259	588.248830566066	3
0	3265	589.193616494545	4
0	3267	589.946794213422	5
0	3268	589.963707662044	4
0	3276	591.83775845926	5
0	3278	592.338819060752	6
0	3280	592.605021051755	7
0	3284	593.081863331032	8
0	3287	593.558668695622	9
0	3288	593.76196156061	8
0	3293	594.332533642444	7
0	3298	594.934633893074	6
0	3312	597.891745621382	5
0	3317	597.930631112934	4
0	3323	599.065233342461	3
0	3329	600.173763833372	4
0	3331	600.473939199648	5
0	3332	600.58320311204	4
0	3337	600.850843677801	3
0	3342	601.356004697425	2
0	3347	601.747431077254	1
0	3351	602.158212980315	2
0	3354	603.081284496515	1
0	3362	605.753580149449	2
0	3364	608.26267884532	1
0	3370	609.213697324172	2
0	3371	609.558405008597	1
0	3378	610.389220865981	0
0	3389	610.994587844313	1
0	3392	611.752290307978	2
0	3394	612.028234450668	1
0	3400	612.541949237307	0
0	3429	613.756930728694	1
0	3431	616.171812671025	2
0	3433	616.524790812487	3
0	3435	617.091178047359	4
0	3438	617.577432819407	3
0	3443	618.531333239221	2
0	3447	618.84399185017	3
0	3452	622.818089652519	4
0	3454	623.665058507388	5
0	3455	623.747017055489	4
0	3459	623.891732315764	5
0	3461	625.994602825022	6
0	3463	626.393473006008	7
0	3466	629.030128182928	6
0	3472	630.625894943227	5
0	3479	633.032721398781	6
0	3482	633.338408866379	5
0	3488	634.102699941291	6
0	3490	634.15553049569	7
0	3491	634.322356213047	6
0	3495	637.330613240482	7
0	3499	638.167092363795	8
0	3504	641.001730718501	7
0	3510	642.663158595873	8
0	3513	643.103118791907	7
0	3518	643.238245491461	6
0	3525	644.345762748871	5
0	3532	646.883838838825	4
0	3537	648.184392844001	3
0	3545	648.788989117366	4
0	3547	649.044876539115	5
0	3549	649.190960937568	6
0	3551	650.039521258943	7
0	3552	650.653357536951	6
0	3557	652.2834361311	5
0	3563	653.008745454433	6
0	3564	653.039764460814	5
0	3570	653.776108000055	6
0	3572	655.431100721463	7
0	3574	655.966591578931	8
0	3577	657.589720889358	7
0	3582	660.413887442385	6
0	3587	660.724673920473	5
0	3595	661.207560132691	6
0	3597	662.005756569387	5
0	3603	662.044538083858	6
0	3604	662.283141092808	5
0	3611	663.175153720204	4
0	3617	663.715523326388	3
0	3623	664.013697279875	2
0	3629	664.589768584856	3
0	3630	664.894392826736	2
0	3638	665.858451738971	3
0	3641	666.246852906897	2
0	3645	668.152578233947	3
0	3648	668.998890376717	2
0	3652	669.02052677134	3
0	3656	669.435250373861	4
0	3658	669.5502990005	5
0	3659	669.82363290584	4
0	3668	671.580161380754	3
0	3674	672.904436959537	4
0	3677	675.256965413747	3
0	3684	678.122285411414	2
0	3689	681.865819432787	1
0	3694	682.143270668288	0
0	3700	682.71363253658	1
0	3701	683.196811188021	0
0	3720	685.199076462517	1
0	3725	687.253538174422	2
0	3727	687.283483023277	3
0	3728	687.873522851726	2
0	3734	688.633813670722	1
0	3742	691.357065224536	0
0	3760	691.707132562311	1
0	3761	691.730230814267	0
0	3774	693.338141249783	1
0	3775	693.608118709123	0
0	3794	695.820017567755	1
0	3798	697.065056704311	2
0	3799	697.444511215936	1
0	3804	697.611260427127	0
0	3811	699.237982329788	1
0	3813	699.257665230325	2
0	3814	700.392932274498	1
0	3819	700.544760014725	0
0	3825	701.825962006198	1
0	3829	705.068625056781	0
0	3859	712.171888292427	1
0	3861	712.435594146941	0
0	3872	714.04552089901	1
0	3873	714.955284412372	0
0	3880	715.157332479954	1
0	3881	715.23311363936	0
0	3908	722.240582496916	1
0	3910	722.473665060175	2
0	3911	723.101990906879	1
0	3917	723.974973756445	0
0	3955	733.540434414763	1
0	3959	734.432208444739	2
0	3962	735.432003262233	1
0	3967	736.088989807466	0
0	3973	736.128518903191	1
0	3974	736.311562321988	0
0	3980	736.43657929105	1
0	3985	737.549313526899	2
0	3986	738.217613023115	1
0	3992	738.483793606306	0
0	3998	739.561724712528	1
0	4000	740.069789256434	2
0	4002	740.901768238369	3
0	4006	744.884727960674	2
0	4012	745.423911540911	1
0	4018	746.489354968989	0
0	4034	749.310858618412	1
0	4035	750.327980112985	0
0	4041	750.562447323725	1
0	4042	750.695453844044	0
0	4079	752.821334745053	1
0	4081	752.8284767016	2
0	4082	754.033887079683	1
0	4087	754.323333991526	0
0	4104	756.70861977325	1
0	4106	757.973585210221	0
0	4119	759.652850302119	1
0	4120	759.86447456889	0
0	4131	760.153958755453	1
0	4133	761.142539068647	0
0	4168	764.602842749236	1
0	4170	765.209004077631	0
0	4205	772.826068809689	1
0	4207	772.936623479743	2
0	4209	773.495959224984	3
0	4212	775.2059916193	2
0	4218	775.537650728185	1
0	4226	777.765016073307	2
0	4228	779.211247739882	1
0	4235	779.784376673632	2
0	4236	779.945589443315	1
0	4244	782.355614642987	0
0	4250	782.63536711977	1
0	4251	783.449528074582	0
0	4279	785.932732733062	1
0	4280	786.139742691252	0
0	4289	786.8068279219	1
0	4291	788.791019644649	2
0	4299	791.005867620075	1
0	4305	791.974231530911	0
0	4341	796.897245544929	1
0	4343	797.384637652373	2
0	4344	798.252659765478	1
0	4349	798.425398688296	0
0	4365	799.160221288295	1
0	4369	799.796766588541	2
0	4375	802.475936623055	1
0	4382	802.545761405287	0
0	4395	803.64257208292	1
0	4398	804.130601407729	0
0	4405	805.492711959222	1
0	4406	806.355400515426	0
0	4436	807.753586958585	1
0	4437	808.169158465448	0
0	4449	809.187623683928	1
0	4450	809.766816059648	0
0	4468	813.277514782141	1
0	4470	815.618832166051	0
0	4500	820.118651046426	1
0	4501	820.638223325753	0
0	4510	821.582455903803	1
0	4515	825.299680000404	0
0	4524	825.664657085282	1
0	4528	826.406466662345	2
0	4530	826.558266187097	3
0	4532	826.843370212887	4
0	4538	829.411166337633	3
0	4544	829.883199705636	4
0	4547	830.555793423487	3
0	4552	830.582207861777	2
0	4557	830.83618163545	1
0	4564	833.442903791273	2
0	4566	833.823983490511	1
0	4571	833.858335187791	0
0	4639	844.725636241226	1
0	4643	845.332747261582	2
0	4645	845.769861289727	1
0	4650	845.783992572758	0
0	4697	855.004856176145	1
0	4700	855.647407965376	0
0	4711	857.268892371009	1
0	4715	858.328501431905	2
0	4719	859.312954622286	3
0	4721	859.516709797795	2
0	4726	859.844661113239	1
0	4732	860.847586235208	0
0	4739	861.270274076805	1
0	4740	861.345204412872	0
0	4758	863.970050111379	1
0	4761	864.673827659146	0
0	4767	864.954055683419	1
0	4768	865.44543920284	0
0	4779	866.729320420004	1
0	4782	867.612970331696	2
0	4786	868.479842418986	1
0	4791	869.016424829622	0
0	4816	873.171230995928	1
0	4820	873.600875077097	2
0	4823	875.347292161021	1
0	4829	877.334765125321	0
0	4857	880.000214430762	1
0	4859	882.030123691311	2
0	4861	882.542236525321	3
0	4868	886.484278936445	2
0	4874	886.965173488365	1
0	4879	888.910596335716	0
0	4896	891.377326435303	1
0	4897	892.144056029129	0
0	4927	897.976954338683	1
0	4934	899.147113973489	0
0	4965	903.177121855078	1
0	4967	903.534487840273	2
0	4971	905.355197773152	1
0	4976	906.512543117596	0
0	4980	907.044594388319	1
0	4983	907.241035438761	0
0	4987	907.762433024612	1
0	4993	908.547601405721	0
0	5004	909.305631361031	1
0	5005	909.335610583161	0
0	5101	932.989868740864	1
0	5102	933.122486167236	0
0	5108	934.162006329408	1
0	5109	935.77415377284	0
0	5148	946.551071628469	1
0	5149	946.744999317047	0
0	5155	946.962905956963	1
0	5156	946.9784462912	0
0	5162	947.374073277087	1
0	5164	947.439985292546	2
0	5165	947.473865845508	1
0	5171	948.462194094753	2
0	5175	949.859213765588	3
0	5177	950.446684146151	4
0	5179	950.851227675479	5
0	5180	950.85863928181	4
0	5186	951.367392201916	3
0	5196	952.081717350268	2
0	5203	953.338663335178	1
0	5208	953.523182016052	0
0	5244	958.088605821294	1
0	5247	958.996636736242	0
0	5258	960.229890431301	1
0	5259	960.304645392673	0
0	5314	970.578605011421	1
0	5315	970.900850327613	0
0	5321	970.917781798684	1
0	5323	970.960436505497	0
0	5329	971.185189370109	1
0	5331	971.499253415673	2
0	5332	972.080461537415	1
0	5337	972.317890636035	0
0	5341	972.339799170156	1
0	5343	972.435474033387	2
0	5346	973.520220873452	1
0	5356	974.534808124928	2
0	5358	974.805318698262	3
0	5360	975.994262617568	4
0	5361	976.175780321846	3
0	5366	976.444032748095	2
0	5375	978.964122686342	1
0	5379	979.73261086404	2
0	5381	979.818179516068	3
0	5385	983.00677753557	4
0	5393	988.734026079212	5
0	5397	989.170306961138	6
0	5400	990.634359717269	5
0	5405	991.301587307867	4
0	5414	993.285758895499	3
0	5423	993.714265816383	4
0	5428	995.918297509437	5
0	5430	996.358210478329	6
0	5431	996.392128703792	5
0	5440	997.475450515462	4
0	5446	998.047584440005	3
0	5451	998.121021572506	2
0	5456	998.980530483379	1
0	5461	999.539931729506	0
0	5468	999.837334671839	1
0	5470	1000.568006322477	2
0	5471	1000.834228504113	1
0	5476	1001.608106341763	0
0	5484	1003.45880081775	1
0	5485	1003.519514551271	0
0	5505	1005.74617149304	1
0	5506	1005.832806966725	0
0	5518	1006.520760363182	1
0	5520	1006.693095287371	2
0	5521	1006.903758364808	1
0	5526	1007.006676399356	0
0	5532	1007.045657631356	1
0	5537	1008.241333322342	0
0	5549	1010.329302337041	1
0	5550	1010.541635835901	0
0	5579	1013.585126695319	1
0	5581	1013.681326678137	2
0	5582	1014.043598499918	1
0	5588	1014.073528977715	2
0	5589	1014.288126838949	1
0	5596	1015.673476467584	0
0	5621	1022.13413427782	1
0	5624	1022.641768663653	2
0	5626	1024.155710172551	1
0	5634	1025.350438570504	0
0	5652	1026.40961547484	1
0	5653	1026.471340298463	0
0	5672	1027.321604984927	1
0	5675	1028.325191509316	0
0	5691	1030.798561420387	1
0	5693	1031.47669789024	2
0	5699	1036.185222217757	3
0	5702	1036.686945756883	2
0	5708	1036.871058008099	3
0	5709	1036.985178998104	2
0	5715	1038.394098556985	1
0	5719	1038.865107606165	2
0	5723	1042.330645198231	1
0	5729	1042.361341963167	2
0	5734	1043.082422785302	3
0	5735	1044.868539802043	2
0	5739	1045.854732188017	3
0	5742	1046.615966475491	2
0	5747	1046.889918829744	1
0	5752	1047.601680523929	0
0	5758	1048.488498355819	1
0	5763	1049.40495282598	2
0	5765	1049.719242040616	3
0	5767	1051.934397015037	2
0	5772	1053.442435418402	1
0	5777	1053.444733890993	0
0	5788	1056.943026713049	1
0	5790	1057.27721580641	0
0	5794	1057.344237227476	1
0	5797	1057.855786033936	0
0	5801	1059.479816029719	1
0	5803	1059.829649141457	2
0	5807	1060.619776245377	3
0	5810	1061.271877751823	2
0	5816	1061.913676094019	3
0	5818	1062.411579720796	4
0	5819	1062.469334877941	3
0	5827	1062.876152957645	4
0	5830	1063.430924949085	3
0	5839	1064.318438038	2
0	5846	1066.145012892842	1
0	5851	1066.155170335069	0
0	5864	1068.800217369083	1
0	5869	1069.789183864694	0
0	5875	1070.233708036357	1
0	5878	1072.448902696654	0
0	5909	1076.25211243445	1
0	5915	1077.782639509012	0
0	5924	1078.696932457683	1
0	5926	1078.867791839236	2
0	5930	1079.489175925619	3
0	5934	1080.005952051299	4
0	5942	1082.242921339172	5
0	5943	1083.592733145509	4
0	5948	1083.802991047532	3
0	5954	1084.637490172626	2
0	5963	1085.06348513731	1
0	5968	1085.447701801016	0
0	5982	1086.705671189337	1
0	5986	1087.144244185957	0
0	6003	1090.163840955473	1
0	6005	1090.342669793857	0
0	6014	1091.29340297148	1
0	6017	1092.696975220431	0
0	6036	1097.96966003139	1
0	6040	1099.692072168191	0
0	6061	1102.212634535155	1
0	6062	1102.298764482459	0
0	6069	1103.709352315569	1
0	6070	1104.237839137824	0
0	6079	1104.864947152691	1
0	6084	1107.405498265849	0
0	6118	1112.595536994227	1
0	6119	1114.09950460282	0
0	6131	1115.039278430781	1
0	6135	1116.570292744073	2
0	6138	1118.276423437675	1
0	6144	1118.895300972174	0
0	6153	1119.301711541823	1
0	6157	1119.911988664688	2
0	6159	1119.983961070996	3
0	6161	1120.061681300209	4
0	6165	1120.92711253664	5
0	6166	1121.379844726491	4
0	6171	1123.575940053941	3
0	6176	1123.821209782646	2
0	6181	1123.824774366505	1
0	6187	1124.198314795832	2
0	6192	1126.564147790001	1
0	6201	1128.463431029366	0
0	6226	1132.582515555287	1
0	6229	1132.83120194193	0
0	6255	1135.711286871872	1
0	6258	1136.243547365751	2
0	6259	1136.458781995887	1
0	6269	1137.294424913153	0
0	6283	1138.183382163055	1
0	6284	1138.519178153514	0
0	6308	1142.274181920655	1
0	6312	1142.582071011477	2
0	6316	1143.339493083568	3
0	6319	1144.724118962543	2
0	6326	1147.544693621836	1
0	6333	1149.405392652189	0
0	6345	1150.389933759137	1
0	6348	1152.025669840545	0
0	6376	1159.990503539214	1
0	6379	1161.118508200399	2
0	6380	1161.294762948308	1
0	6387	1161.72680029084	2
0	6388	1161.860553721042	1
0	6393	1161.866460461885	0
0	6419	1163.543257241024	1
0	6420	1163.58058175143	0
0	6453	1168.921757747738	1
0	6454	1169.185336709583	0
0	6478	1172.965327966042	1
0	6479	1173.576889111462	0
0	6510	1179.846159610099	1
0	6514	1180.305183167058	2
0	6518	1181.480854714411	3
0	6520	1182.604336118139	4
0	6522	1182.995728799289	5
0	6523	1183.430145762246	4
0	6529	1184.049249194688	3
0	6535	1184.641210866145	2
0	6542	1184.710851124775	1
0	6547	1186.128955065669	0
0	6561	1189.805778529278	1
0	6564	1191.996129095973	0
0	6576	1192.702479114894	1
0	6577	1193.324287858667	0
0	6583	1193.329042107646	1
0	6584	1193.544618187041	0
0	6607	1196.268007724212	1
0	6611	1197.715877974774	2
0	6613	1198.545187487167	1
0	6617	1199.236787560235	2
0	6619	1199.322118018518	3
0	6621	1199.389645642362	4
0	6624	1199.693125572075	3
0	6630	1199.825786879865	4
0	6633	1200.269455639683	3
0	6638	1201.712933360458	2
0	6651	1206.882571366133	1
0	6656	1207.156216495753	0
0	6660	1207.311546256297	1
0	6665	1210.578188213815	2
0	6666	1210.662912737361	1
0	6672	1210.963854972211	2
0	6675	1211.321356025683	3
0	6676	1211.45391801648	2
0	6681	1212.653843263009	1
0	6687	1215.747802842335	0
0	6693	1215.957155573781	1
0	6694	1216.592060367706	0
0	6698	1218.244628313747	1
0	6701	1219.609438221551	0
0	6707	1219.741926736453	1
0	6709	1220.357588458435	2
0	6714	1222.395304090154	3
0	6715	1222.536911903528	2
0	6723	1222.927481411318	1
0	6728	1223.421773828305	0
0	6749	1224.902745112215	1
0	6753	1225.139724117824	2
0	6762	1226.948980304345	1
0	6768	1228.004208267784	0
0	6774	1229.318783241374	1
0	6775	1229.420286802997	0
0	6791	1230.644664409534	1
0	6793	1232.140082328238	2
0	6794	1232.371781733343	1
0	6799	1233.36087127219	0
0	6816	1233.597794517565	1
0	6817	1233.662605792509	0
0	6821	1233.672424824007	1
0	6826	1236.806884857744	0
0	6843	1237.603671532094	1
0	6849	1239.259308756342	0
0	6871	1240.647924092996	1
0	6873	1240.708121155969	2
0	6876	1242.356745232614	3
0	6878	1242.650066197149	4
0	6879	1242.656354196077	3
0	6885	1243.000579738537	4
0	6886	1243.025834310489	3
0	6892	1243.48819252514	4
0	6893	1243.501679808609	3
0	6900	1243.733383934158	2
0	6905	1243.982935572298	1
0	6913	1245.510221994181	2
0	6919	1247.274178921961	3
0	6921	1247.605171986429	4
0	6923	1247.679158050727	5
0	6924	1247.903497215423	4
0	6929	1248.914839162274	3
0	6934	1249.020792771804	2
0	6943	1251.500197938657	1
0	6951	1251.909436095498	0
0	6957	1252.602715159734	1
0	6961	1253.738696032553	0
0	6972	1254.11358129029	1
0	6981	1257.278120165713	0
0	6987	1258.686621415393	1
0	6988	1259.738311457858	0
0	6992	1259.848375988492	1
0	6995	1262.186780072253	0
0	7004	1264.038658271182	1
0	7005	1264.113385355741	0
0	7018	1264.613737533625	1
0	7020	1264.771419679632	0
0	7034	1266.071364424093	1
0	7036	1266.808978054531	0
0	7057	1267.928759612668	1
0	7058	1268.325570528775	0
0	7076	1270.082906438899	1
0	7081	1271.344515826388	0
0	7093	1272.407887210293	1
0	7094	1272.681247922381	0
0	7100	1272.861164017399	1
0	7103	1273.656776787331	2
0	7104	1273.831278014486	1
0	7109	1273.907531828837	0
0	7116	1274.673047409322	1
0	7117	1275.075143434529	0
0	7123	1276.501655572622	1
0	7126	1277.182987834261	0
0	7155	1284.452102499485	1
0	7158	1285.227893513588	0
0	7164	1285.428468518409	1
0	7166	1285.78414734016	0
0	7186	1287.9768594945	1
0	7193	1290.858493138175	2
0	7196	1292.799101085292	1
0	7203	1293.025941694564	2
0	7204	1293.090362010658	1
0	7213	1293.989790109935	0
0	7219	1294.007941558009	1
0	7222	1294.156617191656	0
0	7236	1296.468961098692	1
0	7237	1297.131497327918	0
0	7248	1297.476620971662	1
0	7250	1298.459851546329	0
0	7257	1299.793736450356	1
0	7258	1299.898817459569	0
0	7313	1306.541724205168	1
0	7318	1308.143923997292	2
0	7320	1308.514978356166	3
0	7321	1309.104157227979	2
0	7326	1309.743003816219	1
0	7333	1310.081434156134	2
0	7337	1311.535119144794	1
0	7342	1311.536416717886	0
0	7355	1313.463794538336	1
0	7356	1313.64767418424	0
0	7368	1315.384483367015	1
0	7370	1315.731990946685	2
0	7372	1316.009578194695	3
0	7373	1316.017387574839	2
0	7379	1317.052209705735	1
0	7384	1317.209477538452	0
0	7414	1319.926079393248	1
0	7415	1320.01246929443	0
0	7422	1321.059913170799	1
0	7425	1321.471232676879	2
0	7426	1321.599829580006	1
0	7434	1322.433550969904	2
0	7440	1323.862741130255	1
0	7445	1324.210087720071	0
0	7479	1326.776697622816	1
0	7482	1329.427749285779	0
0	7499	1330.181525256219	1
0	7502	1331.101757221489	0
0	7521	1331.763804627556	1
0	7523	1332.398645192266	0
0	7555	1337.02879961385	1
0	7556	1337.077662125104	0
0	7576	1340.970768978522	1
0	7578	1341.003965995097	2
0	7579	1341.0181038631	1
0	7584	1341.85787214934	0
0	7588	1341.927931091113	1
0	7593	1342.961539719329	2
0	7594	1343.110046784354	1
0	7598	1343.954202304127	2
0	7601	1345.26613534998	1
0	7605	1346.103000771128	2
0	7609	1347.265173659325	3
0	7611	1348.627524894988	4
0	7614	1348.740559275342	3
0	7620	1350.017211301368	4
0	7621	1350.074526253356	3
0	7628	1351.189865978328	2
0	7633	1351.263163269305	1
0	7637	1351.626951315821	2
0	7642	1352.536166949373	1
0	7647	1353.674095063562	0
0	7653	1355.638961515516	1
0	7655	1355.653945475614	2
0	7657	1357.768619351424	3
0	7661	1359.616382647095	4
0	7662	1359.907354450502	3
0	7667	1360.949125467311	2
0	7674	1362.422799284159	1
0	7681	1364.003445428546	0
0	7687	1364.806435875991	1
0	7688	1365.102571453627	0
0	7692	1365.630285072845	1
0	7694	1366.347096557544	2
0	7697	1367.055906031116	1
0	7702	1367.693302452775	0
0	7706	1367.76173338072	1
0	7710	1367.958730097417	2
0	7713	1369.731898986065	1
0	7717	1370.650326636122	2
0	7722	1371.690606429996	3
0	7723	1371.7695618546	2
0	7729	1372.366880875578	1
0	7734	1372.403824466139	0
0	7738	1372.643392045401	1
0	7745	1373.984790154783	2
0	7746	1374.01530169621	1
0	7751	1374.158807278991	0
0	7757	1376.535480842846	1
0	7758	1377.541098997932	0
0	7766	1378.585705014656	1
0	7769	1379.308900947589	0
0	7793	1381.173571601634	1
0	7796	1381.48952823935	0
0	7802	1382.239636336381	1
0	7804	1382.463066722217	2
0	7805	1382.79533337566	1
0	7810	1382.897125576805	0
0	7850	1389.614447764076	1
0	7852	1391.283580439658	2
0	7856	1392.853211638117	1
0	7861	1393.161999212254	0
0	7884	1396.815563786286	1
0	7891	1399.723003659669	2
0	7892	1399.913619396376	1
0	7897	1400.025177602817	0
0	7905	1401.257628231754	1
0	7911	1403.524130639837	2
0	7913	1404.323705410398	3
0	7915	1405.888204232819	4
0	7923	1407.681710441322	5
0	7925	1407.702433106991	6
0	7928	1408.428911815818	5
0	7933	1408.611597619542	4
0	7937	1409.959873312893	5
0	7940	1411.258511611555	4
0	7944	1414.671231763676	5
0	7947	1416.990157998505	4
0	7954	1418.15567196473	3
0	7960	1418.728479115384	4
0	7961	1419.166641274538	3
0	7971	1422.20321794293	4
0	7974	1425.009305941746	3
0	7979	1426.136017196717	2
0	7985	1428.414198303142	3
0	7987	1429.890344368686	4
0	7989	1431.180390666895	5
0	7990	1431.451136471183	4
0	7997	1432.95764640008	3
0	8004	1433.738773019818	2
0	8015	1435.234439316714	1
0	8021	1436.201378258656	0
0	8068	1440.47749949796	1
0	8070	1440.525331429011	2
0	8073	1441.912561238231	1
0	8079	1441.9296518568	2
0	8081	1442.4776473384	3
0	8082	1442.569646187858	2
0	8088	1443.788660862936	1
0	8093	1444.068301536455	0
0	8099	1444.073241286772	1
0	8100	1444.302404953374	0
0	8107	1445.54729862024	1
0	8109	1446.556473078653	0
0	8127	1449.789533600055	1
0	8130	1450.32264171476	2
0	8132	1451.1035881383	1
0	8138	1451.190934662262	0
0	8184	1459.178126775271	1
0	8186	1459.352959355396	2
0	8188	1459.382640426561	3
0	8192	1460.392158974677	4
0	8193	1460.994070589371	3
0	8199	1461.17366555012	4
0	8200	1461.539991857986	3
0	8205	1461.724891603145	2
0	8210	1462.328147426914	1
0	8217	1462.802798294319	2
0	8219	1464.137374534102	1
0	8224	1464.548697559844	0
0	8228	1465.281999374867	1
0	8230	1465.404475070889	2
0	8236	1467.37250129472	3
0	8244	1468.50662728787	4
0	8246	1468.605406184659	5
0	8248	1469.398771859261	4
0	8252	1470.002010988075	5
0	8254	1472.002596623011	6
0	8257	1474.568754626595	5
0	8261	1474.701735950534	6
0	8263	1475.401227970609	7
0	8267	1477.372375834603	8
0	8268	1477.595304442499	7
0	8272	1477.932335282179	8
0	8277	1478.84690318436	7
0	8283	1480.486678076122	8
0	8286	1481.673732591098	7
0	8292	1483.448184970013	8
0	8294	1483.991385463779	9
0	8295	1484.020375252285	8
0	8302	1485.054144827111	7
0	8307	1488.386071455405	6
0	8312	1488.992982828611	5
0	8320	1490.710207321473	4
0	8326	1491.309531561835	5
0	8327	1491.621593673212	4
0	8333	1494.933106462898	5
0	8334	1496.010436907615	4
0	8340	1497.909204644157	3
0	8347	1498.970507588076	4
0	8348	1500.183660837192	3
0	8353	1500.797331976292	2
0	8359	1502.231304732692	3
0	8360	1502.390350382292	2
0	8367	1504.170770398844	1
0	8373	1505.648782220725	2
0	8377	1506.677404393348	3
0	8378	1506.750257516273	2
0	8382	1506.909998151011	3
0	8385	1507.657667235249	2
0	8392	1508.619819432638	3
0	8394	1508.925436569563	4
0	8395	1509.52708913967	3
0	8400	1509.810723135594	2
0	8407	1510.26394585728	1
0	8412	1510.671021728392	0
0	8445	1515.023241549937	1
0	8448	1515.537688130112	0
0	8472	1517.725730441049	1
0	8474	1517.774209425841	2
0	8476	1517.813233653463	3
0	8479	1519.240297165035	2
0	8484	1519.648332869758	1
0	8491	1521.569940969525	0
0	8515	1524.836079662528	1
0	8516	1526.349553114658	0
0	8525	1527.284827821902	1
0	8528	1527.973955647185	0
0	8537	1528.913689710294	1
0	8541	1529.776677996811	2
0	8544	1530.307669410787	3
0	8546	1530.77499118425	4
0	8550	1532.064435911998	3
0	8555	1532.469686626225	2
0	8560	1532.81068808399	1
0	8566	1532.948397103248	0
0	8570	1533.50926659524	1
0	8573	1534.243786815982	0
0	8579	1534.261631359398	1
0	8581	1534.347156293249	2
0	8584	1534.578832490985	3
0	8586	1534.660138739267	4
0	8587	1534.677141408084	3
0	8592	1535.097968255489	2
0	8598	1536.389463768414	3
0	8600	1536.729267438778	4
0	8606	1536.967786233073	5
0	8609	1538.150379281634	4
0	8614	1538.671708659727	3
0	8619	1539.100551978709	2
0	8625	1539.810045074568	3
0	8626	1540.120559248613	2
0	8631	1540.93244101387	1
0	8640	1542.279647164834	0
0	8644	1543.32926377406	1
0	8648	1544.859405362136	0
0	8665	1545.584719855353	1
0	8666	1546.288044075562	0
0	8748	1560.55990289897	1
0	8756	1562.427072910971	2
0	8758	1562.933659185748	3
0	8759	1564.30585557006	2
0	8766	1565.031172369473	3
0	8767	1565.071045283384	2
0	8773	1565.27063727637	1
0	8778	1565.458435430007	0
0	8812	1570.526512192713	1
0	8816	1571.582982422644	0
0	8830	1573.299451107997	1
0	8832	1574.007565667557	2
0	8834	1576.159291949431	3
0	8836	1576.481282866838	4
0	8839	1578.143422367547	3
0	8844	1579.184853832267	2
0	8853	1579.959733671527	1
0	8858	1579.960844857481	0
0	8864	1580.073295009038	1
0	8865	1580.53350402695	0
0	8888	1581.410173444459	1
0	8892	1581.908971692965	2
0	8896	1583.996103477053	1
0	8901	1584.355520233766	0
0	8907	1584.530623933003	1
0	8908	1585.016739346889	0
0	8923	1586.26455742836	1
0	8926	1587.592919502587	2
0	8928	1588.251640974996	1
0	8936	1590.050919291479	0
0	8942	1590.209036997562	1
0	8943	1591.08779515944	0
0	8950	1592.052816236388	1
0	8952	1592.32541277006	2
0	8955	1594.170124730581	1
0	8960	1595.10362328918	0
0	8976	1597.08917354361	1
0	8978	1598.293163912477	2
0	8982	1599.519854458484	1
0	8988	1600.629330979901	2
0	8990	1600.912327036123	3
0	8992	1601.526690681688	4
0	8994	1603.065532524748	5
0	8995	1603.130548870502	4
0	9000	1603.757692442835	3
0	9005	1604.048327618554	2
0	9010	1604.206501349714	1
0	9017	1606.250768431277	0
0	9021	1606.482652643726	1
0	9025	1607.266725398744	2
0	9027	1609.178001821583	3
0	9035	1610.836365014469	4
0	9036	1611.45844565816	3
0	9042	1615.007466297801	2
0	9048	1615.574491511387	3
0	9051	1616.783269206844	4
0	9052	1617.233983791168	3
0	9060	1617.799856002614	4
0	9061	1618.195659053319	3
0	9065	1619.085605992996	4
0	9070	1619.747025751359	5
0	9071	1619.919876809763	4
0	9077	1620.537079407663	3
0	9082	1621.230316761494	2
0	9091	1627.797279333277	1
0	9097	1627.797477546272	2
0	9099	1627.923047322539	3
0	9100	1628.021512713715	2
0	9105	1629.181251614685	1
0	9110	1629.292151996347	0
0	9137	1632.272636110376	1
0	9142	1634.351282268698	2
0	9143	1634.659701740047	1
0	9150	1635.191483259712	0
0	9156	1635.439404846831	1
0	9158	1636.004253641838	2
0	9159	1636.140269112779	1
0	9165	1636.817374669097	0
0	9181	1637.81973613225	1
0	9183	1638.146977263292	0
0	9191	1638.727578086913	1
0	9192	1638.948576475059	0
0	9216	1641.093200166054	1
0	9220	1641.58820922625	2
0	9224	1642.940719131567	1
0	9230	1643.902027672018	0
0	9236	1644.041671577792	1
0	9240	1648.333737708811	0
0	9246	1649.828662109114	1
0	9247	1649.938861219384	0
0	9253	1650.130170291792	1
0	9255	1650.508445506702	2
0	9256	1650.926414572696	1
0	9262	1650.972430696249	2
0	9263	1650.980993643504	1
0	9269	1652.465378399769	2
0	9272	1653.55490568115	1
0	9278	1655.426463151048	2
0	9280	1656.009944536369	3
0	9287	1657.408335226852	2
0	9292	1658.922427990271	1
0	9296	1659.194249589945	2
0	9299	1660.212050917882	1
0	9307	1661.551835768628	0
0	9332	1664.11436341191	1
0	9334	1664.979994169268	0
0	9342	1666.393750895185	1
0	9344	1666.723432321924	2
0	9346	1667.526593170104	3
0	9349	1668.901225019458	2
0	9358	1669.17092602637	3
0	9359	1669.226295188689	2
0	9364	1669.509525267753	1
0	9370	1670.939762591925	0
0	9387	1672.916787578874	1
0	9390	1673.265888743337	0
0	9413	1674.171438485789	1
0	9416	1674.304548270159	0
0	9425	1676.241811681016	1
0	9433	1678.702518201594	0
0	9470	1686.674172818107	1
0	9474	1686.884774011666	2
0	9477	1687.150070684727	1
0	9482	1687.61444115701	0
0	9491	1689.149364562442	1
0	9497	1690.735727340691	2
0	9499	1692.303479727415	1
0	9504	1692.685700899865	0
0	9537	1698.050274780492	1
0	9543	1699.653064132602	2
0	9544	1700.119278671508	1
0	9551	1700.555538068431	2
0	9554	1700.779133682268	3
0	9555	1701.281832811844	2
0	9560	1701.712680604361	1
0	9567	1702.033069415007	2
0	9568	1702.108805667708	1
0	9575	1703.203606605298	0
0	9591	1704.265390505271	1
0	9592	1704.652984268452	0
0	9603	1705.631404316924	1
0	9605	1706.999909125351	0
0	9615	1707.172756447882	1
0	9616	1707.212843434162	0
0	9630	1707.51446585938	1
0	9633	1708.006802668059	0
0	9644	1710.064364092759	1
0	9645	1710.313373094034	0
0	9658	1711.882766027953	1
0	9659	1712.186127642089	0
0	9671	1712.401114867534	1
0	9672	1712.52058231443	0
0	9694	1714.392601772935	1
0	9699	1715.121059012471	2
0	9702	1716.061683529088	3
0	9704	1716.138581281733	4
0	9705	1716.376248971064	3
0	9711	1716.545683856293	2
0	9717	1716.671430342084	3
0	9719	1716.958404563869	4
0	9721	1717.332117375446	3
0	9727	1718.309477464751	2
0	9732	1719.525369646059	1
0	9738	1719.870412384866	0
0	9762	1723.656104871709	1
0	9763	1723.660919725966	0
0	9770	1723.956194408481	1
0	9771	1724.390210044715	0
0	9783	1727.319069715623	1
0	9785	1727.654724848829	2
0	9786	1727.740598826836	1
0	9791	1728.073353043752	0
0	9823	1732.764172602062	1
0	9824	1734.584879013852	0
0	9840	1737.578625425971	1
0	9841	1737.943328428449	0
0	9856	1740.082489828598	1
0	9857	1741.530655355081	0
0	9870	1742.979117072362	1
0	9871	1743.963083903726	0
0	9892	1751.33510219929	1
0	9897	1753.247693949392	0
0	9911	1754.912302568003	1
0	9912	1755.008652145722	0
0	9934	1758.018459970294	1
0	9936	1758.718970825955	0
0	9942	1758.980310667338	1
0	9945	1760.179873587965	2
0	9947	1760.197168306444	3
0	9948	1760.552772956358	2
0	9954	1760.659151117839	3
0	9958	1761.247642465893	2
0	9964	1761.461350425098	1
0	9969	1762.143864288628	0
0	9981	1762.661223161015	1
0	9982	1762.852254884783	0
0	9997	1765.41099106136	1
0	9999	1765.500870647158	2
0	10002	1766.669867204256	1
0	10008	1767.013489656429	2
0	10009	1767.539142022576	1
0	10014	1768.113481603763	0
0	10039	1775.468910059564	1
0	10040	1775.748897626064	0
0	10050	1775.858271376426	1
0	10051	1776.007150062853	0
0	10076	1776.584974888288	1
0	10078	1776.645445390677	2
0	10080	1776.717875008023	3
0	10082	1777.479896021689	4
0	10085	1779.523984087677	3
0	10090	1779.68395433155	2
0	10099	1780.484521396808	3
0	10102	1782.288284664553	4
0	10104	1782.913538114706	5
0	10106	1783.8158018186	6
0	10107	1783.984455030522	5
0	10113	1784.282457987907	6
0	10118	1785.205379955179	7
0	10119	1785.841495044469	6
0	10126	1788.213001402269	5
0	10136	1788.552011855845	4
0	10142	1789.006031797286	5
0	10144	1790.018122113859	4
0	10153	1793.360825829645	3
0	10158	1793.721209801726	2
0	10163	1793.819410685221	1
0	10170	1795.555083199614	0
0	10186	1796.21580506083	1
0	10187	1796.470656459627	0
0	10210	1798.654157859136	1
0	10213	1799.537581359846	0
0	10227	1803.172109666044	1
0	10230	1803.747484783752	0
0	10239	1804.865010113705	1
0	10241	1805.271710991477	2
0	10243	1807.613185860437	3
0	10245	1807.767576663047	4
0	10248	1808.568840431116	3
0	10254	1809.218266309146	2
0	10261	1810.948935672382	1
0	10265	1811.808324024517	2
0	10267	1812.075765997241	3
0	10269	1813.748857008471	4
0	10271	1813.765948063157	5
0	10277	1816.029476015688	6
0	10278	1816.193543920653	5
0	10284	1817.475217169714	4
0	10288	1817.543941687245	5
0	10290	1817.81126001606	6
0	10294	1818.76481577411	7
0	10301	1821.053970780463	6
0	10313	1822.654105436251	7
0	10316	1822.892842784077	8
0	10317	1823.051223792117	7
0	10322	1823.217099735388	6
0	10328	1824.709435612985	5
0	10334	1825.434637287678	6
0	10339	1827.289516714026	5
0	10346	1828.236411513108	6
0	10347	1828.334768631188	5
0	10352	1829.15554518308	4
0	10357	1830.373035967374	3
0	10364	1831.732961196676	4
0	10365	1831.921784205227	3
0	10370	1832.476323217267	2
0	10374	1832.57420945815	3
0	10378	1833.795169209305	2
0	10384	1834.015502875705	3
0	10385	1834.467001410622	2
0	10392	1835.523341358922	3
0	10393	1835.573489579328	2
0	10398	1835.764707977171	1
0	10402	1837.353052131382	2
0	10404	1838.06631379316	3
0	10407	1838.294191086513	2
0	10411	1838.887168150509	3
0	10415	1840.855716152574	4
0	10417	1842.43418797741	3
0	10423	1844.898361130218	4
0	10425	1845.337213482346	5
0	10426	1845.532519194147	4
0	10430	1845.58215156151	5
0	10433	1847.708172367566	4
0	10440	1848.91739699812	3
0	10446	1849.705946570602	2
0	10452	1851.009879711006	1
0	10459	1851.399783325421	0
0	10463	1851.903167579461	1
0	10466	1852.345699680424	0
0	10470	1853.910707896184	1
0	10473	1854.803062268094	0
0	10515	1859.915801283324	1
0	10520	1860.928789401496	0
0	10539	1862.724317230265	1
0	10544	1865.410278543682	2
0	10546	1865.457453495419	3
0	10548	1865.471392508192	4
0	10550	1867.663220458311	3
0	10560	1868.899695922855	4
0	10561	1869.111346099844	3
0	10566	1869.717325861571	2
0	10573	1870.371344589487	1
0	10580	1870.743080032387	0
0	10630	1883.195861271436	1
0	10632	1883.386015156727	2
0	10633	1883.799680587308	1
0	10639	1883.92534190506	0
0	10671	1887.934286481386	1
0	10672	1888.141293739997	0
0	10694	1890.593600271787	1
0	10695	1890.804604748408	0
0	10732	1894.142008377335	1
0	10733	1894.305260072006	0
0	10739	1894.542870840198	1
0	10741	1894.650922773374	2
0	10743	1895.36949250768	1
0	10748	1896.076233895056	0
0	10752	1897.199993921143	1
0	10754	1897.337927252431	2
0	10758	1898.647740963247	3
0	10762	1900.71787276505	4
0	10765	1902.205197389016	3
0	10772	1904.782546859192	2
0	10779	1904.914082737805	1
0	10783	1905.320406488307	2
0	10785	1905.379799421045	3
0	10793	1907.030992541327	4
0	10794	1907.040068390371	3
0	10798	1907.467029924182	4
0	10802	1911.68278348734	3
0	10808	1912.027699866961	4
0	10809	1912.486800543078	3
0	10813	1912.661286755104	4
0	10816	1917.015236259643	3
0	10822	1918.078581362673	4
0	10827	1920.520850331966	3
0	10833	1920.726189822601	4
0	10835	1921.770630119007	3
0	10841	1922.066982919073	4
0	10844	1922.217304088448	5
0	10845	1922.521846227516	4
0	10852	1923.927084643159	3
0	10858	1924.236358731024	4
0	10859	1924.388737811989	3
0	10863	1925.056571941936	4
0	10868	1925.673579413133	3
0	10873	1926.293833476809	2
0	10880	1928.068571685288	3
0	10882	1928.837313718195	4
0	10884	1929.268941005449	5
0	10885	1929.309815348309	4
0	10893	1929.416094226869	5
0	10894	1929.538552959115	4
0	10898	1930.340141488746	5
0	10902	1932.500567551959	6
0	10903	1933.687625973357	5
0	10910	1935.367901487838	6
0	10912	1935.766225419765	7
0	10914	1935.831693069696	8
0	10916	1937.201849775756	7
0	10921	1937.240776203291	6
0	10926	1937.934097221305	5
0	10930	1939.009868114392	6
0	10933	1939.527645107071	5
0	10937	1939.625043196177	6
0	10939	1940.012574277339	7
0	10943	1941.022780394927	8
0	10945	1941.46069002045	9
0	10946	1941.470576609896	8
0	10951	1941.656468691471	7
0	10959	1943.264236693404	8
0	10963	1944.07083749332	9
0	10967	1945.51617736263	10
0	10969	1946.268495852683	11
0	10970	1947.144736178751	10
0	10975	1948.385744119346	9
0	10979	1948.659147173887	10
0	10985	1949.81643991456	11
0	10986	1950.54362534161	10
0	10991	1951.695474140556	9
0	10995	1955.916968500669	10
0	10999	1956.936113514731	11
0	11000	1957.689375842876	10
0	11007	1957.931126265617	9
0	11012	1957.954080358978	8
0	11023	1961.497549821308	9
0	11027	1962.566463676743	10
0	11028	1963.02239697044	9
0	11038	1964.668016367123	8
0	11045	1967.098355985743	7
0	11051	1967.324692588976	6
0	11056	1967.465416773092	5
0	11063	1967.742393204868	4
0	11070	1968.496330448505	3
0	11075	1969.12681456784	2
0	11080	1970.518683053465	1
0	11085	1971.356569976419	0
0	11108	1972.999285121571	1
0	11109	1973.230186097738	0
0	11113	1973.662174600759	1
0	11115	1973.746692180762	2
0	11117	1974.122420485986	3
0	11119	1975.399420665285	4
0	11124	1976.588779577609	3
0	11128	1976.833455548799	4
0	11130	1977.788862626886	5
0	11132	1977.957900301766	6
0	11134	1980.366541856423	7
0	11136	1980.49574083365	8
0	11139	1983.015842211117	7
0	11143	1983.060668465307	8
0	11145	1983.163193940256	9
0	11152	1985.442139039122	10
0	11153	1985.7822237087	9
0	11161	1987.764174794816	8
0	11166	1989.012404623817	7
0	11174	1990.267670146359	8
0	11175	1991.899728190828	7
0	11180	1992.063971753297	6
0	11186	1992.207146462336	5
0	11191	1992.740714275124	4
0	11195	1992.819751144058	5
0	11198	1993.843515561768	4
0	11204	1994.394770218707	5
0	11210	1994.753995831593	6
0	11214	1995.09247870371	7
0	11218	1995.807258244808	6
0	11223	1995.848721546697	5
0	11230	1996.491348479531	4
0	11234	1997.730941737192	5
0	11239	2003.631019859865	4
0	11243	2004.073443336632	5
0	11246	2004.219434532809	4
0	11251	2005.697155702039	3
0	11256	2007.654893777661	2
0	11261	2009.911726947178	1
0	11268	2011.491585196156	0
0	11280	2012.537717793144	1
0	11283	2012.777678575337	0
0	11333	2019.463310427065	1
0	11337	2022.322351657463	2
0	11338	2022.543017582884	1
0	11343	2022.702815677118	0
0	11362	2026.510785176979	1
0	11367	2027.633842700308	0
0	11379	2029.75202738639	1
0	11380	2029.8150631526	0
0	11397	2032.889857919031	1
0	11400	2033.523263712468	0
0	11408	2034.797071790655	1
0	11409	2035.206560701027	0
0	11470	2043.788353363665	1
0	11471	2044.869277002036	0
0	11481	2046.166500081782	1
0	11483	2046.365483876383	0
0	11494	2046.867582163637	1
0	11496	2047.294222706141	0
0	11513	2048.319987786891	1
0	11516	2049.152257137501	2
0	11520	2050.814804261783	3
0	11522	2051.137671695003	2
0	11527	2051.287305647265	1
0	11532	2051.439340382192	0
0	11538	2051.647074492756	1
0	11542	2055.165724811969	0
0	11573	2057.476550410122	1
0	11575	2057.838412129419	2
0	11583	2060.907771994906	3
0	11584	2060.988884682325	2
0	11591	2061.449903792631	1
0	11596	2061.468803600774	0
0	11617	2064.749757421511	1
0	11619	2065.203843022639	2
0	11621	2065.548323148373	3
0	11622	2065.825632787387	2
0	11627	2066.354717616579	1
0	11632	2066.912826573999	0
0	11667	2070.779751153634	1
0	11669	2070.794398228568	2
0	11670	2071.309780747517	1
0	11675	2071.867141627439	0
0	11692	2073.786660345913	1
0	11696	2074.950148045011	2
0	11698	2075.179746456202	3
0	11699	2076.227602421718	2
0	11705	2076.542647847696	1
0	11712	2077.646730995951	2
0	11714	2078.957920886258	1
0	11722	2079.368896193727	0
0	11733	2079.961130588025	1
0	11735	2080.363137156047	0
0	11755	2085.908643377488	1
0	11758	2086.43189896592	2
0	11759	2086.538509325331	1
0	11765	2087.618166183185	0
0	11771	2088.196043032867	1
0	11773	2089.76063398419	0
0	11779	2089.878997949209	1
0	11782	2089.981934541103	2
0	11783	2090.044109976808	1
0	11789	2090.38836676183	0
0	11806	2093.193087486572	1
0	11807	2093.565960855156	0
0	11835	2097.437413341237	1
0	11838	2097.880026758049	2
0	11839	2098.024807025086	1
0	11844	2098.08865175188	0
0	11908	2112.804732973529	1
0	11909	2113.149796476554	0
0	11947	2124.550337250841	1
0	11950	2124.87919100367	2
0	11953	2125.731641824778	3
0	11954	2126.592037067438	2
0	11960	2126.921872327421	3
0	11962	2127.062987834452	4
0	11963	2127.67565578161	3
0	11968	2128.253272636763	2
0	11973	2128.436624602031	1
0	11978	2128.441565116598	0
0	11994	2131.121415606632	1
0	11996	2131.206952894308	2
0	11998	2131.71629670931	1
0	12003	2131.86943897742	0
0	12023	2134.42895095104	1
0	12024	2135.326332427628	0
0	12038	2138.490439523132	1
0	12039	2138.505075444084	0
0	12045	2138.560381298159	1
0	12049	2139.120434958644	0
0	12061	2140.227053515545	1
0	12065	2141.769201983684	0
0	12083	2145.067449479532	1
0	12087	2146.30117534683	2
0	12091	2146.823023145062	3
0	12092	2147.323367553623	2
0	12096	2147.622857008717	3
0	12098	2148.027147662891	4
0	12102	2148.657854812605	5
0	12105	2149.397072781288	6
0	12106	2149.696944592186	5
0	12112	2150.078058496593	6
0	12116	2151.475019847069	7
0	12117	2151.491584333122	6
0	12122	2153.246563320797	5
0	12128	2153.737562666617	4
0	12132	2153.817984742805	5
0	12134	2154.696354752861	6
0	12136	2155.403621438773	7
0	12138	2157.788015483314	8
0	12144	2158.113366202743	9
0	12146	2158.494709447026	10
0	12148	2158.95839888367	9
0	12154	2159.19487955885	8
0	12160	2159.608100563187	9
0	12161	2159.787125742779	8
0	12165	2159.890722010551	9
0	12169	2160.937752915119	8
0	12174	2161.070532079542	7
0	12179	2163.868011846349	6
0	12183	2164.028384330456	7
0	12186	2165.03664703023	6
0	12193	2166.624819726422	5
0	12198	2167.810477486345	4
0	12202	2168.083068906325	5
0	12208	2170.617424761198	4
0	12213	2171.260291399095	3
0	12219	2172.573576707016	4
0	12224	2172.715033853491	5
0	12225	2172.727829836278	4
0	12230	2172.783575097795	3
0	12236	2175.374864730631	4
0	12238	2176.234511694957	5
0	12241	2177.276327800168	4
0	12252	2180.147898823653	3
0	12258	2180.189089673761	4
0	12260	2180.396703095869	5
0	12265	2181.090630274005	4
0	12270	2181.784033015508	3
0	12275	2182.443929497497	2
0	12281	2182.682671040835	1
0	12286	2182.836052223479	0
0	12297	2183.188775932215	1
0	12300	2184.646775630721	2
0	12301	2184.688606357583	1
0	12306	2186.947637009222	0
0	12313	2187.120418042414	1
0	12314	2187.32239180329	0
0	12320	2187.710390481882	1
0	12322	2189.093973927071	0
0	12334	2191.055797169929	1
0	12336	2191.391339556063	0
0	12361	2194.552433436907	1
0	12362	2194.64883692561	0
0	12368	2195.644746028286	1
0	12370	2195.915321145387	2
0	12372	2196.354113470176	1
0	12379	2196.683970093597	0
0	12383	2197.994721714149	1
0	12386	2198.015730542718	0
0	12409	2199.626536324385	1
0	12412	2200.314315223297	2
0	12414	2200.623095001824	3
0	12415	2201.884036474893	2
0	12423	2202.468043036799	1
0	12428	2202.496308037513	0
0	12440	2205.277479596519	1
0	12442	2206.139542336402	0
0	12466	2210.795965979011	1
0	12467	2211.317338265851	0
0	12483	2213.465555305744	1
0	12484	2213.475503133501	0
0	12541	2222.570715058411	1
0	12544	2223.967829143163	0
0	12569	2230.592635863944	1
0	12572	2230.693521516158	2
0	12573	2231.293034042883	1
0	12579	2231.717325378218	2
0	12581	2232.044138648389	1
0	12587	2234.192839551326	0
0	12600	2235.317507171032	1
0	12602	2235.437647094305	2
0	12608	2238.005364923155	1
0	12613	2238.184402821985	0
0	12641	2240.110959291646	1
0	12648	2242.393098624497	2
0	12649	2242.967893958075	1
0	12656	2243.75495593928	0
0	12665	2246.268785979213	1
0	12667	2246.463410990447	2
0	12668	2246.802680370697	1
0	12674	2247.050721661524	2
0	12675	2248.31678606163	1
0	12683	2249.296792550046	0
0	12721	2251.913086876946	1
0	12722	2252.167735808842	0
0	12754	2256.942883171413	1
0	12755	2257.391497272932	0
0	12795	2265.122619818271	1
0	12796	2265.5877427689	0
0	12802	2265.682063290592	1
0	12803	2265.844688077051	0
0	12809	2266.644894217118	1
0	12811	2266.786045401347	2
0	12814	2268.027894832046	3
0	12815	2268.790959299694	2
0	12821	2268.82803639342	3
0	12824	2269.504749118234	4
0	12825	2270.248911129936	3
0	12830	2270.553067478841	2
0	12835	2271.248839998244	1
0	12845	2274.380447883316	0
0	12851	2274.492773848378	1
0	12853	2275.105844620779	0
0	12865	2276.717602802536	1
0	12866	2276.822821018421	0
0	12909	2282.707866720369	1
0	12910	2282.737219575236	0
0	12923	2284.61336048991	1
0	12925	2285.049882632625	0
0	12962	2293.559631168444	1
0	12964	2294.160975420969	2
0	12966	2294.294432115311	3
0	12967	2294.565979026509	2
0	12972	2294.593749239146	1
0	12979	2295.325769829976	2
0	12980	2295.343724604783	1
0	12985	2295.983633857755	0
0	12991	2296.127349370857	1
0	12993	2296.697808538484	0
0	13073	2312.145624859941	1
0	13074	2312.478186834276	0
0	13098	2315.193620953592	1
0	13101	2316.3314929937	0
0	13140	2325.590775453602	1
0	13142	2326.391168579455	2
0	13143	2326.647478006112	1
0	13149	2327.114210477233	2
0	13151	2327.153652655491	3
0	13152	2327.853700877066	2
0	13157	2328.162152286405	1
0	13162	2328.615005738313	0
0	13168	2329.133759745737	1
0	13170	2329.235388298368	2
0	13172	2329.333827329645	1
0	13178	2329.468018972995	2
0	13179	2330.100396145222	1
0	13183	2330.410232154829	2
0	13188	2331.208621061797	1
0	13194	2332.117091057333	2
0	13201	2334.332409266134	3
0	13204	2335.488057972557	2
0	13209	2335.607775557641	1
0	13217	2335.992675466344	0
0	13223	2336.013762757401	1
0	13224	2336.131413635012	0
0	13240	2337.506293589616	1
0	13247	2340.880560404934	0
0	13266	2343.08088955321	1
0	13269	2343.128897767627	2
0	13270	2343.359613864857	1
0	13275	2343.985437055162	0
0	13294	2344.576395892082	1
0	13297	2344.806808216593	2
0	13299	2345.336068444163	3
0	13300	2345.375070817192	2
0	13305	2345.944879347469	1
0	13311	2346.844046216282	2
0	13314	2347.560916708048	3
0	13317	2347.981476509472	2
0	13322	2349.199614558572	1
0	13326	2349.290426831212	2
0	13328	2349.603587889418	3
0	13333	2350.313824857628	2
0	13343	2353.169279815589	1
0	13349	2354.354273730184	2
0	13351	2354.591066353337	3
0	13352	2355.007154628617	2
0	13359	2355.440747291178	1
0	13365	2356.824448191364	0
0	13384	2360.869868050642	1
0	13386	2361.114758549653	2
0	13388	2362.357504024592	3
0	13389	2362.451619697433	2
0	13394	2362.551662174707	1
0	13400	2363.122660068189	2
0	13402	2364.246522070046	3
0	13403	2365.007456788508	2
0	13409	2366.279701575128	1
0	13415	2368.213373810296	2
0	13416	2368.887092067826	1
0	13422	2370.647429641888	2
0	13424	2371.714177997826	3
0	13427	2374.13773610595	2
0	13434	2376.180586002381	1
0	13439	2376.829877550302	0
0	13445	2377.360403867641	1
0	13446	2377.793819499836	0
0	13467	2379.544411249671	1
0	13468	2380.210306509824	0
0	13472	2381.082518505446	1
0	13475	2381.665200692678	0
0	13479	2381.691244410193	1
0	13485	2384.349940096868	2
0	13488	2384.778178483196	1
0	13493	2384.779184155337	0
0	13507	2386.501691122886	1
0	13509	2386.850647752613	2
0	13512	2387.838028189747	3
0	13515	2388.260984778921	4
0	13516	2388.890801965138	3
0	13524	2389.583523255067	2
0	13529	2391.053190698605	1
0	13535	2391.137151089703	2
0	13536	2391.391220359358	1
0	13541	2392.649698540631	0
0	13552	2394.36300867686	1
0	13554	2394.789606628516	0
0	13560	2394.875991412973	1
0	13565	2397.017590324186	0
0	13571	2397.094501467075	1
0	13576	2397.899049509733	0
0	13601	2399.475139636248	1
0	13602	2399.648556042286	0
0	13629	2402.6009643308	1
0	13630	2402.746382718695	0
0	13644	2405.991053387695	1
0	13646	2406.246637074065	2
0	13647	2407.123361530019	1
0	13652	2407.548344231449	0
0	13666	2408.403283151436	1
0	13667	2408.996008783615	0
0	13689	2419.724345253507	1
0	13690	2420.221830388162	0
0	13696	2421.617682546052	1
0	13697	2421.773008749584	0
0	13701	2422.044953928318	1
0	13704	2422.419699502405	0
0	13723	2429.210834333044	1
0	13724	2429.249971885803	0
0	13740	2431.054970899383	1
0	13742	2432.250789946576	0
0	13764	2434.826406671225	1
0	13765	2434.834746610297	0
0	13778	2438.071700327213	1
0	13780	2438.10235683569	2
0	13782	2438.144493955509	3
0	13785	2438.383109491684	2
0	13798	2441.627604454567	3
0	13800	2442.039875989208	4
0	13801	2443.301094383447	3
0	13806	2443.553962341868	2
0	13810	2443.586336236902	3
0	13812	2443.701385945203	4
0	13816	2445.470760275532	3
0	13821	2446.285537436667	2
0	13832	2449.238095355402	1
0	13837	2449.239274501063	0
0	13850	2450.146022953015	1
0	13853	2450.853304511469	2
0	13854	2451.295214457882	1
0	13859	2451.881965207398	0
0	13873	2453.738659650362	1
0	13876	2454.701845626541	0
0	13882	2455.337030410934	1
0	13883	2455.459534663741	0
0	13894	2455.682680920586	1
0	13895	2456.10988045315	0
0	13901	2457.141010318068	1
0	13902	2457.191066020375	0
0	13910	2458.581899588983	1
0	13912	2459.149978693	0
0	13923	2459.703002515662	1
0	13926	2460.075746329623	0
0	13988	2469.984490422873	1
0	13989	2470.480535348384	0
0	14018	2473.843104230857	1
0	14019	2474.15868496969	0
0	14025	2474.288994185844	1
0	14028	2475.448613123542	2
0	14029	2475.649537568218	1
0	14034	2475.915545220299	0
0	14038	2476.263115929112	1
0	14041	2476.802423039063	0
0	14045	2477.022464046598	1
0	14050	2477.611479739405	2
0	14053	2478.944838138724	3
0	14054	2479.366408809051	2
0	14059	2479.403589659884	1
0	14066	2480.391868235916	0
0	14094	2485.003635749413	1
0	14095	2485.612567337648	0
0	14108	2488.384228158222	1
0	14109	2488.682700149584	0
0	14142	2493.369612055402	1
0	14144	2493.411119220657	2
0	14145	2493.812545125026	1
0	14150	2494.015221585609	0
0	14188	2499.43368509153	1
0	14192	2500.138751466505	0
0	14220	2507.713866694776	1
0	14224	2510.263144232053	2
0	14227	2510.459750248592	1
0	14233	2510.697130448188	0
0	14253	2512.856634025175	1
0	14254	2512.983876128518	0
0	14284	2521.512946544214	1
0	14286	2521.590724212432	0
0	14374	2538.478590104523	1
0	14376	2538.845912971761	0
0	14382	2539.616865796139	1
0	14384	2541.009544669978	2
0	14391	2541.304194687907	1
0	14397	2541.535603436562	2
0	14398	2542.147571821969	1
0	14403	2542.482424118993	0
0	14409	2542.608294983276	1
0	14411	2543.157230345091	2
0	14412	2543.404213365455	1
0	14418	2544.36928819765	2
0	14419	2545.263371761505	1
0	14426	2546.759369048719	0
0	14444	2548.444271994177	1
0	14446	2548.785788109664	2
0	14447	2548.804642636476	1
0	14451	2549.429460797617	2
0	14454	2549.972538079622	1
0	14460	2551.25061485295	0
0	14476	2552.303954072915	1
0	14477	2552.321100529725	0
0	14494	2553.359825124948	1
0	14495	2553.925944621157	0
0	14501	2554.581422845289	1
0	14503	2555.712458611766	0
0	14542	2561.745278013535	1
0	14546	2562.934305726948	0
0	14600	2574.010406684531	1
0	14601	2575.126831590611	0
0	14609	2576.622515003512	1
0	14610	2576.703329198265	0
0	14617	2577.392522829696	1
0	14618	2577.629466020637	0
0	14655	2584.497664379757	1
0	14657	2584.720209283533	2
0	14659	2584.829381872129	3
0	14660	2586.021377816984	2
0	14669	2587.058228342717	1
0	14675	2587.327955352814	0
0	14681	2588.191366863207	1
0	14683	2588.870650620239	0
0	14695	2589.408547349691	1
0	14696	2589.67362932799	0
0	14724	2596.800427926241	1
0	14725	2596.962226640975	0
0	14758	2603.392726482867	1
0	14761	2603.885402274487	2
0	14763	2604.053540995378	3
0	14764	2604.411334144078	2
0	14769	2604.414951010342	1
0	14774	2606.078431930129	0
0	14799	2610.081550766743	1
0	14800	2610.960168364037	0
0	14815	2611.57958995249	1
0	14818	2611.953538252911	2
0	14821	2612.409051069416	3
0	14822	2612.77016188253	2
0	14828	2612.806288807553	3
0	14830	2613.024065543071	4
0	14831	2613.699081219733	3
0	14837	2615.120603925937	4
0	14838	2616.330285689662	3
0	14844	2616.564329533379	4
0	14845	2616.630456254136	3
0	14851	2617.785649096963	4
0	14852	2617.915640410053	3
0	14858	2618.904061353146	2
0	14864	2618.922143530504	3
0	14865	2619.142791341902	2
0	14870	2619.398572101852	1
0	14877	2622.715323406565	0
0	14881	2622.992642283084	1
0	14885	2624.620147922815	2
0	14889	2625.15126615031	3
0	14894	2626.588772772913	2
0	14900	2627.146010896391	1
0	14905	2627.375084253365	0
0	14918	2628.632889558552	1
0	14920	2628.727623212864	2
0	14921	2629.070266747641	1
0	14928	2629.550044500699	2
0	14929	2629.627100817958	1
0	14936	2630.719849990702	0
0	14950	2632.410311982039	1
0	14952	2632.419183402074	2
0	14958	2634.014254979766	3
0	14960	2634.100289619528	4
0	14961	2634.824190015194	3
0	14970	2636.371183560645	2
0	14979	2636.510561788803	3
0	14980	2637.956903711097	2
0	14988	2638.765831189326	1
0	14994	2639.17912775983	0
0	15008	2640.906876230951	1
0	15010	2641.187642984203	0
0	15017	2642.082973563069	1
0	15019	2642.535002775082	0
0	15038	2644.595779802371	1
0	15039	2645.525059623893	0
0	15082	2650.542514481152	1
0	15085	2650.705044841711	0
0	15096	2653.962990537397	1
0	15098	2654.114785826079	2
0	15100	2654.347858021784	3
0	15108	2656.64544789125	4
0	15111	2657.696388621438	5
0	15112	2658.061812327189	4
0	15117	2658.275344196618	3
0	15122	2658.387355443712	2
0	15127	2658.522335488114	1
0	15133	2659.811496889585	0
0	15152	2661.437764596883	1
0	15154	2661.890260874137	0
0	15223	2676.416998397761	1
0	15227	2677.990586865554	2
0	15234	2679.404141608937	1
0	15239	2679.434258233159	0
0	15255	2680.466364051888	1
0	15257	2680.855417981431	2
0	15258	2681.199016589534	1
0	15264	2681.249074392353	2
0	15267	2681.68564845568	3
0	15269	2683.209478862822	4
0	15270	2684.185601124971	3
0	15275	2684.386303145822	2
0	15280	2684.466854621574	1
0	15284	2685.206766097921	2
0	15289	2686.262696205873	3
0	15290	2688.201779504768	2
0	15295	2688.27351542649	1
0	15300	2689.770724643502	0
0	15306	2690.745601056029	1
0	15308	2690.99434945792	2
0	15310	2691.076379864878	3
0	15312	2691.641634121733	4
0	15314	2691.648582518881	5
0	15315	2692.025862921745	4
0	15322	2693.321320493794	3
0	15327	2693.381963357134	2
0	15333	2693.611476792342	3
0	15337	2693.721849502953	4
0	15339	2694.613192314632	5
0	15340	2695.497406253423	4
0	15344	2695.756904325478	5
0	15348	2696.57233012082	6
0	15350	2696.717564849361	7
0	15354	2697.223648794061	8
0	15355	2697.601848177293	7
0	15362	2699.965498372553	6
0	15369	2700.900223079968	5
0	15374	2701.629581814338	4
0	15380	2703.832440629462	5
0	15382	2704.479147206753	4
0	15389	2705.961228838239	5
0	15391	2706.526254438942	6
0	15392	2707.104687778515	5
0	15397	2707.346381128941	4
0	15402	2707.852868949763	3
0	15410	2710.061037024314	2
0	15415	2710.092739585375	1
0	15421	2710.398203293251	2
0	15422	2710.752967202574	1
0	15429	2711.213703284812	0
0	15445	2712.614675296557	1
0	15446	2712.721363511971	0
0	15462	2714.657588971924	1
0	15464	2714.755974848088	2
0	15465	2715.31604257713	1
0	15473	2716.08315418346	0
0	15482	2717.6025444667	1
0	15484	2718.558453984859	2
0	15486	2719.368995501257	1
0	15492	2720.248205785859	0
0	15526	2727.237731943936	1
0	15527	2727.316067738494	0
0	15547	2728.633257654816	1
0	15550	2729.482231065834	2
0	15557	2730.308566412933	3
0	15558	2730.735315237376	2
0	15563	2731.853519192961	1
0	15568	2732.361257974266	0
0	15572	2733.994233410406	1
0	15578	2734.661996864666	2
0	15579	2734.709289209714	1
0	15585	2734.895748916718	0
0	15591	2734.920182882726	1
0	15593	2735.008432766438	0
0	15605	2735.616258521152	1
0	15608	2739.010022543296	2
0	15611	2740.020828289685	1
0	15617	2740.061262048772	2
0	15618	2740.093003176359	1
0	15623	2741.403708744771	0
0	15631	2742.16689159043	1
0	15632	2742.766077914473	0
0	15638	2743.234676532367	1
0	15639	2743.259670129295	0
0	15652	2744.655925099716	1
0	15653	2744.671173362535	0
0	15660	2745.25975145684	1
0	15662	2745.446823782225	2
0	15663	2745.619082251593	1
0	15668	2745.959090639954	0
0	15674	2746.60076510424	1
0	15678	2750.327280123811	2
0	15679	2752.756213990618	1
0	15684	2753.207592962404	0
0	15710	2756.750607827217	1
0	15714	2756.867135969217	2
0	15715	2757.177324654293	1
0	15721	2758.193882386229	0
0	15727	2758.375198312881	1
0	15728	2758.575882915684	0
0	15748	2759.807933648502	1
0	15749	2760.069321031834	0
0	15760	2761.390978252172	1
0	15763	2761.585513875018	2
0	15765	2761.614420145953	3
0	15767	2761.91904469207	4
0	15775	2763.132423495078	5
0	15776	2763.476796771674	4
0	15782	2763.706409638193	5
0	15786	2764.029967189731	4
0	15791	2765.575972609923	3
0	15795	2765.64814478463	4
0	15798	2766.804840103675	3
0	15802	2767.422794628952	4
0	15807	2768.147992190346	5
0	15810	2768.619497917425	4
0	15819	2769.764112698242	3
0	15827	2769.909365516759	2
0	15834	2770.730036546886	1
0	15839	2771.819796629658	0
0	15843	2771.82223953984	1
0	15849	2773.101728880124	2
0	15850	2773.334085328115	1
0	15854	2774.377203743224	2
0	15858	2774.982459676812	3
0	15860	2775.173472659645	2
0	15868	2776.839896191747	3
0	15869	2777.117851325364	2
0	15875	2777.475566303881	3
0	15881	2778.77803313967	4
0	15882	2779.515102856152	3
0	15888	2780.418311064172	4
0	15889	2781.382674930704	3
0	15898	2783.107834643878	2
0	15902	2783.296887875495	3
0	15905	2784.355497930342	2
0	15910	2785.440668615506	1
0	15916	2786.073336922345	0
0	15922	2786.381691883131	1
0	15923	2786.407228349033	0
0	15929	2787.326124420041	1
0	15930	2787.430907174744	0
0	15934	2787.602630812645	1
0	15938	2789.530240952946	2
0	15939	2789.76713210303	1
0	15944	2790.144640877401	0
0	15950	2791.337368578577	1
0	15956	2792.438038570146	2
0	15957	2792.600239032818	1
0	15962	2793.505616640152	0
0	15968	2794.599567195352	1
0	15970	2795.410597688652	2
0	15971	2797.228448644393	1
0	15975	2797.862989444084	2
0	15978	2799.505051060574	1
0	15983	2800.621712701651	0
0	15987	2803.282209844151	1
0	15992	2804.317607480217	0
0	16036	2809.4691459751	1
0	16037	2810.633699635226	0
0	16049	2810.842547482659	1
0	16050	2810.942130502231	0
0	16065	2812.296556447495	1
0	16067	2813.561143694195	2
0	16070	2813.587932128556	1
0	16076	2814.324420236432	0
0	16082	2814.664930555284	1
0	16087	2815.873331424411	0
0	16111	2818.214593686202	1
0	16113	2818.22942564182	2
0	16115	2819.947353201297	3
0	16117	2821.351920510327	4
0	16121	2822.646409914721	3
0	16127	2823.566951063987	2
0	16134	2824.031647412647	3
0	16136	2824.124999169235	4
0	16137	2824.30596552452	3
0	16143	2824.7923571787	4
0	16144	2824.849008933887	3
0	16150	2825.406237697892	2
0	16155	2825.859064956265	1
0	16160	2825.965658902905	0
0	16164	2826.699901526154	1
0	16167	2827.158817603544	0
0	16176	2827.857520699271	1
0	16181	2830.322812328116	2
0	16182	2830.37165715384	1
0	16188	2830.542799420163	2
0	16189	2830.733675124928	1
0	16195	2830.965487328288	2
0	16197	2831.236298983619	1
0	16203	2834.36320984062	0
0	16218	2838.140063848254	1
0	16219	2838.599117951539	0
0	16225	2838.621110896282	1
0	16230	2839.463878551818	0
0	16258	2840.985946833081	1
0	16260	2841.008301649103	2
0	16264	2841.342969662299	1
0	16272	2843.320934710949	0
0	16290	2845.173760935427	1
0	16292	2845.254769081711	2
0	16296	2846.337730385848	1
0	16300	2847.204925407082	2
0	16303	2848.041283252951	1
0	16307	2849.318679215457	2
0	16313	2851.486651057958	1
0	16319	2851.591718950057	2
0	16321	2852.016984444177	3
0	16324	2853.749677120798	2
0	16328	2854.600218597633	3
0	16333	2855.477146589684	2
0	16341	2856.688962397131	3
0	16342	2856.89907119733	2
0	16348	2857.936826688665	3
0	16350	2858.472912548161	2
0	16355	2858.586382629926	1
0	16359	2858.723502676114	2
0	16363	2859.123184763245	3
0	16364	2859.361404643392	2
0	16372	2861.147378371965	1
0	16378	2861.189153348894	0
0	16385	2861.81989181394	1
0	16386	2862.316428680282	0
0	16392	2862.319521244558	1
0	16394	2862.735861331266	2
0	16396	2864.334558285745	3
0	16398	2865.484768918261	4
0	16399	2865.522112245628	3
0	16405	2865.635029388705	2
0	16410	2865.69761655241	1
0	16415	2868.520955040907	0
0	16419	2868.915644038341	1
0	16422	2869.753279135461	0
0	16426	2869.757097426657	1
0	16429	2871.341146010276	0
0	16435	2872.042307717299	1
0	16439	2872.499286110592	2
0	16440	2872.645567289491	1
0	16444	2872.691791419558	2
0	16448	2874.034335246817	3
0	16451	2874.756381814599	2
0	16456	2875.555213162973	1
0	16460	2875.869785902867	2
0	16464	2877.797160592332	3
0	16465	2877.895715936601	2
0	16469	2878.717277520075	3
0	16473	2880.080457672322	4
0	16475	2881.009963653802	3
0	16481	2881.116915340402	4
0	16482	2881.594026399094	3
0	16489	2882.707251337909	2
0	16495	2885.860545722862	3
0	16500	2888.803085277965	2
0	16505	2890.048847392111	1
0	16509	2891.533456695445	2
0	16513	2892.502760314734	3
0	16514	2892.764271862178	2
0	16518	2893.431439446456	3
0	16523	2895.845307830388	2
0	16528	2896.316025829818	1
0	16534	2896.431732228421	2
0	16535	2896.774234218992	1
0	16539	2897.523053440754	2
0	16542	2900.489408583299	1
0	16547	2901.011996413954	0
0	16551	2902.508371950391	1
0	16554	2904.835911698386	0
0	16573	2907.064594675444	1
0	16575	2907.867869558878	2
0	16577	2908.164721264195	3
0	16578	2908.519749135844	2
0	16584	2908.745360267818	3
0	16588	2909.151193633606	4
0	16589	2909.246289954629	3
0	16593	2909.349437922574	4
0	16597	2910.36996781793	5
0	16600	2910.578390076561	4
0	16604	2910.974242791091	5
0	16607	2911.15101706548	4
0	16614	2912.486734883269	3
0	16622	2913.872368599457	4
0	16623	2914.032924317271	3
0	16630	2914.929907219246	4
0	16631	2915.627626075143	3
0	16640	2921.73919966733	2
0	16648	2923.295519323612	3
0	16653	2926.267146124636	4
0	16654	2926.280275785352	3
0	16658	2926.54014272793	4
0	16663	2928.745063194315	3
0	16668	2929.577475108367	2
0	16672	2930.669628630206	3
0	16676	2932.917521166134	2
0	16681	2933.015637618168	1
0	16687	2933.305460765662	2
0	16690	2933.497043443095	3
0	16691	2933.635240925582	2
0	16698	2934.577092695237	1
0	16702	2936.129350155618	2
0	16705	2936.882380827438	1
0	16710	2937.721020166352	0
0	16716	2939.47623476074	1
0	16718	2939.576423009125	2
0	16723	2941.306927870638	1
0	16727	2941.603606193029	2
0	16729	2942.45907571224	3
0	16731	2943.052031262518	4
0	16734	2944.448020430376	3
0	16738	2945.011617088047	4
0	16742	2947.274200427296	5
0	16745	2947.399904951244	4
0	16752	2949.24373129001	3
0	16757	2951.89740295486	2
0	16761	2953.323474084643	3
0	16765	2954.536714629883	2
0	16771	2955.345099484289	1
0	16776	2956.076861608388	0
0	16780	2956.621906354017	1
0	16783	2957.564644037127	0
0	16815	2960.467239263591	1
0	16818	2961.245072920336	2
0	16819	2961.529260805529	1
0	16825	2961.89416421446	2
0	16828	2962.760826475745	1
0	16834	2963.221414975021	0
0	16858	2965.656194902823	1
0	16864	2967.852882672216	2
0	16866	2968.182457943011	1
0	16871	2968.363036027762	0
0	16887	2970.511741977953	1
0	16890	2972.027767472369	0
0	16900	2973.163849446805	1
0	16902	2974.041665717511	2
0	16904	2974.44310393899	3
0	16905	2974.556116777832	2
0	16910	2974.915592667662	1
0	16915	2975.026710944179	0
0	16959	2982.111079899593	1
0	16962	2984.574879485418	0
0	16968	2984.980075773026	1
0	16969	2985.587991311742	0
0	16975	2985.778631385726	1
0	16977	2986.069817611711	2
0	16982	2987.630481214163	1
0	16987	2987.873831328805	0
0	17003	2988.631057487857	1
0	17005	2989.309141428366	0
0	17009	2990.153295410792	1
0	17012	2991.404480560038	0
0	17026	2992.97747445428	1
0	17028	2993.256450317769	2
0	17032	2994.314042532839	3
0	17036	2994.905487112318	4
0	17037	2996.17765955579	3
0	17043	2996.611819810662	4
0	17045	2996.814429779187	5
0	17047	2997.133331196524	6
0	17050	2998.241803893618	7
0	17052	2998.496893451529	8
0	17053	2998.965832129818	7
0	17059	3001.677898704692	6
0	17071	3004.857299833795	5
0	17076	3004.979547468959	4
0	17081	3005.72839893389	3
0	17086	3006.288084789421	2
0	17092	3008.642424394177	3
0	17095	3009.284602346732	2
0	17104	3010.463416623282	1
0	17113	3012.009424661406	0
0	17124	3012.415381158023	1
0	17126	3012.43702043857	2
0	17128	3013.217985323655	1
0	17133	3013.359925940234	0
0	17151	3015.043554925536	1
0	17153	3015.109492553992	2
0	17155	3015.574512326347	1
0	17160	3016.06000217326	0
0	17180	3018.744232891785	1
0	17183	3019.127454358339	0
0	17197	3022.746959656532	1
0	17201	3023.539538291319	2
0	17202	3023.722594351278	1
0	17207	3023.968756646856	0
0	17217	3025.430167985903	1
0	17219	3025.910212573341	2
0	17222	3026.80270933484	1
0	17229	3027.121753283283	0
0	17266	3033.89824535817	1
0	17268	3034.240794578451	0
0	17288	3035.843591788642	1
0	17289	3036.574145266545	0
0	17308	3041.450843139189	1
0	17311	3043.079769925804	0
0	17320	3043.533639043857	1
0	17323	3044.258825769924	0
0	17341	3045.672589369595	1
0	17347	3047.053140223046	2
0	17349	3048.830192508268	1
0	17354	3049.874754550337	0
0	17375	3051.660905399556	1
0	17376	3051.902258572821	0
0	17382	3052.036401858896	1
0	17383	3052.059841584191	0
0	17389	3052.128283812882	1
0	17391	3052.271144677957	2
0	17394	3054.646267205567	1
0	17399	3055.562506431428	0
0	17421	3058.941248039132	1
0	17422	3059.676057801814	0
0	17429	3060.737652497692	1
0	17430	3060.88938967988	0
0	17450	3063.536650047431	1
0	17456	3064.372655429308	2
0	17458	3065.174339183594	3
0	17460	3065.702802913131	4
0	17464	3068.157311004236	5
0	17465	3068.937225531535	4
0	17472	3070.233203933586	5
0	17473	3070.239712512563	4
0	17480	3071.011229517883	3
0	17485	3071.255613987173	2
0	17492	3071.645691498056	1
0	17497	3075.435810149833	0
0	17503	3077.503001069619	1
0	17504	3077.696123404617	0
0	17523	3080.904086211274	1
0	17527	3082.340674401589	0
0	17533	3082.457969092246	1
0	17534	3082.937691904818	0
0	17540	3083.157378444557	1
0	17541	3084.32275556203	0
0	17550	3085.797676404485	1
0	17551	3085.911737194322	0
0	17557	3086.435069944387	1
0	17558	3086.453659123438	0
0	17571	3088.324140281322	1
0	17574	3088.478624866902	2
0	17575	3088.547242203204	1
0	17579	3088.611801900566	2
0	17582	3090.656777054249	1
0	17586	3090.665437027128	2
0	17588	3091.834056217009	3
0	17592	3093.264152818608	4
0	17593	3093.409311407232	3
0	17599	3095.074886779476	4
0	17600	3097.018195170818	3
0	17606	3099.053641441064	2
0	17613	3099.311483315444	3
0	17614	3099.843385997907	2
0	17619	3100.231426899384	1
0	17625	3100.793379593175	2
0	17626	3101.165455916185	1
0	17630	3101.737567103016	2
0	17634	3102.104044420673	3
0	17635	3102.204994154642	2
0	17639	3102.310105194716	3
0	17643	3104.013421605871	4
0	17645	3105.307459298042	5
0	17647	3108.13891071187	6
0	17649	3108.476385914157	7
0	17654	3108.682650472039	6
0	17658	3110.106681486755	7
0	17662	3111.190690312493	8
0	17663	3111.931071409243	7
0	17668	3113.586380834518	6
0	17672	3113.956442410688	7
0	17675	3114.987847850679	6
0	17679	3117.06520236662	7
0	17682	3117.997210742569	6
0	17686	3119.015711823494	7
0	17688	3120.385651185896	8
0	17691	3121.238257774435	7
0	17695	3122.323135953589	8
0	17698	3123.357888726132	7
0	17702	3125.341279399335	8
0	17705	3125.656985723695	7
0	17713	3128.049227319313	6
0	17719	3128.433537795565	5
0	17725	3128.979277730455	6
0	17729	3130.487266847954	5
0	17736	3130.630479040719	6
0	17737	3132.782565231957	5
0	17743	3134.339421551692	4
0	17748	3134.630270433191	3
0	17754	3135.146491543516	2
0	17759	3135.60836064887	1
0	17765	3136.192077529547	2
0	17768	3136.989800191176	1
0	17773	3137.648153500308	0
0	17777	3139.224755391475	1
0	17779	3140.514544084344	2
0	17783	3143.169951833545	3
0	17792	3144.640420616268	2
0	17797	3145.598028318398	1
0	17802	3145.683257764628	0
0	17817	3148.730223136033	1
0	17819	3149.044503341305	2
0	17824	3151.050592530563	3
0	17825	3151.349622525989	2
0	17830	3152.070766643365	1
0	17835	3152.305958060734	0
0	17844	3153.685160529659	1
0	17845	3153.938429104551	0
0	17861	3154.70090025188	1
0	17863	3155.790277585225	0
0	17884	3157.83890884607	1
0	17885	3157.945632179609	0
0	17891	3158.713901493659	1
0	17894	3160.338575151407	0
0	17902	3161.265735696757	1
0	17903	3161.695777786835	0
0	17920	3164.411506099708	1
0	17922	3164.420860552849	2
0	17925	3166.692005881437	1
0	17930	3166.709456615346	0
0	17939	3167.498695098683	1
0	17943	3167.783555072513	2
0	17946	3168.609127599417	3
0	17949	3169.728810497629	4
0	17950	3169.801281717168	3
0	17957	3170.063255238169	4
0	17968	3173.280510427391	5
0	17969	3173.654465621148	4
0	17974	3173.838394747208	3
0	17982	3174.438083845214	2
0	17987	3175.436050735309	1
0	17993	3175.939721354476	0
0	18011	3176.848310773105	1
0	18014	3177.823917967077	0
0	18033	3179.061180679485	1
0	18035	3179.176132715074	2
0	18037	3179.563279551299	3
0	18039	3179.908264704559	2
0	18046	3180.192322868601	3
0	18049	3181.073939294539	2
0	18054	3181.086091017368	1
0	18059	3181.137283903338	0
0	18071	3181.583802441763	1
0	18073	3183.342677880356	0
0	18077	3183.367354403772	1
0	18081	3184.202576280455	2
0	18084	3186.8460047386	1
0	18090	3187.322852118166	0
0	18112	3189.834575025034	1
0	18113	3189.860403185165	0
0	18141	3193.558532697758	1
0	18143	3194.443634872038	2
0	18147	3194.871532243347	3
0	18148	3195.064883681975	2
0	18154	3196.835700105538	1
0	18160	3197.016347521167	0
0	18166	3197.13979404514	1
0	18168	3197.191799225981	2
0	18169	3197.384676763081	1
0	18174	3197.476634370563	0
0	18178	3198.548345191774	1
0	18182	3199.116474181124	2
0	18184	3199.170920438835	1
0	18192	3200.333049068844	0
0	18209	3201.341883893599	1
0	18211	3201.356707175539	2
0	18213	3201.786529937514	1
0	18221	3202.814130653042	0
0	18248	3207.342884677176	1
0	18250	3207.399776194214	2
0	18253	3209.242797330444	1
0	18260	3210.805572328492	0
0	18275	3213.023876941961	1
0	18278	3213.441800031498	0
[...]
5	161786	28112.489755517731	175.67677749243
5	161792	28112.73781316091	175.83132366481
5	161803	28116.614756679082	178.84683662267
5	161810	28118.033006604372	176.78098067824
5	161818	28121.003236927986	174.53138469225
5	161833	28124.002627283119	175.94571249499
5	161856	28125.606014733833	174.1210320101
5	161878	28129.165744383664	176.07564492965
5	161902	28135.604042749877	181.16057599884
5	161908	28135.86663617345	180.23034365842
5	161917	28136.688502551117	169.37670435097
5	161938	28139.468371086032	162.97272441195
5	161948	28141.390977167991	163.98255818972
5	161963	28143.401393117995	161.9855340737
5	161989	28146.062968465776	162.81973289441
5	162136	28169.119444183126	173.38716611535
5	162155	28173.450573876912	172.45847090331
5	162181	28176.393793149895	173.24784553344
5	162186	28176.749364276162	161.25891398544
5	162191	28177.637316988278	158.74888183023
5	162196	28177.7370314694	152.56650042689
5	162203	28179.175113773022	153.4677414032
5	162209	28179.603869332268	149.72688105135
5	162231	28182.42925349591	151.65974049549
5	162286	28191.949602295085	158.28672394141
5	162292	28192.669388609604	156.40521501803
5	162297	28192.961375558304	155.85973896988
5	162302	28193.892900546041	141.95468180348
5	162309	28194.956811492089	133.59695270071
5	162327	28197.391134635771	131.83008030266
5	162364	28201.07258875464	134.34464859225
5	162369	28201.187886201255	132.35138612899
5	162377	28206.107812080915	115.10544078748
5	162382	28206.757726961271	111.49214568812
5	162391	28209.689108466094	114.10480062253
5	162408	28211.798810304264	115.07426544596
5	162415	28214.43158831596	117.1194139722
5	162420	28215.076601993689	113.1758049445
5	162440	28222.443334327251	120.16331797287
5	162474	28224.805124949388	118.07359080295
5	162481	28225.564160300819	112.46728752409
5	162492	28226.348471229631	111.28171118971
5	162501	28227.264715312124	109.77239725761
5	162521	28233.422036108968	111.96621380329
5	162538	28238.713404477398	96.779779908629
5	162550	28239.358848486803	93.744728925867
5	162555	28239.493313865223	93.303196363011
5	162563	28239.819157121195	93.256721558126
5	162575	28241.363745635615	94.197181013643
5	162580	28241.730249588222	89.437004896702
5	162593	28244.231536308085	91.628068018293
5	162620	28246.063431842367	90.515960057538
5	162628	28247.128681727381	91.121798704842
5	162634	28247.5106237271	91.448293869826
5	162641	28248.322244791405	91.170557308307
5	162652	28249.762210289017	91.783631813704
5	162705	28257.471266355154	98.479934855599
5	162731	28260.239582202171	95.14528091113
5	162739	28261.955017224032	92.405063873371
5	162746	28264.291942133403	86.346393068683
5	162752	28264.512974648083	84.062773364827
5	162767	28269.368634439901	85.214433740762
5	162799	28272.91424180515	84.959060868042
5	162868	28285.892898546104	96.433049519701
5	162873	28286.006363326942	85.30403285457
5	162878	28286.382216174712	82.915468368945
5	162883	28286.57471238554	72.616268173333
5	162892	28288.359265697081	71.624450953174
5	162897	28289.23918572887	70.958409597987
5	162909	28292.477529633378	63.446801504717
5	162939	28297.887411792841	66.434959669025
5	163962	28495.930401735965	258.2052605016
5	163968	28496.582447170231	245.99897433492
5	163973	28496.724094172124	211.90583496
5	163984	28500.608439168669	215.39738138365
5	164018	28504.99219499787	218.00366350827
5	164025	28505.960910263295	214.55568580046
5	164045	28512.360841605745	216.68826282265
5	164088	28516.149349202373	220.24428038011
5	164093	28517.778034997825	209.63762063494
5	164100	28520.451771334982	211.32422344802
5	164136	28525.355330636357	214.39216721728
5	164143	28526.283248227843	209.2439134005
5	164158	28528.632754139892	206.08724086333
5	164172	28530.347320566539	202.45864645477
5	164183	28532.580772052447	203.33872644915
5	164188	28532.686340819649	200.11151264466
5	164194	28533.171019334923	198.63656491618
5	164199	28533.864808411556	196.28924761235
5	164211	28535.543817377107	184.12684525968
5	164238	28540.910127815671	189.47823963787
5	164245	28541.883159305477	189.67763241234
5	164253	28542.809070333334	189.69127185999
5	164258	28542.953813696942	182.68016113454
5	164269	28550.173475408776	186.4168534771
5	164289	28552.626676968975	188.55767118045
5	164297	28553.129135960211	185.90706466123
5	164302	28553.233948056431	184.31277660037
5	164307	28553.243540530541	178.4443786651
5	164318	28559.936958219236	181.64129795492
5	164454	28580.750751263623	200.88642856515
5	165366	28777.499089125612	388.79703230091
5	165394	28783.339372727835	388.36267744449
5	165399	28783.512544901797	385.39627808292
5	165404	28783.570263777446	383.11169344213
5	165410	28785.162307188663	380.70930669583
5	165417	28786.872509240202	375.0894292117
5	165425	28787.408697691332	357.74954259212
5	165464	28792.756493349895	357.50351514476
5	165487	28794.39212517223	356.24439559706
5	165492	28794.65748592183	354.07743361527
5	165499	28795.045899508803	347.27407236858
5	165511	28796.078008152171	348.24181667035
5	165520	28797.27056822631	339.02451296878
5	165533	28800.657559259257	338.60786145917
5	165544	28802.204236385426	337.8814095154
5	165556	28803.583399986341	336.32220833182
5	165563	28804.781331035686	337.04673870011
5	165591	28811.239075090621	342.97937291485
5	165601	28811.931034749588	334.43558189897
5	165616	28814.662975891005	334.07489301789
5	165642	28819.685135450582	318.59052540322
5	165688	28823.729428254231	316.4347721239
5	165693	28824.120768232304	294.4201354888
5	165698	28824.294583927085	293.28798121953
5	165707	28825.294687883479	291.17039049232
5	165728	28829.078310094732	289.46499496125
5	165795	28845.414926074101	304.3372461547
5	165802	28846.544132735685	299.10090680554
5	165807	28847.050455819245	296.61644610076
5	165812	28847.624503150405	296.57996400129
5	165817	28847.890998876767	293.73809119298
5	165824	28851.049518640172	288.63953104159
5	165833	28853.008444480447	280.88123179414
5	165856	28854.923265036007	276.65581954086
5	165872	28857.040937132826	274.71727834878
5	165901	28859.181880495586	266.52085364682
5	165906	28859.954077826476	262.21051995043
5	165913	28863.582034590509	263.51449992628
5	165928	28870.836967603476	267.98359310091
5	165981	28877.504290878045	272.64432772424
5	165986	28877.8043779731	265.63157593205
5	165994	28880.624468562427	267.65654313309
5	166005	28882.782783314081	268.36857243187
5	166015	28883.385104921565	266.54531574389
5	166040	28888.463884053752	269.79259841654
5	166123	28899.556883525017	280.14659621552
5	166129	28900.049383384637	278.93304053008
5	166134	28900.175041181734	272.3789922306
5	166139	28900.291647005013	272.40548063149
5	166144	28900.645774637918	271.55032634221
5	166151	28901.605787085404	263.47222932192
5	166156	28901.77574896513	260.64382913263
5	166169	28907.028571798284	260.50233342314
5	166217	28916.463911391111	264.52143269833
5	166236	28917.386884955598	257.07672169875
5	166241	28917.762998149587	246.29467449977
5	166246	28917.884787782761	241.32184635443
5	166258	28921.194330033117	237.79021921886
5	166385	28947.336485846389	258.87271675884
5	166394	28948.079466006533	258.83919414884
5	166410	28949.780568388789	259.51246759378
5	167357	29126.560143687879	435.41052278543
5	167371	29128.820776285914	432.33337784063
5	167466	29138.809545057308	441.02390280013
5	167471	29138.894043710649	440.67884516602
5	167478	29139.442086898028	437.30866259826
5	167560	29155.113329714386	452.60978473711
5	167584	29157.645995357146	451.65132809929
5	167594	29158.241625302768	452.07536911163
5	167604	29159.123528588853	445.68006303724
5	167615	29161.029114343555	444.87849860066
5	167622	29161.195186795999	443.78845613006
5	167629	29161.543976533525	440.12307300366
5	167639	29163.116219017548	437.23785065551
5	167646	29163.392960680214	435.68040104889
5	167656	29166.181361720247	431.39966616622
5	167680	29169.245289605021	428.96270119629
5	167691	29171.48588782845	423.72128431916
5	167704	29172.814148686202	423.95924037666
5	167712	29174.624620368039	417.70462992987
5	167729	29178.196298598939	419.54452159433
5	167748	29181.36450482787	420.75888673452
5	167760	29182.900568326977	422.05249718835
5	167767	29183.290965955587	421.65125421798
5	167777	29186.777339867706	419.98412802832
5	167801	29189.373544914682	421.26012500096
5	167806	29189.430805103756	417.33648448129
5	167813	29191.685351459927	417.67058970671
5	167824	29194.036390989406	416.9097611315
5	167848	29196.436446858049	403.42547083359
5	167853	29196.542399059988	402.27666594903
5	167859	29197.548344080966	396.09524154087
5	167864	29197.928349819929	390.76989008689
5	167871	29199.321612209644	387.54649908275
5	167888	29203.179505352338	388.50800394783
5	167904	29205.89664257891	391.03309568625
5	167917	29206.583796353196	388.31087195754
5	167922	29207.231752230242	387.10454616129
5	167929	29208.281523101781	386.29360892394
5	167934	29208.430315163737	385.88712094737
5	167939	29208.430673189801	383.7878226991
5	167948	29212.399557860211	386.05333674356
5	168010	29218.766888670033	387.27163544693
5	168019	29220.121243571497	384.66306069941
5	168029	29220.381851389179	379.3390498504
5	168034	29221.261314900706	376.81323959683
5	168044	29222.453043213922	368.28692899183
5	168059	29223.127330922234	364.83345728771
5	168069	29226.287050520055	367.59972110693
5	168082	29229.109308037064	363.60104250606
5	168097	29230.11861871294	337.44319477446
5	168163	29242.251033274087	348.75463519
5	168174	29242.586850901974	320.8529606065
5	168179	29242.990755446422	315.65816458735
5	168184	29243.49937420414	306.25380259009
5	168196	29249.657822847566	310.61848383412
5	168240	29255.202769486513	310.2734537905
5	168261	29257.895913025692	311.41993708812
5	168270	29261.407082131199	313.72411720311
5	168299	29267.079935617854	319.32182842986
5	168304	29269.937039818936	318.63371408709
5	168311	29270.403698699325	308.23528133149
5	168318	29271.095824129772	305.97818494286
5	168329	29272.985592871853	307.27564292998
5	168371	29279.513796520489	311.02614948968
5	168377	29281.03002984673	312.32688030159
5	168383	29281.369514965929	305.85047286635
5	168388	29283.497507603589	304.01056307894
5	168393	29283.792737919713	304.1390498073
5	168398	29284.315466021232	304.19191352452
5	168418	29289.501178868399	307.54390770443
5	168444	29291.179755719314	306.57766764802
5	168450	29291.509594779157	296.83832757782
5	168455	29291.852946022028	291.97921108359
5	168462	29291.856608870987	286.90295007671
5	168494	29296.864949566029	289.03985120709
5	168502	29297.497218405088	288.66396237437
5	168507	29297.601058766618	283.44535019149
5	168514	29298.423487660958	282.02102811426
5	168525	29299.463905808141	282.57149125185
5	168566	29303.149247174044	285.15510744295
5	168572	29303.470777830314	276.43489411155
5	168577	29303.665868526282	272.72396004919
5	168587	29305.763051096535	273.03181892917
5	168599	29306.472275072262	273.69017414472
5	168609	29306.570187706208	269.79960803935
5	168616	29308.619947491128	269.27649330342
5	168623	29310.475089917838	265.4880633556
5	168630	29311.260323170028	266.07210658824
5	168644	29316.83147835969	267.08758051562
5	168649	29317.430477147848	265.66253157546
5	168656	29321.879881135946	262.05060118742
5	168663	29325.677526871313	260.02269001727
5	168676	29329.092119104467	259.77140471024
5	168683	29330.255906563991	252.34276645401
5	168698	29333.195519290368	253.25661954095
5	168738	29336.271543583988	252.18277054635
5	168753	29338.99608870647	250.93817168639
5	168808	29349.142333137095	257.03928859029
5	168815	29349.322213335862	255.71910914089
5	168837	29352.693321469979	254.80572660712
5	168846	29355.012731782513	254.67899188649
5	168881	29359.720319842737	258.59538169049
5	168887	29360.089496702647	258.75819755023
5	168894	29360.827758803124	258.2411833015
5	168906	29361.807392283781	255.95463223009
5	168913	29362.467144768368	255.93552683865
5	168918	29362.541205971384	250.43686806656
5	168926	29363.624802012541	250.10516775661
5	168931	29363.837769374221	247.12148001527
5	168936	29364.88115490691	246.0226372905
5	168943	29365.866734900036	244.81403665179
5	168952	29368.428463217818	241.24108433902
5	168958	29368.866052691421	239.22232547316
5	168964	29369.562705942259	239.35661525548
5	168969	29369.655611345604	239.23881578588
5	168986	29373.372471463226	242.87881482397
5	169005	29375.114464696849	244.29106636833
5	169018	29378.593913625234	247.53387002637
5	169030	29379.732561150759	247.31452831269
5	169085	29387.16682993986	251.07499257714
5	169090	29387.61260574814	249.62266450951
5	169099	29388.265296864865	246.19701880666
5	169117	29390.452843842368	244.20837496718
5	169122	29390.705397729016	241.58183305811
5	169130	29391.313820300125	242.01052890871
5	169146	29395.031321888481	241.13206831071
5	169151	29395.216741815584	236.28975758531
5	169160	29396.37030710668	236.67643030238
5	169178	29397.346187848113	236.17572695312
5	169184	29397.778385911185	234.6215729834
5	169189	29398.109747752674	228.92699520774
5	169196	29398.842423080512	228.95434319553
5	169215	29402.011219176952	230.00325810003
5	169302	29416.268685527929	239.71348652988
5	169308	29416.756704555492	237.0242306622
5	169315	29417.231208649074	234.46221471146
5	169326	29418.396475041909	235.40399717794
5	169332	29418.660996173295	229.42839032662
5	169337	29418.786654054873	227.33104150551
5	169342	29419.131329069572	223.21598913024
5	169347	29420.890013672882	208.39500841348
5	169359	29423.895523198389	210.45570542149
5	169388	29425.719675249899	212.10121665946
5	169400	29426.819765838703	201.70396414905
5	169499	29436.498620028131	207.03670198369
5	169506	29436.685209810655	206.38453237891
5	169512	29437.672094611706	202.45810723511
5	169520	29439.374733315936	203.88967193874
5	169527	29440.108970811009	201.51846620271
5	169538	29440.977976840957	188.20940587416
5	169543	29442.595590544333	172.57011421386
5	169550	29443.24347618209	169.54319792761
5	169562	29443.496040795499	164.9787794107
5	169576	29445.749078686961	161.07859179937
5	169583	29445.921318930444	157.5776818341
5	169599	29450.287942423383	161.49969842863
5	169954	29518.480240664448	224.93028803844
5	169960	29520.193868888074	222.78456623946
5	169965	29520.297024525548	219.697018364
5	169972	29520.976866141726	218.21937003328
5	169986	29524.715373447227	208.94951326947
5	170012	29528.224810149125	207.61233405472
5	170020	29529.540902960714	201.00277162734
5	170072	29539.042133355106	209.34288441014
5	170262	29570.379586074799	238.42170117618
5	170269	29570.438229219902	238.06751420085
5	170284	29572.02298875901	239.14462800743
5	170294	29572.784341614991	233.61837514334
5	170309	29577.470939437532	237.54393588663
5	170338	29582.613408353061	238.79379673535
5	170348	29586.096106276984	239.71504257546
5	170377	29591.831396063683	243.93235304934
5	170392	29598.946638321046	251.02605485473
5	170499	29620.275152769262	265.06566523233
5	170507	29621.369753064022	258.75946313464
5	170512	29621.865616338852	256.55777217837
5	170517	29623.188046051768	252.85228677385
5	170524	29625.934360745896	255.35131670347
5	170535	29626.30422938228	254.31001203422
5	170544	29628.168426799486	255.60702282522
5	170563	29631.420870267233	255.575132592
5	170578	29632.131874700848	255.04459857859
5	170590	29633.247665406211	249.73649837609
5	170618	29636.06693360263	239.39567545361
5	170624	29636.890357975717	229.289812451
5	170636	29638.578964134184	226.89764165094
5	170684	29646.070639705049	233.4831734889
5	170691	29646.091947286008	220.13471451554
5	170712	29649.860206617007	221.97017123195
5	170729	29650.638682569477	222.59646332354
5	170735	29650.830023781796	220.58836917192
5	170743	29651.452932269547	216.98979615172
5	170754	29652.222477957883	215.62092188976
5	170759	29652.737270271431	207.26603016178
5	170766	29653.918441724923	199.01485700683
5	170931	29681.259864415111	216.76459089971
5	170936	29682.652329756482	217.99097194908
5	170942	29684.002458531271	216.30928848469
5	170959	29686.967907979453	214.38430688787
5	170980	29689.802142179119	206.612921508
5	171035	29698.499998940504	211.61192963737
5	171042	29699.387784552512	208.7728879755
5	171051	29700.565268414059	209.10941961447
5	171086	29704.377666596743	210.88410154746
5	171095	29705.922068286841	209.49648737047
5	171100	29706.291025271413	208.71067754852
5	171109	29707.943404803122	209.36978766889
5	171128	29710.675053740168	211.64206691776
5	171140	29712.60301626623	213.35594715001
5	171147	29712.776805227386	207.40064060538
5	171155	29713.688177649611	207.86443392249
5	171160	29715.237510375539	207.26161532309
5	171167	29716.597266603462	199.64882178335
5	171182	29722.444763935349	200.30576891631
5	171199	29723.150063603911	198.83593478828
5	171213	29724.444542217326	191.09509734131
5	171219	29724.938177082103	186.45424328648
5	171226	29725.290871918573	184.81290738907
5	171246	29730.206093752698	184.12305430437
5	171397	29753.297166470788	200.09028826342
5	171405	29755.927447806211	198.52484963893
5	171415	29758.036310056879	197.32384277136
5	171429	29759.694850151367	194.15994791836
5	171442	29761.117377770614	190.39439176999
5	171481	29766.458386277502	190.59466802954
5	171497	29767.938677723236	189.68748345114
5	171504	29769.279052308049	189.02926907942
5	171509	29769.481372279027	182.43459505708
5	171514	29769.826444726821	178.61186232187
5	171519	29770.275873704383	176.7590853762
5	171530	29772.143254001028	167.79359001149
5	171593	29784.188367322303	178.73299836349
5	171599	29784.746204315764	173.43421034005
5	171604	29785.152316006002	172.17526521872
5	171612	29785.987449007828	169.6295238084
5	171713	29804.521630789995	183.89410193386
5	171727	29807.433984410589	179.98684895345
5	171738	29807.989607884865	166.41722317313
5	171749	29809.129409773131	165.10825198453
5	171772	29810.437279767137	164.18329351359
5	171778	29811.08289007876	163.4605535276
5	171783	29811.561849632019	162.3504351674
5	171797	29813.275810658079	155.02655076166
5	171834	29815.209822630285	153.53111600109
5	171839	29816.443898221212	153.91711705272
5	171845	29818.086669262302	155.48803583381
5	171853	29819.947612217911	156.56290906299
5	171858	29820.612929422104	156.68995540189
5	171869	29822.696651551193	156.5653542795
5	171908	29826.765132435652	159.62922488356
5	171913	29826.900558863414	159.17752826455
5	171918	29827.359013356691	159.59910916083
5	171927	29828.641015202696	159.64621644536
5	171968	29839.898830981242	169.92481409911
5	171995	29843.538674152481	172.28033039975
5	172007	29846.472121701725	173.57346113769
5	172019	29847.530289900392	173.28381271693
5	172027	29848.351054864599	173.33638069938
5	172032	29850.683882681726	163.87637748817
5	172037	29851.123075605523	164.15830610631
5	172044	29853.075851282381	161.47673094764
5	172056	29854.844442308099	162.07233380433
5	172090	29858.586675425219	164.9676096203
5	172124	29863.79790318575	165.10648371496
5	172140	29865.708740104262	163.90251905346
5	172147	29866.372473197269	164.26313480085
5	172152	29866.733594121958	162.61933629105
5	172159	29867.080833708954	161.17211094795
5	172170	29868.699234033317	159.30459372523
5	172176	29869.081184455144	156.99572690856
5	172183	29870.957424523161	158.7599188624
5	172188	29872.971566644526	160.14699159285
5	172203	29876.115647512628	149.12767251325
5	172243	29881.578598489486	152.71774971104
5	172255	29887.043476054698	154.70500939747
5	172296	29894.426927901239	160.86785612925
5	172301	29894.437494779683	160.77863495279
5	172306	29894.600465572718	149.95363483581
5	172313	29897.69723698634	140.32421227913
5	172330	29901.593738059247	132.8712824507
5	172346	29903.808769935594	133.23503045459
5	172383	29910.558036750603	139.32814313723
5	172425	29916.546563817026	142.9957341555
5	172433	29917.696704331296	143.76873854559
5	172445	29918.38773403955	142.3907490187
5	172450	29918.813411043413	142.74362504488
5	172461	29920.470258654862	142.06241982983
5	172470	29923.377275544674	144.81965540286
5	172475	29923.447983293648	140.26615671237
5	172482	29923.928251356939	124.23131431701
5	172498	29925.370661478566	115.64360264268
5	172508	29925.73707848366	115.36691399693
5	172516	29926.573685519205	114.8155855158
5	172800	29987.29632014501	174.42673686866

