version 2
run First-n3-6-20191016-17:03:28-4500
attr configname First-n3
attr datetime 20191016-17:03:28
attr experiment First-n3
attr inifile omnetpp.ini
attr iterationvars ""
attr iterationvarsf ""
attr measurement ""
attr network org.omnetpp.queueing.Pizza
attr processid 4500
attr repetition 6
attr replication ""
attr resultdir results
attr runnumber 6
attr seedset 6
param **.PS.maxInventoriedPS 3
param **.U1.interArrivalTime exponential(2s)
param **.U2.interArrivalTime exponential(4s)
param **.PS.serviceTimeForInventoryU1 exponential(0.8s)
param **.PS.serviceTimeForInventoryU2 exponential(1.0s)
param **.PS.serviceTimeDirectU1 exponential(1.2s)
param **.PS.serviceTimeDirectU2 exponential(1.4s)
param **.PS.probabilityProducing 0.5
param **.CS.serviceTimeU1 exponential(0.8s)
param **.CS.serviceTimeU2 exponential(1.0s)

vector 0 Pizza.EntryQueueU1 queueLength:vector ETV
attr interpolationmode sample-hold
attr title "queue length, vector"
vector 1 Pizza.CS queueLength:vector ETV
attr interpolationmode sample-hold
attr title "queue length, vector"
vector 2 Pizza.EntryQueueU2 queueLength:vector ETV
attr interpolationmode sample-hold
attr title "queue length, vector"
vector 3 Pizza.sink lifeTime:vector ETV
attr interpolationmode none
attr title "lifetime of arrived jobs, vector"
attr unit s
vector 4 Pizza.sink lifeTimeU1:vector ETV
attr interpolationmode none
attr title "lifetime of arrived jobs, vector"
attr unit s
vector 5 Pizza.sink lifeTimeU2:vector ETV
attr interpolationmode none
attr title "lifetime of arrived jobs, vector"
attr unit s
0	0	0	0
0	16	5.4836616119	1
0	17	5.708252767279	0
0	24	6.995394588346	1
0	25	7.593883598229	0
0	56	14.56947919385	1
0	59	14.889452155863	2
0	60	15.186347880309	1
0	65	15.65379717604	0
0	76	17.55614748617	1
0	79	18.789414015471	2
0	80	19.117456578518	1
0	87	20.007567361519	0
0	93	20.3673754618	1
0	94	21.026218727451	0
0	100	22.89434090904	1
0	101	23.242366044807	0
0	123	27.166726821803	1
0	132	29.801660199271	2
0	133	29.909648847871	1
0	139	30.817895182741	2
0	141	31.461605013437	1
0	146	31.629729809515	0
0	169	33.712116523897	1
0	172	34.359122791893	0
0	179	35.621265276045	1
0	184	37.361533568437	0
0	216	40.970901635448	1
0	217	41.994084906225	0
0	223	42.111387175916	1
0	227	42.911370690972	0
0	241	43.590949870762	1
0	243	43.800723488599	0
0	250	44.425913694841	1
0	251	45.289237382156	0
0	264	46.277921978155	1
0	265	47.011687397808	0
0	275	47.626053938771	1
0	276	48.224956430924	0
0	303	49.907953359709	1
0	305	50.349052974972	2
0	307	50.744507450059	3
0	309	50.926765051899	4
0	310	51.238052838408	3
0	317	52.586839497317	2
0	323	53.7269962109	1
0	329	53.984847927146	2
0	330	54.960441526156	1
0	336	55.647049764549	2
0	337	56.882326232028	1
0	341	57.021582659751	2
0	343	57.108927476221	3
0	347	57.775976050069	4
0	350	58.876202672052	3
0	354	58.971634634695	4
0	357	59.32225799066	3
0	363	60.513419190529	2
0	369	60.644731235531	3
0	371	60.739907955963	4
0	372	60.800386055497	3
0	376	60.821126069935	4
0	379	61.490960343049	3
0	383	62.83079153482	4
0	385	62.854138970034	5
0	387	62.997033859453	6
0	389	63.644803882656	7
0	398	65.726892594829	6
0	403	65.952586497254	5
0	408	66.546073657198	4
0	415	68.127535484782	3
0	420	68.955583686856	2
0	426	69.480236488656	3
0	427	70.182172866279	2
0	431	70.356463720933	3
0	435	70.865333924755	4
0	437	71.737446073078	5
0	441	73.506421860246	6
0	442	73.933783590289	5
0	447	75.622668828421	4
0	453	77.304290723986	3
0	458	77.533966301029	2
0	463	79.229594259471	1
0	469	80.969517353148	0
0	475	81.506097067293	1
0	476	81.553048988331	0
0	480	81.559611469425	1
0	482	82.151210959879	2
0	484	82.581731512285	3
0	486	83.200763718282	4
0	494	86.530593738068	3
0	499	86.570735471411	2
0	503	86.675322317407	3
0	507	87.219282755116	4
0	508	88.569747280648	3
0	516	92.121027241241	4
0	518	92.23932397793	5
0	523	92.94372564762	6
0	525	92.959630753695	7
0	526	93.043223785463	6
0	531	93.294497296784	5
0	535	93.296801557813	6
0	538	93.838765141198	5
0	542	94.885853476411	6
0	547	96.512182135763	5
0	552	98.254188537613	4
0	556	98.61036438485	5
0	560	99.171356009235	6
0	566	100.283614884978	7
0	573	102.502696633985	8
0	575	103.004928362542	9
0	577	103.261841475643	10
0	579	103.574502162154	11
0	580	103.67202420312	10
0	586	104.03859073685	11
0	589	104.76539160973	10
0	596	105.006817617825	9
0	602	105.119855185347	8
0	607	105.947605039638	7
0	614	106.859780925977	6
0	619	107.310368393689	5
0	623	107.858269274238	6
0	629	109.347722915197	7
0	630	109.984921837373	6
0	635	110.703107643637	5
0	641	112.500203675593	6
0	642	112.57867400864	5
0	647	113.663203615623	4
0	652	114.539881441209	3
0	659	115.847967095341	2
0	666	117.389250884589	3
0	668	117.528234500021	4
0	669	117.607093506908	3
0	675	117.61358522483	4
0	678	118.548525938393	3
0	685	120.031828424106	2
0	691	120.303591205633	1
0	696	120.802887030887	0
0	700	121.000157474255	1
0	702	121.770278054275	2
0	708	123.747085812141	3
0	709	124.834376757425	2
0	713	126.142797861515	3
0	717	127.059401864617	2
0	723	127.217285141977	3
0	724	129.130115459548	2
0	729	130.687312325682	1
0	734	131.306239889272	0
0	746	132.365245253954	1
0	747	132.588383177668	0
0	761	134.631420365458	1
0	763	134.886949886762	2
0	766	135.747567145659	1
0	770	135.863283185109	2
0	773	136.749826304643	1
0	778	137.066938751397	0
0	806	141.786712296936	1
0	810	142.884083940758	0
0	817	143.823538971744	1
0	818	144.341517822541	0
0	841	147.870303850103	1
0	842	148.838893743067	0
0	864	151.146619931737	1
0	869	155.898315606786	0
0	906	160.326979393454	1
0	908	160.890256203664	2
0	912	161.496876776871	3
0	914	163.373066291214	4
0	916	163.91269418245	5
0	924	168.008015114389	4
0	930	168.105192974689	3
0	935	168.266732429636	2
0	940	168.479332650155	1
0	948	168.904667718478	2
0	950	169.039120088858	3
0	952	169.421814066384	4
0	953	169.625262958293	3
0	959	170.818266636525	2
0	965	171.368973634746	3
0	967	171.748478055127	4
0	968	172.211701466627	3
0	974	173.053614802832	2
0	978	173.123015420395	3
0	981	173.585963802135	2
0	985	175.049447978443	3
0	991	177.124094999436	2
0	998	177.988451666795	3
0	999	178.026793185912	2
0	1004	178.148603084252	1
0	1009	179.8510768593	0
0	1026	181.712109799737	1
0	1029	183.18770034551	0
0	1033	183.638188181748	1
0	1037	185.34020689383	2
0	1039	185.354727013777	3
0	1040	185.368868473756	2
0	1044	185.641206635193	3
0	1049	188.086663100563	2
0	1053	188.527015804263	3
0	1055	189.116083255726	4
0	1061	191.423510991034	3
0	1066	191.665969552524	2
0	1070	192.274395948476	3
0	1072	192.699644626622	4
0	1075	194.030611146745	3
0	1082	196.529797361882	2
0	1090	197.65090577107	3
0	1092	197.828470621078	4
0	1093	199.04157052777	3
0	1098	202.685317877311	2
0	1102	202.772523075145	3
0	1107	203.732707806143	2
0	1113	203.865642791785	3
0	1114	204.033525133057	2
0	1119	205.124447507645	1
0	1124	205.267552231207	0
0	1128	206.280119452634	1
0	1131	207.207301053497	0
0	1174	210.80954272546	1
0	1176	211.12709319222	2
0	1177	211.437721762861	1
0	1184	211.769077321962	0
0	1211	214.474815350541	1
0	1212	214.51413616024	0
0	1226	217.003901775157	1
0	1229	217.155277654984	0
0	1233	217.239789309675	1
0	1237	218.073056670029	0
0	1254	221.645620180992	1
0	1258	224.089809767719	0
0	1304	227.485954810392	1
0	1306	227.546959218585	2
0	1310	229.258439595477	3
0	1311	229.467089723233	2
0	1318	231.508177226228	3
0	1319	231.837063508405	2
0	1324	232.068714536146	1
0	1330	232.087023717504	0
0	1384	240.030938863079	1
0	1386	240.278863066863	2
0	1389	240.783083079171	1
0	1394	241.793431383811	0
0	1400	242.113714302651	1
0	1403	243.558686242761	0
0	1450	251.566082288324	1
0	1451	251.737938467298	0
0	1455	252.325690801516	1
0	1462	255.755356714598	2
0	1468	257.622678025959	3
0	1470	257.709274887347	4
0	1471	257.845641985704	3
0	1476	258.034106997587	2
0	1482	259.351589618667	3
0	1489	262.84493713308	2
0	1494	263.57146453679	1
0	1500	263.772653125562	2
0	1503	264.142779088106	3
0	1504	264.701018824241	2
0	1509	264.7393272364	1
0	1514	265.797426447405	0
0	1520	266.742824595427	1
0	1522	267.47186180759	2
0	1524	267.551449991853	3
0	1528	268.147436229099	4
0	1533	270.842314792738	3
0	1538	272.094262576618	2
0	1543	272.389059192542	1
0	1547	272.961521871719	2
0	1552	273.514047572772	1
0	1556	274.659266515812	2
0	1559	274.928892316462	1
0	1564	275.4447694952	0
0	1590	278.097726433324	1
0	1593	279.853538360725	2
0	1595	282.235567835261	3
0	1597	282.379517522838	4
0	1598	284.278060915287	3
0	1604	284.910402460031	4
0	1609	285.541803937052	5
0	1613	288.03167577652	6
0	1614	288.049644307532	5
0	1619	288.4635644278	4
0	1624	290.005792974497	3
0	1630	292.676728545913	4
0	1633	294.260061973648	3
0	1641	297.59282129494	4
0	1642	297.601292178411	3
0	1648	297.953534563423	4
0	1649	298.077979323042	3
0	1653	299.159753090878	4
0	1657	299.591326210301	3
0	1663	301.114721354134	2
0	1668	301.177972555073	1
0	1674	301.424041739139	2
0	1677	302.376755196358	3
0	1678	303.747399172857	2
0	1685	303.973500109341	1
0	1691	304.146717465374	2
0	1693	304.385204238868	3
0	1694	305.297977060495	2
0	1704	306.25617625542	1
0	1710	307.940902311698	0
0	1734	309.313006706901	1
0	1735	309.92934105396	0
0	1754	311.620463711196	1
0	1759	311.881301665933	2
0	1765	313.25553222623	3
0	1767	313.911854420412	4
0	1768	314.141339150837	3
0	1773	315.425503809925	2
0	1779	316.06392111233	1
0	1787	318.579533760912	2
0	1788	318.643634763965	1
0	1793	319.309230107251	0
0	1799	319.986708188374	1
0	1800	320.050025784001	0
0	1837	325.915727281374	1
0	1839	325.951918236917	2
0	1840	326.103986282018	1
0	1846	326.254953501323	0
0	1865	327.749779137031	1
0	1866	328.341351199169	0
0	1875	329.613420330086	1
0	1878	330.049873773785	0
0	1896	333.165171832247	1
0	1899	333.515796175607	0
0	1913	334.604829227934	1
0	1917	335.653523924752	2
0	1919	335.699570925123	3
0	1921	336.658916997627	2
0	1926	337.124963043483	1
0	1931	338.144925054368	0
0	1953	339.50655413216	1
0	1958	340.255448181335	0
0	1967	340.638235119045	1
0	1971	341.176139245075	2
0	1973	342.851152781711	3
0	1981	344.902675538177	4
0	1984	347.733029463134	3
0	1992	348.813057713158	2
0	1998	349.834031677998	1
0	2006	350.931849512996	0
0	2017	351.322016375952	1
0	2020	351.630594833492	0
0	2026	352.63872462439	1
0	2028	352.855771510276	2
0	2033	353.764983662224	1
0	2038	354.65909277353	0
0	2045	355.27580331837	1
0	2047	355.703615473943	2
0	2048	358.167470924373	1
0	2053	359.991569374533	0
0	2057	360.784734126604	1
0	2063	362.329958210079	2
0	2064	362.609677657295	1
0	2068	367.952495206502	2
0	2074	368.972528613196	3
0	2077	369.707662766879	2
0	2083	370.189530326327	3
0	2084	370.511276379763	2
0	2091	372.742037519563	1
0	2096	373.447576892844	0
0	2102	374.303569671215	1
0	2104	375.322950912407	2
0	2108	376.712795142476	1
0	2113	376.954060064239	0
0	2117	377.145640440876	1
0	2123	377.769681278666	2
0	2126	378.738792463972	3
0	2130	379.824830086075	4
0	2133	380.772840534758	3
0	2139	381.666876870235	2
0	2144	381.821778142854	1
0	2149	382.438390625999	0
0	2153	382.560450231682	1
0	2157	383.230068180309	2
0	2159	383.908742344168	3
0	2160	384.011462245829	2
0	2165	385.411785814704	1
0	2170	389.576113670661	0
0	2176	390.204954817134	1
0	2178	390.395037552947	2
0	2179	391.264421620429	1
0	2187	392.328451003222	2
0	2188	392.430450922477	1
0	2194	392.834589463506	0
0	2230	399.911564813325	1
0	2232	400.175668035142	2
0	2236	400.413067651661	3
0	2240	401.937946264757	4
0	2242	402.411253442285	3
0	2249	404.606455278831	2
0	2254	404.769714249148	1
0	2258	405.175200113596	2
0	2264	406.665238880213	1
0	2268	406.68593012471	2
0	2275	408.910404097945	1
0	2281	409.513532132578	2
0	2283	409.678469350163	3
0	2285	410.138169417885	2
0	2291	411.611641495641	3
0	2292	412.130863415583	2
0	2297	412.441837791284	1
0	2303	413.141337589326	2
0	2307	416.078856373121	3
0	2308	416.166739298589	2
0	2312	416.873477576198	3
0	2314	417.492991668937	4
0	2318	418.453599811181	5
0	2324	420.11274643985	4
0	2329	420.153566569593	3
0	2334	421.163773167156	2
0	2341	422.123922038346	1
0	2347	422.922703533537	2
0	2348	422.973437440399	1
0	2353	423.075865906591	0
0	2357	423.212037491009	1
0	2362	424.02899640003	0
0	2397	428.100236591572	1
0	2399	428.403456280202	2
0	2400	428.97069879754	1
0	2408	431.122686064502	0
0	2421	433.230645134887	1
0	2422	433.329073620792	0
0	2433	434.75139269762	1
0	2435	434.981432419084	2
0	2437	435.232028260048	3
0	2438	435.359545304321	2
0	2443	436.135082542112	1
0	2449	436.329867148818	2
0	2451	436.68095588721	3
0	2459	439.733421364544	2
0	2465	439.823201314092	1
0	2473	440.288661581569	2
0	2474	440.736739112556	1
0	2482	441.524148983232	2
0	2483	441.858019126891	1
0	2489	442.328203090208	2
0	2490	443.507935728548	1
0	2496	444.373142141604	2
0	2498	445.040667262948	3
0	2499	445.162798608168	2
0	2506	445.63427000926	1
0	2514	447.032049502896	2
0	2515	447.568069579305	1
0	2520	447.707965572056	0
0	2540	450.996322792493	1
0	2542	451.122806120001	2
0	2544	451.158044415624	3
0	2548	452.340262608259	2
0	2556	453.966398104951	3
0	2557	454.544557472848	2
0	2562	455.407186164113	1
0	2568	455.883047716034	2
0	2569	456.065744942595	1
0	2573	456.113521623175	2
0	2575	456.290749443887	3
0	2578	456.473564415549	2
0	2582	456.590189581056	3
0	2592	458.705258353137	2
0	2597	459.632099874646	1
0	2603	461.7253261021	2
0	2604	461.801947400781	1
0	2612	464.011148736449	2
0	2614	464.399237890771	3
0	2615	464.891656637886	2
0	2621	465.379961616221	3
0	2624	465.71331195685	2
0	2630	466.750061472486	3
0	2632	468.284488460379	4
0	2633	468.575536506513	3
0	2638	469.426683274431	2
0	2644	470.030951434518	3
0	2646	470.546426107014	4
0	2647	470.568618637728	3
0	2651	470.708483121343	4
0	2655	471.345111741233	5
0	2659	472.048117588223	6
0	2660	472.489145887	5
0	2664	472.560085639039	6
0	2668	472.830006753748	5
0	2675	472.97266632146	4
0	2679	473.217208614252	5
0	2681	473.223488218072	6
0	2684	475.191371233072	5
0	2689	475.801098094172	4
0	2693	475.901436640804	5
0	2695	476.068928560168	6
0	2699	478.517503952953	7
0	2700	478.596042390601	6
0	2704	479.087268182258	7
0	2707	479.943656889061	6
0	2711	480.101808400562	7
0	2716	481.242581180369	8
0	2717	481.720626324545	7
0	2725	482.029227011831	6
0	2730	482.191794611758	5
0	2735	483.043982191963	4
0	2740	483.958238486566	3
0	2747	484.777700056839	4
0	2749	484.946167157648	5
0	2751	485.203486641391	6
0	2753	485.584950644006	7
0	2755	487.886237151138	6
0	2760	487.95438093248	5
0	2765	489.413704132561	4
0	2769	489.770242904034	5
0	2773	491.247012042775	6
0	2777	492.276017638028	5
0	2783	492.736268902531	6
0	2785	493.021431836136	7
0	2787	493.597587022795	8
0	2788	493.701372193816	7
0	2793	495.025046429169	6
0	2798	495.640352559082	5
0	2803	495.721328222445	4
0	2807	497.491596207109	5
0	2810	499.020134493821	4
0	2814	500.35447730082	5
0	2816	501.964486091471	6
0	2818	503.187252856354	7
0	2822	503.701083067764	8
0	2823	503.953056769813	7
0	2830	504.806766073492	6
0	2834	505.919824542273	7
0	2836	507.126010991654	8
0	2842	508.316898950938	9
0	2843	508.699288313429	8
0	2852	511.376330163209	7
0	2856	511.663724038737	8
0	2858	511.825513880856	9
0	2864	513.940408953525	10
0	2865	514.305677270305	9
0	2871	515.168126223284	10
0	2874	515.688472407528	9
0	2878	516.647616789577	10
0	2883	516.906025139897	9
0	2887	517.703653890445	10
0	2890	518.0061293202	9
0	2897	519.448949361265	8
0	2901	521.365585459741	9
0	2905	521.900250074936	8
0	2911	522.337293012638	9
0	2913	523.456993134616	10
0	2914	523.609034863134	9
0	2920	524.392055257678	8
0	2925	524.453606561075	7
0	2931	525.319142800039	6
0	2936	525.36464464959	5
0	2944	527.792042328583	6
0	2945	528.206328244626	5
0	2949	529.064866139998	6
0	2951	529.367401532277	7
0	2957	531.497354694883	6
0	2963	532.213883186645	5
0	2969	532.795076243266	6
0	2970	533.842675428943	5
0	2974	533.901234796005	6
0	2980	536.669195855582	7
0	2982	537.431584468811	8
0	2983	537.649797709842	7
0	2988	540.407989784618	6
0	2992	540.453970038004	7
0	2998	543.834640684791	8
0	2999	543.883902820799	7
0	3006	544.645618526367	6
0	3012	545.524124189356	7
0	3014	545.746834484827	8
0	3017	546.037163590411	9
0	3018	546.120562086584	8
0	3023	546.36951882712	7
0	3027	547.010541697707	8
0	3031	547.543174598243	9
0	3036	548.229043315347	10
0	3037	548.679828869856	9
0	3042	549.479812319306	8
0	3050	551.298621052325	7
0	3055	551.661617857331	6
0	3063	552.299743236977	7
0	3065	552.906781711038	8
0	3067	553.363282697722	9
0	3069	554.498210331776	10
0	3070	554.875286791091	9
0	3074	555.247071095164	10
0	3080	557.496119838379	9
0	3085	557.597075841916	8
0	3090	558.121925237786	7
0	3094	558.568488085878	8
0	3096	559.953857894666	9
0	3099	562.576745275479	8
0	3104	564.126210638481	7
0	3108	564.336262092135	8
0	3111	564.623368564371	7
0	3120	565.686661431457	8
0	3121	566.021253379827	7
0	3128	567.155868718311	6
0	3133	567.632261222508	5
0	3139	569.680121593136	4
0	3145	570.226721558847	5
0	3148	571.010381325109	6
0	3149	571.400837660115	5
0	3155	572.105209259555	4
0	3161	572.729978711308	5
0	3163	572.75345404851	6
0	3166	573.791314647381	5
0	3171	574.338689774496	4
0	3177	574.775765323918	5
0	3178	574.891215028101	4
0	3182	576.111995513932	5
0	3187	578.274971171356	6
0	3188	578.423607869244	5
0	3196	580.586696889493	6
0	3200	582.182384413871	7
0	3202	582.695779572308	8
0	3203	582.777440027649	7
0	3210	584.879272129609	6
0	3214	585.153342082983	7
0	3217	587.026942701333	6
0	3227	589.697405248327	7
0	3228	589.856694301851	6
0	3232	590.670387401214	7
0	3237	591.179863242534	6
0	3241	592.109413366273	7
0	3243	595.52774765128	8
0	3245	595.954648269773	9
0	3250	596.327464072098	8
0	3256	596.503639599844	9
0	3260	596.65480921424	10
0	3261	596.842902495121	9
0	3268	597.837087603305	8
0	3273	598.843024602892	7
0	3277	599.957116119603	8
0	3283	601.348031036408	7
0	3288	603.111468936642	6
0	3292	604.579870792755	7
0	3297	605.270086593921	6
0	3301	605.372381429383	7
0	3306	606.106142374167	6
0	3311	606.195007443268	5
0	3317	607.566818034715	4
0	3323	607.78145053446	5
0	3324	607.791924030819	4
0	3329	608.529160022333	3
0	3333	609.590127587378	4
0	3338	610.074507899882	5
0	3341	611.095599303983	4
0	3347	613.010700923217	5
0	3349	613.016933549694	6
0	3350	614.135839098361	5
0	3356	614.923766958818	6
0	3358	616.484660359778	7
0	3359	616.609125746131	6
0	3366	618.863534644412	5
0	3372	619.478525163352	4
0	3377	620.384394798884	3
0	3381	621.611194881264	4
0	3384	623.370641417869	3
0	3388	625.203166717722	4
0	3390	626.847079731047	5
0	3393	627.975100685738	4
0	3398	630.068226200333	3
0	3402	630.618056646241	4
0	3406	632.166144971841	3
0	3411	632.182001936525	2
0	3417	632.38491192612	3
0	3418	632.595828448041	2
0	3422	633.172620408955	3
0	3426	635.239378126015	4
0	3427	635.519355407364	3
0	3433	636.835544759966	4
0	3435	637.297572555984	5
0	3436	637.949716473883	4
0	3440	640.615556262581	5
0	3442	640.837759691638	6
0	3445	641.244940090671	5
0	3450	643.935255317083	4
0	3454	643.981898450318	5
0	3457	644.311867783584	4
0	3463	645.889583263331	3
0	3468	645.9150742855	2
0	3472	646.098873307441	3
0	3474	646.323808076452	4
0	3476	647.519103167001	5
0	3486	649.015653134576	6
0	3488	651.08135280069	7
0	3489	651.864200820363	6
0	3495	652.568137100362	7
0	3497	652.774567646202	8
0	3498	653.624274013593	7
0	3504	653.659357254542	8
0	3505	654.41018361458	7
0	3509	655.007161131508	8
0	3511	655.027299721122	9
0	3515	655.788815186224	10
0	3517	656.11101593289	11
0	3519	657.399551979575	12
0	3520	657.484842887396	11
0	3527	658.156553886539	10
0	3532	658.435436451979	9
0	3539	659.164048287225	8
0	3544	661.45922149515	7
0	3549	662.220734545458	6
0	3554	663.474846055312	5
0	3559	665.60537220849	4
0	3564	667.533783760585	3
0	3568	667.581011349087	4
0	3572	668.380786717041	3
0	3579	669.38815542005	2
0	3583	669.423439498611	3
0	3587	670.879690129221	2
0	3593	671.272066087992	3
0	3596	671.919463887659	4
0	3597	671.927437872498	3
0	3607	672.946681482809	2
0	3617	674.486927398671	1
0	3624	674.793064987854	0
0	3643	677.810218217722	1
0	3644	677.868583291255	0
0	3656	679.65240555923	1
0	3657	679.664642613329	0
0	3669	681.878695111733	1
0	3672	682.799041438751	2
0	3673	683.12819520785	1
0	3678	683.224497336564	0
0	3708	686.067064706422	1
0	3709	686.302504500299	0
0	3722	687.110025574729	1
0	3727	687.531459504838	2
0	3728	688.888173689494	1
0	3733	689.278132692052	0
0	3771	697.417317580069	1
0	3773	698.216342100006	0
0	3792	700.61253268738	1
0	3793	701.233792078465	0
0	3802	703.139570729372	1
0	3803	703.414662382203	0
0	3813	705.477509436158	1
0	3816	705.958732096064	0
0	3828	707.00721607068	1
0	3829	707.394869217427	0
0	3851	708.618859017992	1
0	3854	709.796041066279	2
0	3855	711.376446825123	1
0	3862	711.660242467117	2
0	3863	711.680614574549	1
0	3869	712.513061422919	0
0	3877	712.758418555924	1
0	3878	712.821260645327	0
0	3899	714.756747729876	1
0	3904	715.411114691064	2
0	3906	715.578422734126	3
0	3907	716.586519837507	2
0	3912	718.557089067148	1
0	3921	720.91756179234	2
0	3922	720.999834330187	1
0	3928	723.242253125647	2
0	3930	723.438883683506	1
0	3935	723.50243446655	0
0	3953	724.820422320794	1
0	3954	724.948947265391	0
0	3974	727.031798968604	1
0	3976	727.228192547742	2
0	3977	727.591562296312	1
0	3982	727.616451166287	0
0	3988	729.196402238908	1
0	3990	729.326323630039	2
0	3991	730.713302074351	1
0	3997	731.081648207314	2
0	4001	731.924752512778	3
0	4003	732.450809783735	4
0	4005	733.38196134427	5
0	4007	734.160754951359	6
0	4009	734.844934437597	7
0	4013	736.686035741208	6
0	4020	737.704880514529	5
0	4025	737.991519924937	4
0	4029	738.13461930243	5
0	4033	738.659381394556	6
0	4035	739.180370153917	7
0	4037	740.02079897962	8
0	4038	740.640598149649	7
0	4042	740.671104504095	8
0	4048	743.469428498263	9
0	4049	743.469675687441	8
0	4053	743.874730479974	9
0	4056	745.065163152776	8
0	4068	749.011874551178	9
0	4069	749.811932839353	8
0	4075	750.059455101262	9
0	4078	750.45124063402	8
0	4083	750.705073129279	7
0	4089	750.944337870711	8
0	4092	752.176250930841	7
0	4101	753.598643139233	8
0	4104	754.605137591187	9
0	4105	754.931892293383	8
0	4110	754.932060038252	7
0	4115	755.614235045413	6
0	4120	756.029266531525	5
0	4126	757.901096729328	6
0	4135	761.758996572866	5
0	4141	762.403549587479	4
0	4146	762.41153610768	3
0	4151	762.711978436413	2
0	4155	762.781250544723	3
0	4162	765.129264947135	4
0	4164	765.769489955166	5
0	4165	765.85218648786	4
0	4170	765.944539756099	3
0	4175	767.593090901071	2
0	4180	768.247827103213	1
0	4184	768.274526424464	2
0	4186	768.28368100248	3
0	4188	768.317953742561	4
0	4191	769.153068949189	3
0	4195	769.891752423621	4
0	4198	771.240261102645	3
0	4202	771.817779610879	4
0	4205	773.711420261098	3
0	4209	774.364193508804	4
0	4211	774.696934297853	5
0	4213	776.668620164282	6
0	4219	777.486095099837	5
0	4224	777.546746569384	4
0	4229	780.065461680585	3
0	4234	782.519579592748	2
0	4240	785.362375098572	3
0	4241	785.445375828834	2
0	4246	786.99563206524	1
0	4252	789.172913459114	0
0	4266	790.098933232102	1
0	4269	790.966873909102	0
0	4287	794.597624998707	1
0	4288	794.781014319742	0
0	4295	795.436015078946	1
0	4296	796.250819197952	0
0	4326	800.8680961681	1
0	4329	802.500820896142	0
0	4341	805.100462464052	1
0	4343	805.823680042013	2
0	4345	805.916524266532	3
0	4353	810.777525369302	4
0	4355	810.89629173472	5
0	4357	812.697047656791	6
0	4358	813.4659780764	5
0	4363	814.521344389796	4
0	4370	815.016726240896	3
0	4381	816.653487890705	2
0	4386	816.94282514461	1
0	4392	817.781886731626	2
0	4393	818.224161937723	1
0	4399	819.095529736623	2
0	4401	819.748721680021	3
0	4402	820.059985032812	2
0	4408	822.028915501517	3
0	4412	824.138401002544	2
0	4417	824.14368509053	1
0	4424	825.033273305523	2
0	4426	826.070148361211	1
0	4431	826.149315509877	0
0	4450	828.13858697334	1
0	4451	829.49062147992	0
0	4462	830.414128049251	1
0	4463	830.438966451175	0
0	4469	832.155320985418	1
0	4470	832.433140046619	0
0	4492	834.243240695381	1
0	4500	835.045907774072	2
0	4502	835.317711521075	1
0	4509	835.676131522582	0
0	4523	837.954086904444	1
0	4526	838.878352869729	0
0	4538	841.185773514824	1
0	4540	842.219988060963	2
0	4544	843.181247481986	3
0	4546	843.284485210046	4
0	4548	843.599039532775	3
0	4554	844.023692594634	4
0	4556	844.258231608319	5
0	4557	844.269004560916	4
0	4562	846.057225587096	3
0	4568	846.829083919003	4
0	4569	847.015751938817	3
0	4574	847.421142743839	2
0	4580	847.618758520046	3
0	4581	848.203176884256	2
0	4586	848.470042212435	1
0	4591	848.830414186531	0
0	4604	850.172802130586	1
0	4606	850.421388936146	2
0	4608	850.506904235437	3
0	4609	850.692692934058	2
0	4620	852.445300535633	3
0	4622	852.965168264545	4
0	4623	853.29958161813	3
0	4628	853.336891050532	2
0	4634	853.747959091262	3
0	4635	854.048020360365	2
0	4640	854.349526517851	1
0	4648	854.927928110728	2
0	4650	855.937508313059	3
0	4652	856.644101559483	4
0	4656	857.513471578739	5
0	4658	858.002937572035	4
0	4665	858.794150134692	3
0	4669	858.891759700234	4
0	4672	859.492372575534	3
0	4677	860.207665180184	2
0	4681	860.244047462768	3
0	4683	861.352439314655	4
0	4685	861.387119967097	5
0	4688	861.770393254952	4
0	4693	862.371019893343	3
0	4699	862.661682655049	4
0	4702	865.068440246157	3
0	4708	866.002722650059	4
0	4712	867.669655809808	5
0	4714	867.789122649096	6
0	4715	868.594245421464	5
0	4719	868.989221526685	6
0	4722	870.522012762609	5
0	4727	872.983358542005	4
0	4733	873.162651262225	5
0	4737	874.995820641041	4
0	4743	875.264918639755	5
0	4745	876.906237277107	6
0	4746	878.025154146682	5
0	4757	880.717011356828	4
0	4761	880.851895193092	5
0	4764	881.693072937915	4
0	4769	882.327290618102	3
0	4773	884.368074188026	4
0	4776	885.452995116461	3
0	4781	886.618728990186	2
0	4785	888.629300987549	3
0	4787	889.021507211034	4
0	4789	889.925709133772	5
0	4793	892.186303123823	4
0	4798	892.454127732378	3
0	4806	893.889708016306	4
0	4807	894.231829263193	3
0	4815	896.077821838437	4
0	4818	897.092302941378	5
0	4819	897.368693183528	4
0	4824	897.569751977277	3
0	4829	897.871013603967	2
0	4833	898.376924900947	3
0	4837	899.708566006313	2
0	4845	899.95937650524	3
0	4847	900.084315904222	4
0	4851	901.198686258757	3
0	4856	902.633704662471	2
0	4861	902.657360937248	1
0	4867	903.054856329266	2
0	4868	903.235699091546	1
0	4872	903.791003821638	2
0	4875	905.328884954453	1
0	4880	907.149214486685	0
0	4903	910.908797413518	1
0	4905	911.109189750603	2
0	4906	911.315265235349	1
0	4912	912.474841750037	0
0	4916	912.606752231653	1
0	4919	913.681499478541	0
0	4936	915.072389257612	1
0	4938	915.334170069524	2
0	4940	915.955179705513	3
0	4941	916.517915051928	2
0	4947	916.76351713756	1
0	4955	916.911980797825	2
0	4957	917.536142826172	3
0	4961	919.271729885754	2
0	4966	919.500219432388	1
0	4974	921.193504147215	2
0	4976	921.443566668081	3
0	4977	921.561515853022	2
0	4982	922.279655230165	1
0	4986	922.491055034089	2
0	4988	922.502305879565	3
0	4990	924.026115113305	4
0	4992	924.027267279262	5
0	4995	925.401839978068	4
0	5001	927.291003526221	5
0	5002	927.858992364201	4
0	5008	929.003570060306	5
0	5009	930.310130305524	4
0	5015	931.644378618111	5
0	5021	933.434366408225	6
0	5022	933.753537799971	5
0	5030	934.813038034301	6
0	5031	935.030591486015	5
0	5035	935.296284156334	6
0	5040	937.584300044124	5
0	5045	937.677523091497	4
0	5050	937.79972280155	3
0	5056	938.825186069192	4
0	5061	939.315743774034	3
0	5066	939.632509216841	2
0	5071	940.470181241816	1
0	5079	943.369101248231	2
0	5080	943.441613619792	1
0	5085	944.38380500336	0
0	5091	946.345036802929	1
0	5093	949.092149954187	2
0	5096	952.031616592263	1
0	5103	954.196428403953	0
0	5131	961.43543802073	1
0	5132	961.622350837645	0
0	5138	962.161599724153	1
0	5140	962.743970609849	2
0	5141	962.812535299045	1
0	5146	962.891444491598	0
0	5158	964.450141425472	1
0	5159	966.048452687241	0
0	5177	968.275903909012	1
0	5180	968.453074306889	2
0	5181	968.59764455799	1
0	5187	968.65135808344	0
0	5209	972.587502421215	1
0	5211	972.778781829316	2
0	5217	973.656443364671	3
0	5219	973.791636062622	2
0	5227	974.929657709068	3
0	5229	975.466720707215	2
0	5236	975.689474186991	3
0	5241	975.984038278298	2
0	5252	978.461171992277	1
0	5258	979.458802673655	0
0	5276	982.796532180441	1
0	5278	983.892317094242	2
0	5282	985.375663338809	3
0	5284	986.082234056404	4
0	5285	986.402024851552	3
0	5291	986.881247067537	4
0	5294	988.308416079685	3
0	5299	988.630172327866	2
0	5305	990.451535957089	3
0	5306	990.643414839536	2
0	5311	992.542295546634	1
0	5315	993.614494525351	2
0	5320	996.401354191963	1
0	5324	997.734738205333	2
0	5327	997.878526407612	1
0	5333	1000.242710504931	2
0	5335	1001.5348140929	1
0	5340	1002.007674418016	0
0	5367	1006.169035113726	1
0	5368	1006.223681957293	0
0	5377	1008.175608223236	1
0	5379	1008.749796222037	2
0	5382	1010.108196747649	1
0	5388	1010.588174551535	2
0	5390	1010.750061058013	1
0	5399	1012.181383579666	2
0	5403	1014.377678799217	1
0	5410	1014.928397262217	0
0	5416	1015.456914682451	1
0	5417	1016.391122848217	0
0	5441	1017.886884549569	1
0	5443	1018.105315052095	2
0	5444	1018.482154934453	1
0	5449	1018.850879745378	0
0	5477	1023.91005610819	1
0	5479	1024.844723997879	2
0	5481	1025.03993437483	3
0	5483	1025.617709290566	4
0	5486	1027.257296584961	3
0	5493	1027.959349514846	2
0	5499	1028.126684054559	3
0	5501	1028.672156654777	2
0	5506	1029.025263183822	1
0	5513	1030.807657453446	0
0	5520	1032.219088959687	1
0	5522	1032.393398574479	2
0	5524	1033.378474713253	3
0	5525	1033.818190252726	2
0	5531	1034.185208249344	3
0	5533	1034.277024002496	4
0	5535	1035.230076892953	5
0	5536	1035.248742727031	4
0	5540	1036.170982606392	5
0	5545	1038.447467796641	4
0	5549	1039.170738009187	5
0	5552	1040.919718392846	4
0	5559	1042.467788623148	3
0	5566	1044.85113024139	2
0	5571	1046.678584974944	1
0	5575	1046.813256194732	2
0	5579	1047.337996557226	3
0	5585	1049.574825777378	4
0	5588	1051.103590617806	3
0	5596	1053.415446776986	4
0	5598	1053.718897173022	5
0	5599	1053.832489157718	4
0	5605	1053.997907318823	5
0	5607	1056.198877048234	4
0	5612	1056.223825605645	3
0	5616	1057.164962586494	4
0	5622	1058.867934850699	3
0	5628	1059.264759726717	4
0	5630	1059.274422698841	5
0	5631	1059.315824044944	4
0	5637	1059.720389247187	5
0	5641	1060.907294481297	4
0	5646	1060.9612936443	3
0	5651	1061.270869227193	2
0	5657	1061.4324173343	3
0	5659	1062.108590052903	2
0	5667	1063.443488685028	3
0	5668	1064.264501500656	2
0	5672	1064.480018873565	3
0	5676	1065.016225433437	4
0	5677	1065.110991445509	3
0	5684	1066.561111821095	2
0	5691	1069.234919932383	1
0	5695	1070.102610274151	2
0	5701	1070.994268412205	3
0	5703	1071.118383053705	4
0	5704	1071.217562801558	3
0	5709	1071.79381529716	2
0	5714	1073.079090754183	1
0	5720	1074.191908660074	2
0	5724	1075.059746322907	3
0	5726	1075.067815497059	4
0	5729	1075.470355249072	3
0	5734	1076.716708387146	2
0	5741	1079.609763039682	1
0	5745	1080.078978826799	2
0	5749	1081.989216243155	3
0	5750	1081.997239312701	2
0	5755	1082.869613263281	1
0	5761	1083.940530669951	2
0	5765	1085.237246226096	1
0	5771	1085.441185841436	2
0	5772	1085.918685254259	1
0	5777	1086.982962650681	0
0	5798	1090.481398356657	1
0	5799	1091.169200697097	0
0	5810	1092.930213902547	1
0	5816	1094.739930598586	0
0	5831	1096.732736778099	1
0	5833	1098.787444369194	0
0	5851	1100.062653167714	1
0	5852	1100.3178361459	0
0	5868	1101.257658855278	1
0	5869	1101.282287245171	0
0	5875	1101.94175093906	1
0	5879	1102.791540986479	0
0	5885	1103.10155853415	1
0	5886	1103.136235232386	0
0	5897	1103.275946026967	1
0	5899	1103.990203553719	2
0	5900	1104.896951669826	1
0	5906	1106.239165966681	0
0	5948	1114.042465690814	1
0	5949	1114.29548213018	0
0	5991	1119.999290527281	1
0	5992	1120.56990907425	0
0	5999	1120.803119584916	1
0	6000	1121.442262861426	0
0	6011	1122.126762797634	1
0	6012	1122.73559527789	0
0	6021	1123.83503122581	1
0	6026	1125.004455211232	2
0	6030	1125.934172412846	1
0	6035	1126.037430050569	0
0	6041	1126.354534671063	1
0	6042	1126.868912046501	0
0	6046	1127.869979961741	1
0	6048	1128.02311340093	2
0	6050	1128.4734093289	3
0	6054	1129.858329482981	2
0	6061	1131.270889925483	1
0	6072	1132.367223448724	2
0	6076	1133.058638650651	1
0	6082	1133.40510200707	2
0	6084	1133.750408313238	3
0	6085	1134.195129851249	2
0	6092	1134.722121170072	1
0	6098	1135.411123386313	0
0	6144	1144.088828368119	1
0	6145	1144.197675222798	0
0	6156	1145.833191948069	1
0	6157	1146.34672587108	0
0	6178	1149.760788340513	1
0	6180	1151.2458262117	2
0	6186	1153.085511745209	3
0	6187	1153.375879272395	2
0	6193	1153.433261879594	3
0	6198	1154.147494086258	2
0	6205	1154.402779527206	1
0	6210	1154.564723537094	0
0	6222	1156.561735681549	1
0	6223	1156.692415870702	0
0	6232	1158.462957824049	1
0	6236	1158.98976164092	2
0	6238	1160.251236006914	3
0	6239	1160.29737677671	2
0	6243	1160.944921538383	3
0	6249	1162.10793066299	4
0	6252	1163.369417693417	5
0	6253	1163.847249891271	4
0	6258	1163.974923039443	3
0	6263	1164.960242844534	2
0	6269	1165.615861839624	3
0	6270	1166.534348769526	2
0	6275	1167.502432906398	1
0	6280	1167.968950960095	0
0	6298	1172.306262086453	1
0	6300	1172.624193224818	2
0	6303	1172.960573262516	1
0	6308	1172.965755938783	0
0	6316	1173.260412061377	1
0	6318	1173.553943397043	2
0	6319	1174.431302088385	1
0	6326	1176.81803989458	0
0	6351	1178.949574843629	1
0	6353	1178.968714913931	0
0	6359	1179.213430790173	1
0	6365	1182.177727325035	2
0	6367	1183.32609439989	1
0	6372	1183.797695566855	0
0	6428	1191.663955062817	1
0	6429	1192.146219707711	0
0	6435	1192.225561931214	1
0	6437	1193.148675036235	0
0	6449	1194.937393289268	1
0	6453	1196.061554172859	0
0	6459	1196.36781173305	1
0	6460	1196.974695182373	0
0	6488	1200.870650291878	1
0	6492	1201.273431280534	2
0	6495	1202.109427976578	1
0	6501	1202.430264050905	0
0	6525	1205.565274633292	1
0	6527	1206.023220297511	0
0	6540	1208.072241009035	1
0	6545	1209.918268462167	0
0	6557	1210.87040304772	1
0	6559	1212.284983927377	0
0	6594	1217.984556440035	1
0	6596	1218.224777751987	2
0	6598	1219.215228150915	3
0	6600	1219.417492375009	4
0	6603	1219.920449419084	3
0	6610	1221.553934263103	4
0	6612	1221.90349895532	3
0	6620	1222.953914548188	2
0	6625	1223.045215110378	1
0	6634	1224.148043999422	2
0	6637	1226.192681610143	1
0	6642	1226.293029746869	0
0	6675	1228.893401550426	1
0	6677	1229.329566587094	0
0	6697	1233.503731700279	1
0	6699	1233.520129395573	2
0	6702	1234.035697458299	1
0	6708	1235.29630689263	2
0	6709	1235.583060460786	1
0	6714	1236.071537279135	0
0	6734	1238.829038652978	1
0	6735	1239.014014985338	0
0	6767	1244.247892596374	1
0	6769	1246.940543301135	2
0	6771	1247.553971918544	3
0	6773	1247.605403215426	4
0	6776	1248.95944641998	3
0	6783	1249.368952421465	4
0	6785	1250.549882981539	5
0	6787	1251.713890630302	4
0	6795	1252.377339159255	3
0	6802	1252.648548027072	4
0	6803	1253.111964344264	3
0	6808	1253.412809086223	2
0	6814	1253.585035336201	1
0	6820	1253.870445539894	0
0	6826	1254.425369518054	1
0	6827	1254.688046460993	0
0	6857	1259.424585626974	1
0	6858	1259.4359532048	0
0	6865	1260.227468921914	1
0	6866	1260.412565106099	0
0	6873	1260.735850134919	1
0	6875	1261.208015115059	2
0	6876	1263.353108782199	1
0	6884	1264.385434943397	2
0	6885	1264.564691771644	1
0	6891	1265.022560604588	2
0	6892	1265.062067714664	1
0	6897	1265.063261332358	0
0	6901	1265.271824993747	1
0	6903	1265.763301780781	2
0	6907	1266.475757077711	1
0	6914	1267.64783212691	0
0	6921	1269.811002014776	1
0	6925	1271.557906464381	0
0	6947	1274.36448451757	1
0	6949	1275.561592984653	2
0	6953	1275.875865984149	1
0	6960	1276.040140192362	0
0	6976	1277.989198164517	1
0	6979	1278.470546015077	0
0	6985	1278.471361124521	1
0	6989	1279.509060420053	0
0	7030	1292.27033166119	1
0	7035	1293.263978885202	2
0	7036	1294.409971522625	1
0	7043	1295.46181397113	0
0	7056	1297.969946552163	1
0	7057	1298.783998092647	0
0	7077	1301.144401805653	1
0	7081	1304.837364650576	2
0	7085	1309.240640423197	3
0	7086	1309.960731784316	2
0	7091	1309.96339754361	1
0	7096	1310.077254386326	0
0	7108	1310.896775749551	1
0	7111	1311.680768966968	0
0	7117	1311.73587352191	1
0	7120	1312.673031792611	0
0	7144	1317.68483963705	1
0	7149	1318.94638313779	2
0	7151	1319.135496529609	3
0	7152	1319.840433082466	2
0	7157	1323.762795036413	1
0	7164	1325.296929678773	0
0	7168	1326.014742933936	1
0	7170	1326.687972514559	2
0	7174	1327.815020623592	3
0	7175	1327.822089658389	2
0	7180	1329.707184940061	1
0	7188	1331.055606338347	0
0	7201	1333.145558956296	1
0	7203	1333.652155641047	2
0	7204	1333.899103205099	1
0	7209	1334.067202426056	0
0	7230	1336.899718493046	1
0	7231	1337.052307857466	0
0	7259	1341.48880455981	1
0	7261	1341.666918927619	2
0	7265	1342.822246236242	1
0	7272	1343.246829197185	0
0	7298	1345.326002133846	1
0	7299	1345.687049813283	0
0	7315	1348.39312211963	1
0	7319	1349.183848196179	2
0	7321	1349.475651310074	3
0	7323	1349.732369925385	4
0	7325	1350.47277954169	5
0	7330	1352.279186740651	4
0	7336	1353.068511130476	3
0	7342	1353.695871108705	2
0	7347	1353.853288088386	1
0	7354	1354.53407757051	0
0	7358	1355.174130445791	1
0	7360	1355.420396869147	2
0	7364	1356.755658916001	3
0	7366	1359.489196056148	2
0	7373	1360.07350525664	1
0	7379	1360.421965101948	2
0	7382	1361.243060086006	1
0	7387	1361.576593818065	0
0	7391	1361.869739056106	1
0	7393	1362.128115165181	2
0	7396	1362.344749201631	1
0	7401	1362.57678797331	0
0	7417	1364.213930921155	1
0	7419	1364.349693752401	2
0	7421	1364.653284127951	3
0	7422	1364.927384212204	2
0	7428	1365.572423743786	3
0	7429	1366.079140973369	2
0	7435	1367.396248312654	1
0	7443	1368.939320765986	2
0	7444	1368.998384528878	1
0	7450	1369.684475916188	2
0	7454	1370.095047334202	3
0	7455	1372.101391011087	2
0	7459	1372.931059744634	3
0	7463	1373.111389371282	2
0	7468	1373.383570469614	1
0	7473	1373.787920097932	0
0	7477	1374.495725761723	1
0	7479	1375.782398131142	2
0	7481	1375.863008494682	3
0	7484	1377.389363428872	2
0	7488	1378.189902105823	3
0	7490	1378.795342087948	4
0	7493	1379.182219757537	3
0	7498	1380.032400801885	2
0	7503	1380.937895010505	1
0	7511	1381.632523715226	2
0	7516	1382.831157363096	1
0	7520	1383.670382721367	2
0	7522	1383.801351364418	3
0	7524	1383.89995950163	4
0	7533	1386.10669431748	3
0	7537	1386.20264655385	4
0	7539	1386.37696194588	5
0	7542	1387.147531402853	4
0	7550	1387.816953415848	5
0	7555	1388.212256648062	6
0	7556	1388.722620876864	5
0	7562	1389.85944105739	6
0	7563	1392.391006735929	5
0	7567	1393.166967714741	6
0	7569	1395.018463495162	7
0	7571	1396.498802720251	8
0	7574	1396.958346255388	7
0	7584	1399.584468150439	8
0	7588	1399.776239452287	9
0	7589	1400.421410957881	8
0	7595	1401.36283063522	9
0	7599	1401.799824545507	10
0	7600	1401.86973644055	9
0	7605	1403.677834946082	8
0	7610	1405.177946902746	7
0	7617	1405.8832357854	6
0	7625	1408.408745342939	5
0	7631	1410.886150217213	4
0	7637	1411.2553243689	5
0	7638	1411.761578702178	4
0	7642	1411.894613057932	5
0	7644	1411.951746204221	6
0	7646	1412.587154550078	7
0	7649	1414.337668280803	6
0	7653	1415.200640965394	7
0	7655	1415.618276877403	8
0	7661	1416.800855601334	7
0	7666	1418.409358498837	6
0	7671	1419.393875238578	5
0	7675	1419.963222871497	6
0	7679	1421.449159807743	7
0	7681	1422.2503318934	8
0	7686	1424.131864812718	7
0	7690	1424.968903684687	8
0	7695	1426.198815152543	7
0	7703	1427.306036503419	8
0	7704	1427.700555749828	7
0	7709	1428.460695874179	6
0	7714	1428.659193288758	5
0	7719	1429.251989454465	4
0	7725	1430.439536298285	5
0	7726	1430.646278613995	4
0	7730	1430.771324244023	5
0	7734	1431.254849097833	6
0	7735	1431.717515402404	5
0	7739	1431.98619797622	6
0	7742	1432.634213139671	5
0	7748	1434.053971327081	6
0	7749	1434.251167039136	5
0	7753	1434.553223449545	6
0	7755	1434.933055249093	7
0	7759	1436.027877743965	8
0	7763	1436.477045117756	9
0	7764	1436.636338975505	8
0	7770	1437.206199773347	9
0	7772	1438.907900465028	10
0	7776	1439.567877512818	11
0	7779	1440.09744816898	10
0	7787	1441.315590665534	11
0	7791	1441.985488851376	12
0	7792	1442.312100036521	11
0	7797	1444.076166770029	10
0	7801	1444.276493688399	11
0	7808	1446.418335000524	10
0	7814	1448.260601518163	11
0	7817	1449.162859988313	10
0	7823	1449.950778067989	11
0	7824	1449.981413201536	10
0	7828	1450.338566136209	11
0	7830	1451.974673559906	12
0	7833	1453.161668730083	11
0	7843	1454.372662055268	12
0	7844	1455.160531155624	11
0	7849	1455.244066214095	10
0	7854	1455.875550381643	9
0	7859	1457.032065922269	8
0	7865	1457.410231543263	9
0	7866	1457.595903826025	8
0	7870	1458.039433593539	9
0	7872	1460.080826309093	10
0	7875	1462.28150548446	9
0	7879	1462.44102282087	10
0	7882	1464.230127638029	9
0	7886	1465.020456398455	10
0	7890	1466.038021574839	11
0	7892	1466.357374081843	10
0	7897	1466.786680243127	9
0	7901	1467.376060434406	10
0	7904	1467.547695206592	9
0	7908	1467.553382284697	10
0	7914	1468.143976570356	11
0	7917	1470.01506212179	10
0	7921	1470.235903329098	11
0	7926	1471.862417619546	10
0	7934	1476.464869147788	11
0	7935	1477.369600578323	10
0	7942	1478.979929086074	9
0	7948	1479.523420501378	10
0	7951	1479.876956798666	9
0	7955	1480.688887897115	10
0	7958	1484.653777840548	9
0	7962	1486.900596162358	10
0	7965	1489.706661337667	9
0	7969	1489.830408754787	10
0	7972	1491.493297910206	9
0	7976	1491.508757025285	10
0	7979	1492.755316271625	9
0	7986	1494.345783065772	8
0	7992	1495.625397558703	9
0	7993	1495.768035003645	8
0	7998	1496.362236926746	7
0	8003	1497.333153813136	6
0	8007	1498.863115746648	7
0	8011	1501.087348920752	6
0	8016	1501.327851697446	5
0	8024	1502.477658179958	6
0	8025	1502.539047361154	5
0	8033	1503.620532042683	6
0	8035	1503.795435201835	7
0	8036	1504.347600388722	6
0	8041	1507.698076371231	5
0	8046	1507.743014884883	4
0	8052	1509.203721621387	3
0	8058	1509.636656598869	4
0	8059	1510.014082463326	3
0	8066	1514.064903825142	2
0	8070	1514.306623931152	3
0	8074	1515.614838964649	4
0	8075	1515.846354510927	3
0	8083	1517.477771675223	2
0	8088	1517.659986105068	1
0	8093	1519.183699622959	0
0	8104	1519.488630429982	1
0	8107	1519.889416507049	2
0	8108	1520.354495348667	1
0	8113	1521.10375274486	0
0	8126	1521.716365017315	1
0	8129	1522.267685707388	2
0	8130	1522.648814691109	1
0	8136	1523.103771348005	2
0	8137	1523.191801460381	1
0	8144	1524.431219342649	2
0	8146	1525.400897091523	3
0	8148	1525.42518102231	4
0	8149	1525.990476492654	3
0	8155	1525.993313758764	4
0	8156	1526.733344062796	3
0	8160	1528.066310342399	4
0	8162	1528.213567197214	5
0	8165	1529.323703820306	4
0	8170	1531.129302934473	3
0	8175	1531.506978225398	2
0	8180	1531.66119642078	1
0	8184	1531.668886825423	2
0	8187	1532.385757887704	1
0	8191	1532.637541814837	2
0	8194	1533.3640569234	1
0	8202	1534.723057293981	0
0	8237	1538.159347306942	1
0	8238	1538.299149051562	0
0	8254	1542.379303397889	1
0	8257	1542.83252274011	0
0	8263	1542.841101225511	1
0	8264	1543.10380249963	0
0	8277	1545.599839728818	1
0	8281	1546.263299693863	2
0	8282	1546.31337267821	1
0	8292	1549.109643960124	0
0	8296	1549.745661776002	1
0	8301	1550.506535753968	0
0	8331	1554.178939064214	1
0	8334	1555.030336637696	0
0	8340	1555.290632080323	1
0	8343	1555.554822089147	0
0	8373	1561.561976513978	1
0	8376	1561.928508116399	2
0	8377	1562.327248390135	1
0	8383	1562.581097095321	2
0	8385	1563.936222722126	3
0	8386	1565.053714779459	2
0	8391	1565.282449875905	1
0	8396	1566.657193869834	0
0	8400	1567.213794159538	1
0	8403	1568.273101704658	0
0	8407	1569.073261721631	1
0	8413	1571.246218917463	2
0	8414	1571.578440033273	1
0	8419	1571.898524001248	0
0	8423	1572.879260534148	1
0	8428	1574.532242167412	0
0	8459	1578.113081935012	1
0	8462	1579.323931391797	0
0	8496	1584.849569447392	1
0	8502	1585.947555416968	2
0	8505	1587.788268151055	1
0	8511	1588.189141946914	0
0	8530	1590.671353790661	1
0	8532	1591.063698318936	2
0	8533	1591.214961771223	1
0	8538	1591.400362655395	0
0	8553	1592.888569054309	1
0	8555	1593.792286945387	0
0	8584	1596.447151553341	1
0	8585	1596.635506542309	0
0	8594	1597.584019274869	1
0	8598	1598.790678294009	2
0	8599	1600.218471456215	1
0	8605	1601.006363818653	2
0	8608	1601.160786614861	3
0	8610	1601.762132041099	4
0	8618	1604.886997101305	3
0	8625	1607.051078510456	2
0	8630	1609.186608277184	1
0	8636	1610.549705464155	0
0	8642	1611.08820001895	1
0	8643	1611.118121735944	0
0	8658	1614.128734451187	1
0	8662	1614.547745462875	2
0	8663	1614.676492847844	1
0	8669	1615.511822801249	2
0	8670	1615.986806349995	1
0	8678	1618.222951919922	2
0	8679	1618.28607693834	1
0	8685	1618.583781946161	2
0	8687	1620.030802239196	3
0	8690	1621.401533946386	2
0	8694	1621.735003317734	3
0	8698	1622.583723708828	2
0	8703	1624.092555344686	1
0	8707	1624.600091400882	2
0	8710	1624.912273389606	1
0	8714	1625.296845691419	2
0	8716	1626.838410297722	3
0	8718	1627.374261595288	4
0	8724	1630.334450380474	5
0	8727	1630.99152220454	4
0	8731	1631.225610168671	5
0	8739	1634.469912409852	6
0	8742	1636.424936489756	5
0	8748	1637.510026952144	6
0	8752	1637.786478463036	7
0	8754	1638.857420623459	8
0	8759	1640.36375513496	9
0	8761	1640.590162041232	10
0	8763	1640.934722862735	11
0	8764	1641.964735803832	10
0	8770	1642.580494916425	11
0	8771	1643.023337184623	10
0	8776	1643.205556708276	9
0	8783	1647.151951326405	8
0	8792	1649.908222008567	7
0	8797	1650.334992794148	6
0	8802	1651.755605884377	5
0	8808	1652.843442512688	6
0	8810	1653.050785280349	5
0	8816	1653.433706195759	6
0	8819	1654.530536438729	5
0	8824	1654.964665247445	4
0	8828	1656.269155809476	5
0	8831	1656.839635831291	4
0	8836	1657.195494465684	3
0	8840	1657.680917036676	4
0	8844	1658.073655633922	5
0	8845	1658.928438790015	4
0	8851	1659.764272342947	5
0	8852	1660.043052490178	4
0	8858	1662.880980565889	3
0	8864	1663.284396043865	4
0	8865	1664.779177758896	3
0	8873	1667.91735748045	4
0	8874	1668.157980701714	3
0	8879	1668.923268945889	2
0	8885	1671.691375121871	3
0	8886	1673.104438020768	2
0	8890	1673.251749138541	3
0	8892	1673.262680885576	4
0	8897	1674.514347318062	5
0	8898	1675.092136557979	4
0	8904	1675.161061506121	5
0	8905	1675.185476004072	4
0	8909	1676.032055696068	5
0	8912	1677.245886064641	4
0	8916	1677.938797472435	5
0	8918	1678.008754014485	6
0	8925	1678.733562447137	5
0	8930	1678.798285785624	4
0	8934	1679.652743620606	5
0	8940	1680.906093218149	6
0	8942	1681.236485273104	7
0	8943	1681.529181731123	6
0	8948	1682.642377767384	5
0	8955	1684.017816473717	4
0	8961	1685.380889871148	3
0	8966	1685.503915079653	2
0	8971	1685.793132486335	1
0	8975	1686.906502126269	2
0	8977	1686.917536090669	3
0	8981	1688.604718400952	4
0	8983	1688.75052296132	5
0	8987	1689.591868058304	4
0	8993	1690.860671046828	5
0	8994	1691.486008885123	4
0	9003	1693.879518892265	3
0	9007	1693.963831718091	4
0	9010	1694.521558917167	3
0	9016	1695.343405843118	2
0	9021	1695.942290946536	1
0	9026	1699.116306755168	0
0	9037	1699.451499306515	1
0	9039	1699.800819744482	0
0	9056	1701.64406250607	1
0	9059	1701.995109212182	2
0	9060	1702.652819835295	1
0	9065	1703.120975691114	0
0	9093	1709.213949805303	1
0	9095	1711.289900618858	2
0	9096	1711.599817479235	1
0	9101	1711.790208680281	0
0	9146	1718.920263813538	1
0	9147	1719.709350268725	0
0	9157	1720.208573797269	1
0	9160	1721.849119759542	0
0	9171	1723.416329531292	1
0	9173	1724.630711026957	0
0	9182	1725.369742520415	1
0	9186	1726.090646919778	2
0	9188	1727.248466810143	1
0	9194	1727.315727085624	2
0	9195	1727.457912292056	1
0	9201	1727.475652714752	2
0	9202	1727.605062592245	1
0	9206	1729.265395335795	2
0	9208	1729.515881610011	3
0	9213	1732.401168150571	2
0	9217	1732.784976689646	3
0	9219	1733.196129859338	4
0	9223	1734.005702642364	3
0	9228	1734.043295317675	2
0	9237	1736.342309568474	1
0	9243	1736.601716743337	2
0	9245	1736.836330605678	1
0	9250	1736.871900682187	0
0	9260	1737.765509935919	1
0	9263	1738.592066065576	2
0	9267	1739.162486568657	1
0	9275	1739.849757023733	2
0	9277	1740.988791939538	3
0	9278	1741.116504106037	2
0	9283	1742.254170234106	1
0	9289	1742.900759658948	2
0	9290	1744.211977486051	1
0	9296	1745.049024589203	2
0	9298	1745.114550213545	3
0	9300	1745.547377048008	4
0	9306	1747.046297385959	5
0	9308	1747.106594569943	6
0	9313	1748.871947893651	5
0	9320	1752.318287091135	4
0	9326	1753.089571196555	5
0	9328	1753.606338258599	6
0	9329	1753.9546850736	5
0	9335	1756.179116270006	6
0	9338	1756.692155067164	7
0	9340	1756.87288948516	8
0	9341	1756.904935831739	7
0	9346	1757.101314072367	6
0	9350	1757.491089330475	7
0	9353	1757.710451981186	6
0	9359	1759.280847659351	7
0	9360	1759.363148501416	6
0	9366	1760.566746540978	7
0	9369	1761.13586716216	6
0	9375	1761.471365685022	7
0	9376	1761.93587639319	6
0	9381	1763.593999369379	5
0	9387	1765.08224318945	6
0	9388	1765.939727095483	5
0	9393	1766.000857863372	4
0	9399	1767.442933894515	5
0	9401	1767.485309813963	6
0	9402	1767.51002560168	5
0	9407	1768.55997667224	4
0	9411	1768.947466501569	5
0	9415	1769.002973233009	6
0	9416	1769.891398976852	5
0	9422	1770.491213782165	6
0	9426	1772.069118178302	7
0	9429	1772.933070483081	6
0	9434	1773.157879118925	5
0	9441	1774.914877217369	4
0	9447	1775.28647374113	5
0	9448	1775.308370487194	4
0	9452	1775.513895671414	5
0	9455	1775.930549217609	4
0	9462	1777.039183252916	3
0	9468	1780.342290052052	4
0	9473	1781.214171934932	3
0	9479	1781.495908694972	4
0	9480	1781.538520703921	3
0	9488	1783.379732411969	2
0	9495	1783.806764646209	3
0	9500	1784.936076349164	2
0	9505	1786.312398690885	1
0	9511	1786.985880479004	0
0	9524	1787.591727559387	1
0	9526	1788.821209104885	2
0	9529	1789.126173399208	1
0	9538	1792.470248045757	0
0	9550	1793.185264961606	1
0	9551	1793.441995022765	0
0	9559	1794.375694835839	1
0	9560	1794.699714875124	0
0	9577	1796.302557605088	1
0	9578	1796.642388774821	0
0	9587	1798.565014948969	1
0	9590	1798.790154788993	2
0	9591	1799.331111106711	1
0	9596	1799.506037825117	0
0	9629	1805.499515907645	1
0	9633	1806.62365192008	2
0	9635	1806.875494670299	3
0	9639	1808.955666252212	4
0	9640	1809.293992935607	3
0	9650	1810.794959846285	2
0	9656	1811.767093379398	1
0	9662	1812.790608042526	2
0	9663	1814.161902045014	1
0	9668	1814.238639775136	0
0	9672	1814.244815557413	1
0	9679	1815.41921156357	0
0	9707	1816.795339983653	1
0	9709	1816.893992632787	2
0	9710	1817.032510137827	1
0	9716	1817.120003436942	2
0	9719	1818.253020967331	1
0	9725	1818.457528331806	0
0	9753	1822.827071476658	1
0	9755	1823.143715585019	2
0	9756	1824.0869124569	1
0	9762	1825.086264795809	0
0	9783	1827.715901599912	1
0	9787	1828.610204127776	2
0	9790	1830.621548250794	3
0	9795	1832.188578098197	2
0	9799	1832.24701643941	3
0	9803	1832.80310824953	4
0	9805	1832.805566616229	5
0	9808	1833.277864589281	4
0	9815	1835.212122685111	3
0	9820	1835.728741162604	2
0	9827	1837.45476273805	1
0	9834	1838.933515774907	0
0	9868	1845.159001448619	1
0	9870	1845.437764803256	2
0	9871	1846.787766843603	1
0	9877	1847.335199067119	0
0	9920	1851.940214903932	1
0	9921	1851.943329377727	0
0	9934	1852.365744466259	1
0	9936	1853.555221385017	2
0	9938	1853.557668336008	3
0	9939	1854.065101835019	2
0	9944	1854.272477402572	1
0	9950	1854.325735031434	2
0	9952	1855.310094275344	1
0	9957	1855.327965522341	0
0	9983	1860.362176169373	1
0	9984	1860.577715661128	0
0	9990	1860.868265142321	1
0	9991	1860.889262972428	0
0	9997	1861.317872894867	1
0	10000	1861.879745071144	0
0	10006	1862.213586973514	1
0	10010	1862.862134942819	2
0	10016	1863.655483076693	1
0	10021	1864.285701442702	0
0	10045	1865.715698550696	1
0	10046	1865.767794320719	0
0	10068	1868.835341830005	1
0	10069	1869.187795238548	0
0	10080	1870.628027499912	1
0	10081	1870.773157128384	0
0	10087	1870.989349036873	1
0	10089	1871.059765319861	2
0	10090	1871.138171056183	1
0	10095	1871.959265165601	0
0	10099	1872.336892897778	1
0	10103	1872.773496643012	2
0	10104	1872.877070168918	1
0	10112	1875.636617986294	2
0	10117	1876.385401047179	3
0	10124	1879.049810129493	2
0	10132	1880.474985137752	1
0	10139	1880.823891356424	0
0	10146	1881.097440650836	1
0	10148	1882.393266628696	0
0	10154	1883.382736256233	1
0	10155	1884.003014078766	0
0	10159	1884.910701858637	1
0	10161	1884.95770762321	2
0	10164	1886.114775021926	1
0	10168	1886.582138826247	2
0	10173	1887.978259560876	1
0	10178	1888.641523728003	0
0	10206	1893.419721808052	1
0	10208	1894.228682057071	2
0	10210	1894.542296255058	3
0	10212	1894.90746545944	4
0	10213	1894.932907559517	3
0	10218	1895.615038722219	2
0	10225	1896.910220671773	3
0	10226	1896.933367300966	2
0	10233	1897.121931694785	3
0	10236	1899.078517556527	2
0	10244	1900.806188313599	1
0	10253	1900.947092232723	0
0	10264	1901.816742378532	1
0	10269	1904.14902021665	0
0	10275	1904.932341332346	1
0	10278	1906.055150341809	0
0	10294	1907.285322244907	1
0	10299	1908.873867358785	0
0	10309	1913.350541114927	1
0	10311	1914.265932219259	0
0	10338	1916.929331739968	1
0	10342	1916.991934951519	2
0	10344	1917.688979981263	3
0	10345	1917.965119821571	2
0	10354	1919.210459635312	1
0	10360	1919.72748718229	2
0	10361	1920.119681796149	1
0	10367	1920.131558687747	2
0	10369	1920.5383695479	1
0	10373	1924.820075037671	2
0	10376	1925.048807382205	1
0	10380	1925.287255595432	2
0	10382	1925.984712479528	3
0	10386	1928.336826923986	2
0	10390	1929.552028867668	3
0	10392	1930.684240922245	4
0	10396	1932.096485194201	5
0	10398	1933.563606564048	6
0	10401	1934.092204516851	5
0	10405	1935.671526481378	6
0	10409	1937.209631239174	5
0	10414	1937.254851310322	4
0	10419	1937.956047509394	3
0	10423	1938.972267498648	4
0	10425	1939.823792161078	5
0	10429	1940.450759220303	6
0	10430	1940.483294084985	5
0	10434	1940.496973671224	6
0	10436	1941.471863004567	7
0	10439	1942.223742123668	6
0	10445	1944.092106235907	7
0	10446	1944.10269929954	6
0	10454	1946.112153625893	7
0	10455	1946.479614206289	6
0	10463	1948.439142469514	7
0	10465	1948.484673766358	8
0	10469	1949.160596053229	9
0	10470	1949.627265070853	8
0	10477	1951.548128885492	9
0	10480	1952.108935524538	8
0	10485	1952.273184979615	7
0	10492	1956.219339549678	6
0	10497	1957.314634810733	5
0	10503	1957.889012779257	4
0	10508	1958.290043827319	3
0	10514	1959.82724829698	4
0	10515	1959.86434517001	3
0	10519	1961.07409493416	4
0	10523	1962.749897092067	3
0	10528	1963.021063524546	2
0	10532	1964.248688056473	3
0	10535	1964.663003860584	2
0	10539	1965.273504312731	3
0	10544	1967.442897873489	2
0	10552	1968.038113379319	1
0	10558	1969.068534333076	0
0	10576	1970.414338336392	1
0	10578	1970.623917143978	0
0	10584	1970.920252005236	1
0	10585	1972.182763052759	0
0	10601	1973.110231163812	1
0	10606	1975.512340065297	2
0	10607	1975.705817883914	1
0	10613	1976.694918445001	2
0	10617	1977.129741023244	1
0	10623	1977.426031285239	0
0	10643	1980.301546495707	1
0	10646	1980.636581683351	0
0	10653	1981.089618831678	1
0	10654	1981.158024824959	0
0	10666	1982.451723185959	1
0	10668	1983.352600172705	2
0	10673	1984.878977069338	3
0	10677	1986.068769561492	4
0	10678	1986.161475031805	3
0	10684	1986.252753736415	4
0	10685	1986.393282619507	3
0	10692	1987.13340485038	2
0	10697	1987.849665670243	1
0	10702	1987.954748714643	0
0	10709	1988.459802200434	1
0	10712	1990.971763054127	0
0	10742	1995.080362343025	1
0	10747	1996.196237299392	2
0	10748	1996.754127653043	1
0	10755	1998.462735854046	0
0	10792	2002.545174890818	1
0	10799	2004.74205570495	0
0	10825	2008.611793967663	1
0	10826	2009.694662685541	0
0	10848	2012.238238615831	1
0	10852	2012.426185295927	2
0	10853	2012.550464950713	1
0	10859	2013.425446683533	0
0	10866	2014.61115723734	1
0	10868	2015.408169671698	2
0	10869	2015.408572672874	1
0	10874	2015.741530400072	0
0	10912	2020.422368750372	1
0	10913	2020.552330651762	0
0	10919	2020.776072330356	1
0	10922	2021.997239459885	0
0	10934	2023.376428631215	1
0	10935	2023.954558752796	0
0	10941	2024.21550502775	1
0	10944	2025.738446123567	0
0	10957	2027.20681530011	1
0	10961	2028.766911812975	2
0	10962	2029.067925994394	1
0	10967	2030.23577387562	0
0	10992	2033.136156886599	1
0	10995	2034.108171377589	0
0	11029	2037.653769315174	1
0	11030	2037.99628232444	0
0	11040	2039.049588790911	1
0	11043	2039.1787110307	0
0	11049	2040.45497651297	1
0	11051	2040.490621526186	2
0	11053	2040.596399368527	3
0	11055	2041.05297693493	2
0	11061	2043.879036556386	1
0	11066	2044.111968361346	0
0	11070	2044.130095789799	1
0	11077	2046.339468082092	0
0	11081	2047.783467482944	1
0	11085	2048.014326307897	2
0	11088	2048.749904245668	3
0	11089	2048.764524640837	2
0	11094	2050.160089977515	1
0	11098	2050.542243187917	2
0	11102	2051.255945502808	3
0	11111	2052.750607473143	2
0	11117	2053.365463641899	1
0	11122	2053.473089988927	0
0	11126	2054.214839007205	1
0	11128	2054.311485745457	2
0	11134	2057.195541217057	1
0	11139	2057.773395278635	0
0	11161	2062.74249736691	1
0	11165	2063.48031463013	2
0	11167	2064.028958673611	3
0	11169	2064.527739383215	2
0	11174	2064.583806778434	1
0	11179	2064.970956039723	0
0	11203	2066.962366100901	1
0	11205	2068.047019933379	0
0	11211	2068.507791339131	1
0	11212	2068.641077483068	0
0	11224	2068.837849555234	1
0	11227	2069.353126123147	2
0	11229	2069.543037276193	1
0	11234	2069.776375111542	0
0	11272	2080.332765021269	1
0	11275	2080.887966315755	2
0	11277	2081.849497157697	3
0	11281	2081.961292210233	4
0	11283	2082.134916970939	5
0	11285	2082.353885485521	6
0	11286	2083.022598011319	5
0	11291	2084.3677316053	4
0	11296	2084.569225373878	3
0	11302	2084.873936070714	4
0	11304	2085.349618444105	3
0	11312	2086.978774734487	2
0	11318	2087.848586021563	3
0	11320	2088.661752219564	2
0	11325	2089.633734760816	1
0	11330	2089.665808165093	0
0	11347	2091.111379838154	1
0	11350	2091.843011306073	0
0	11356	2092.06618885973	1
0	11360	2092.495446283824	0
0	11379	2094.799586880979	1
0	11382	2095.806548703304	0
0	11406	2100.271921387107	1
0	11407	2100.994485474907	0
0	11416	2102.479415041651	1
0	11418	2103.92428125055	2
0	11421	2104.757968389509	1
0	11429	2106.219004157934	2
0	11430	2106.315293383726	1
0	11434	2107.304674324846	2
0	11436	2108.433470419185	3
0	11438	2109.682869298879	4
0	11440	2110.841815856799	5
0	11443	2111.286368293182	4
0	11449	2111.789543277292	5
0	11450	2112.225587862812	4
0	11454	2112.775400661521	5
0	11456	2113.588984379188	6
0	11460	2119.214206686487	7
0	11462	2119.994839160265	6
0	11469	2121.236304318631	5
0	11476	2122.128473973038	4
0	11480	2123.163726210979	5
0	11482	2124.423021971173	6
0	11484	2124.67979202002	7
0	11488	2125.846354606135	6
0	11493	2126.135743120914	5
0	11497	2126.15204039108	6
0	11499	2126.208427093541	7
0	11502	2127.337433279546	6
0	11506	2128.800828417081	7
0	11508	2129.713801191542	8
0	11510	2130.180323134586	9
0	11512	2132.553291589172	10
0	11514	2132.668901092632	11
0	11518	2134.044237744576	12
0	11521	2134.786927381106	11
0	11526	2135.79587593475	10
0	11532	2138.135995450457	11
0	11534	2138.40998601428	12
0	11536	2139.597603216771	13
0	11542	2142.902117312407	12
0	11547	2143.044895853281	11
0	11553	2146.541179117351	12
0	11557	2147.449211248852	13
0	11558	2147.507424954611	12
0	11564	2149.377279561142	13
0	11566	2149.996156708608	14
0	11568	2150.001201815498	15
0	11569	2150.347676629143	14
0	11576	2151.361024386051	13
0	11582	2151.88934540659	14
0	11584	2152.613347082884	13
0	11592	2154.357769477518	12
0	11597	2155.167065564843	11
0	11603	2155.706552075752	12
0	11604	2156.006244642996	11
0	11609	2156.718783139009	10
0	11616	2156.92305808435	11
0	11618	2157.858478330125	10
0	11624	2157.906349262787	11
0	11626	2158.888308902424	10
0	11631	2159.293938978895	9
0	11641	2160.458543595482	8
0	11646	2160.612254832952	7
0	11651	2161.81744956632	6
0	11656	2162.300628454519	5
0	11663	2163.572285536982	6
0	11665	2163.951527579339	5
0	11673	2164.72028113857	6
0	11674	2165.511184072565	5
0	11681	2166.452821093024	6
0	11684	2167.039323521949	7
0	11686	2167.271694978349	6
0	11692	2167.42995402271	7
0	11693	2167.460740877529	6
0	11699	2168.695021659031	5
0	11705	2168.850796426041	6
0	11707	2169.66666916472	7
0	11708	2171.099978263697	6
0	11713	2171.199996881233	5
0	11719	2171.894941247787	6
0	11720	2171.904725476294	5
0	11726	2172.825936350692	4
0	11731	2172.886989334718	3
0	11735	2173.208037933113	4
0	11745	2176.39827225233	3
0	11750	2176.907762193183	2
0	11755	2177.096366094035	1
0	11760	2177.199441963071	0
0	11819	2187.963122589921	1
0	11821	2188.452080077473	2
0	11823	2189.204828984216	3
0	11827	2190.66371957784	4
0	11828	2190.91334841179	3
0	11833	2190.948104689771	2
0	11843	2191.521364434475	3
0	11845	2192.300929100713	4
0	11846	2193.031256931399	3
0	11851	2193.130228673299	2
0	11857	2193.501251338858	3
0	11858	2193.53385887495	2
0	11863	2193.865182381994	1
0	11867	2194.195493192139	2
0	11871	2195.087059367773	3
0	11875	2196.221493211506	4
0	11879	2198.106739704583	5
0	11880	2198.867075529364	4
0	11884	2199.098687529506	5
0	11889	2199.827940172876	6
0	11895	2201.833148836424	5
0	11900	2201.908973747681	4
0	11907	2202.339070269496	3
0	11913	2202.563052870225	4
0	11914	2202.944334965181	3
0	11919	2203.264942669239	2
0	11929	2205.514056505088	3
0	11931	2206.259091758688	4
0	11932	2206.805433459323	3
0	11936	2206.889728520209	4
0	11939	2206.965404051531	3
0	11945	2208.681935856338	2
0	11957	2209.754022281881	1
0	11964	2209.911592123528	2
0	11966	2210.298134053319	3
0	11967	2210.37608082656	2
0	11972	2210.662350829467	1
0	11976	2214.007029588118	2
0	11979	2214.701240442252	1
0	11985	2216.717467623618	2
0	11986	2216.975869887996	1
0	11994	2217.586576978076	0
0	12023	2221.603349991851	1
0	12029	2223.933577725791	0
0	12038	2225.319255557221	1
0	12040	2225.363575587397	2
0	12042	2225.553532537954	3
0	12044	2226.566848416835	4
0	12049	2227.611003488305	3
0	12055	2228.838739200951	2
0	12061	2229.566353902609	1
0	12068	2231.131216140807	2
0	12071	2232.295718140601	1
0	12079	2232.732281938971	2
0	12080	2233.191242032874	1
0	12085	2233.746993634767	0
0	12091	2235.546734555973	1
0	12093	2235.584718779288	2
0	12094	2236.257651778291	1
0	12100	2236.963607258723	2
0	12103	2238.381585907351	1
0	12108	2239.733910012185	0
0	12112	2239.786189508489	1
0	12115	2240.275488986793	0
0	12131	2244.637137863083	1
0	12132	2245.229195976933	0
0	12136	2246.0870593084	1
0	12139	2247.019525567333	0
0	12145	2247.556925365703	1
0	12147	2247.684447502147	0
0	12160	2248.785106966101	1
0	12162	2249.014737217972	2
0	12164	2249.653401019655	3
0	12165	2250.140425893186	2
0	12171	2250.43783152307	1
0	12176	2250.464701479443	0
0	12182	2252.707903616351	1
0	12183	2252.741991533408	0
0	12187	2253.168967470552	1
0	12191	2254.664491270343	0
0	12211	2258.338326620348	1
0	12212	2258.445046107327	0
0	12223	2258.713427569559	1
0	12227	2259.223959762256	0
0	12244	2261.407861366137	1
0	12245	2262.377841188376	0
0	12257	2263.744755231991	1
0	12259	2264.466675200826	0
0	12265	2264.493184889262	1
0	12268	2265.402804670481	2
0	12272	2266.474941356188	1
0	12277	2266.995986816453	0
0	12300	2268.38092283915	1
0	12301	2268.523040936552	0
0	12310	2270.155499080272	1
0	12312	2270.469771021638	2
0	12314	2273.052408472632	3
0	12317	2274.149707155034	2
0	12328	2275.472645713625	1
0	12334	2275.929938986288	2
0	12335	2275.97753826824	1
0	12340	2276.444957799395	0
0	12356	2278.947588108843	1
0	12357	2279.03493970635	0
0	12365	2280.409633777447	1
0	12366	2280.557088650806	0
0	12394	2286.271883923786	1
0	12395	2286.345832343589	0
0	12405	2287.181760658769	1
0	12409	2288.176143879905	2
0	12410	2288.753352349471	1
0	12416	2290.231381999309	0
0	12420	2290.547541550453	1
0	12424	2291.302979510202	2
0	12428	2291.853588736909	3
0	12429	2291.962963197505	2
0	12438	2293.39747616675	1
0	12443	2293.5572140802	0
0	12454	2297.688342025371	1
0	12455	2298.039624583514	0
0	12461	2298.413516690136	1
0	12468	2299.406590273468	2
0	12469	2299.767635860159	1
0	12476	2301.614329896237	0
0	12504	2306.575400553182	1
0	12505	2306.599871692661	0
0	12526	2308.698892608503	1
0	12529	2309.11248279112	0
0	12536	2309.472547554605	1
0	12538	2309.760678835376	0
0	12545	2309.998764246059	1
0	12547	2310.073294067147	2
0	12549	2310.626811557216	3
0	12552	2311.596158050413	4
0	12553	2311.801535149462	3
0	12558	2312.050838866556	2
0	12565	2312.808450719037	1
0	12572	2312.994806430045	0
0	12600	2315.752283735286	1
0	12604	2316.861178137551	2
0	12606	2319.037084629382	3
0	12608	2319.210764479975	4
0	12609	2319.282448798745	3
0	12615	2319.349663463085	2
0	12620	2319.754774061549	1
0	12626	2320.74210821385	2
0	12627	2321.897016930222	1
0	12632	2322.044821261711	0
0	12645	2324.309184890911	1
0	12649	2325.331063047571	2
0	12651	2325.939949735272	3
0	12652	2326.049710742242	2
0	12656	2326.403015532171	3
0	12660	2326.873665951659	4
0	12664	2328.150897122331	5
0	12666	2329.141812427057	4
0	12673	2331.4281078768	3
0	12678	2332.31004701599	2
0	12683	2332.482179786518	1
0	12688	2332.992644272401	0
0	12699	2335.200391069032	1
0	12701	2335.392023927839	0
0	12705	2335.548304932581	1
0	12707	2335.926462858014	2
0	12710	2336.300215512151	1
0	12715	2337.480394443938	0
0	12729	2339.467364011987	1
0	12731	2339.505001351709	2
0	12732	2339.852952618714	1
0	12738	2339.917610989827	2
0	12740	2341.251049952849	3
0	12741	2341.388238346982	2
0	12746	2341.84633461637	1
0	12754	2342.547731044973	0
0	12782	2348.101708816487	1
0	12784	2348.911990210083	2
0	12786	2348.917931110609	3
0	12788	2349.235667378502	2
0	12795	2350.530254103046	1
0	12800	2351.036398964766	0
0	12813	2351.763960122511	1
0	12818	2353.052883528807	2
0	12821	2353.911264383513	1
0	12830	2354.350557803497	2
0	12831	2354.361680820695	1
0	12837	2355.643979256541	0
0	12853	2357.969055392505	1
0	12854	2358.2137328546	0
0	12863	2360.430060525557	1
0	12864	2360.450917278987	0
0	12877	2360.936920355348	1
0	12878	2361.002463967773	0
0	12884	2361.007479986321	1
0	12888	2361.603422710212	2
0	12890	2361.611103589035	3
0	12892	2361.893972543897	4
0	12894	2362.107439724736	3
0	12899	2362.327377074983	2
0	12906	2365.413840038767	3
0	12907	2366.162901487831	2
0	12914	2367.022381945803	1
0	12921	2367.790385717937	0
0	12931	2368.068883661081	1
0	12932	2368.14206438613	0
0	12946	2370.852469056235	1
0	12951	2371.348444368919	2
0	12952	2371.677973729678	1
0	12957	2371.884470260207	0
0	12974	2372.218487887651	1
0	12976	2372.402684229419	2
0	12980	2374.22222915918	3
0	12981	2376.849992870305	2
0	12986	2376.897330872902	1
0	12991	2376.982994736153	0
0	12995	2377.10603349408	1
0	12998	2377.492436125448	0
0	13021	2381.182699537274	1
0	13026	2381.370706314315	0
0	13040	2383.152881929644	1
0	13050	2387.792987545754	0
0	13056	2387.855551688525	1
0	13057	2387.863255016176	0
0	13064	2389.446523807738	1
0	13066	2390.407554648304	0
0	13110	2398.109136667547	1
0	13112	2398.127425170376	2
0	13113	2398.515012272672	1
0	13119	2399.399190568203	0
0	13136	2400.568087591477	1
0	13138	2401.767078603178	2
0	13139	2402.244009373318	1
0	13144	2403.31760584845	0
0	13151	2403.661687427809	1
0	13153	2403.904099672407	0
0	13165	2404.811600310195	1
0	13166	2404.858305677994	0
0	13172	2405.230644873358	1
0	13173	2405.265831738504	0
0	13189	2406.186491280995	1
0	13190	2406.244540240554	0
0	13218	2408.093541798403	1
0	13219	2408.879439629117	0
0	13233	2409.724117597204	1
0	13237	2410.822226013975	0
0	13257	2414.97194247766	1
0	13263	2415.71868031672	2
0	13266	2416.128925711622	3
0	13269	2416.800370461873	2
0	13275	2418.63917551743	1
0	13281	2419.013196130237	0
0	13294	2419.936433874353	1
0	13296	2420.275072158245	2
0	13297	2420.869904569382	1
0	13302	2420.879282326816	0
0	13315	2421.321769532006	1
0	13316	2422.480731299944	0
0	13337	2425.151722070379	1
0	13339	2425.168660721325	2
0	13343	2426.616067771675	3
0	13344	2426.712666222582	2
0	13350	2427.157227803561	1
0	13355	2427.288444615591	0
0	13359	2428.355145750029	1
0	13363	2429.151414896231	0
0	13379	2432.766948079822	1
0	13380	2432.941639545308	0
0	13386	2433.764899650164	1
0	13387	2434.356036478404	0
0	13417	2436.081819003355	1
0	13421	2437.026860004084	0
0	13434	2437.598103407595	1
0	13435	2437.718590700074	0
0	13467	2441.734854692591	1
0	13468	2441.836421677755	0
0	13486	2445.673423404853	1
0	13488	2446.652196966604	2
0	13493	2449.239426426755	1
0	13499	2449.702893873172	0
0	13517	2452.051135906901	1
0	13519	2452.114872855965	2
0	13521	2452.227225437753	3
0	13522	2452.452103084616	2
0	13528	2452.897066971151	1
0	13532	2454.304354886398	2
0	13534	2454.37153280254	3
0	13536	2455.889482823691	4
0	13539	2456.573389085597	3
0	13544	2457.386393174064	2
0	13550	2458.053137966937	1
0	13555	2458.421099942385	0
0	13561	2459.609023475749	1
0	13564	2459.914230262806	0
0	13568	2460.185249096382	1
0	13572	2460.803483033048	2
0	13575	2460.930126277466	1
0	13579	2462.319103641107	2
0	13582	2463.552428263651	1
0	13586	2465.000336168602	2
0	13590	2465.762953811429	1
0	13595	2465.889160649321	0
0	13599	2466.011721224475	1
0	13603	2466.760212545949	0
0	13643	2471.281380943842	1
0	13644	2471.546895411779	0
0	13663	2472.387822211172	1
0	13666	2473.251956378082	0
0	13670	2473.440918587851	1
0	13672	2473.446850979274	2
0	13676	2474.665950332212	3
0	13677	2474.861556687688	2
0	13684	2476.370780920775	1
0	13690	2476.547088428579	2
0	13692	2479.123679504429	3
0	13698	2480.957485359655	4
0	13699	2481.899293049646	3
0	13703	2483.014899931844	4
0	13705	2483.553037920466	5
0	13709	2484.313702205729	4
0	13714	2485.026692910812	3
0	13719	2485.352721053995	2
0	13723	2485.410770070905	3
0	13728	2487.642134748395	2
0	13734	2488.1386143247	1
0	13739	2488.444015290665	0
0	13753	2490.824888283908	1
0	13754	2491.259989892832	0
0	13792	2501.315673723167	1
0	13794	2501.743847051586	2
0	13801	2505.478768675814	1
0	13806	2505.633973178544	0
0	13812	2506.334999277407	1
0	13816	2507.409295775758	0
0	13827	2508.541353129745	1
0	13828	2508.640274808906	0
0	13834	2508.972707519901	1
0	13835	2510.513982073117	0
0	13868	2516.086481099588	1
0	13871	2516.68250925092	0
0	13886	2517.922825052454	1
0	13890	2518.335060145307	2
0	13892	2518.455557311218	3
0	13895	2520.18970218037	2
0	13900	2520.234894014411	1
0	13905	2520.479726940741	0
0	13914	2522.032111127229	1
0	13916	2522.083150492512	2
0	13924	2523.755002730555	3
0	13928	2524.852093897541	4
0	13930	2525.151751274964	5
0	13935	2527.050207033416	4
0	13944	2529.474171429475	3
0	13950	2531.421083758177	2
0	13956	2531.91465654584	3
0	13957	2531.955685472657	2
0	13963	2532.412996292353	3
0	13964	2533.148191778703	2
0	13968	2533.157380455732	3
0	13970	2533.440705369263	4
0	13974	2534.825567222136	5
0	13976	2535.572853672296	6
0	13977	2535.662752913458	5
0	13981	2535.801063404156	6
0	13983	2535.944760274145	7
0	13989	2537.128141221009	6
0	13998	2539.54724654269	5
0	14003	2540.055972441304	4
0	14009	2540.492931870845	5
0	14010	2541.979497866791	4
0	14016	2543.62268201144	3
0	14021	2543.845000435868	2
0	14028	2544.68433694531	1
0	14032	2544.725054133042	2
0	14036	2546.132098991948	1
0	14041	2546.368340474502	0
0	14060	2547.928083327115	1
0	14061	2548.119680702543	0
0	14068	2548.976662532655	1
0	14071	2549.995240599971	0
0	14082	2550.422313047991	1
0	14083	2551.169393298388	0
0	14094	2552.326411889159	1
0	14099	2553.018211589584	0
0	14109	2557.062175811012	1
0	14110	2557.226220320312	0
0	14122	2559.513787582074	1
0	14123	2559.921411031122	0
0	14130	2560.280708190003	1
0	14132	2560.542463777783	2
0	14133	2560.626355488865	1
0	14139	2560.664212441759	2
0	14141	2560.905468676101	3
0	14143	2561.598846016763	2
0	14149	2562.397242096194	1
0	14154	2563.279414266501	0
0	14167	2566.450654994242	1
0	14169	2566.808760258724	2
0	14171	2567.080870321926	1
0	14176	2567.599135705435	0
0	14182	2568.891085716815	1
0	14183	2569.18732297393	0
0	14190	2572.196989064246	1
0	14191	2572.301010044965	0
0	14195	2572.436215734468	1
0	14200	2577.205290944389	2
0	14201	2577.615659819516	1
0	14206	2577.628839360328	0
0	14214	2580.252784624607	1
0	14219	2582.259450542312	0
0	14225	2584.804882358761	1
0	14227	2585.408772508651	2
0	14228	2586.966366490447	1
0	14234	2587.94614723381	2
0	14235	2588.6453711147	1
0	14239	2588.826580888177	2
0	14243	2589.305794804702	3
0	14245	2589.687132580992	4
0	14247	2591.623471513231	5
0	14250	2592.984839281387	4
0	14255	2593.315475341872	3
0	14263	2594.453200776668	2
0	14272	2596.080146450951	3
0	14276	2596.291722396808	4
0	14277	2596.601167839269	3
0	14283	2596.73128899513	2
0	14289	2597.30764620102	3
0	14291	2597.489314242985	4
0	14292	2597.948478525035	3
0	14296	2599.915520504198	4
0	14298	2600.595360345712	5
0	14300	2601.084769930053	6
0	14302	2601.088396700601	7
0	14306	2601.618946786085	8
0	14307	2601.78876839028	7
0	14313	2604.879461415178	8
0	14315	2605.746876342545	9
0	14316	2606.151010175903	8
0	14324	2608.315816774552	9
0	14326	2608.870339893905	10
0	14329	2610.879841267547	9
0	14334	2611.564703174994	8
0	14339	2612.866072233727	7
0	14344	2613.576863990658	6
0	14348	2615.183076468279	7
0	14353	2618.521626102889	6
0	14359	2620.649421162798	5
0	14364	2620.768131489013	4
0	14370	2621.187721511374	5
0	14372	2622.502214037729	6
0	14373	2622.60799134544	5
0	14377	2622.664765352654	6
0	14380	2623.799039798448	5
0	14384	2624.148294482095	6
0	14388	2625.355114988677	7
0	14389	2625.510683376515	6
0	14395	2626.080384532686	7
0	14396	2626.117001938248	6
0	14402	2626.462786872778	7
0	14406	2627.78430182032	6
0	14413	2628.090031620896	7
0	14415	2628.17451617912	8
0	14416	2628.213352484185	7
0	14422	2628.381643447989	8
0	14424	2628.701634041718	7
0	14431	2629.593901705699	6
0	14436	2630.017208780215	5
0	14441	2631.064908736802	4
0	14445	2631.859545118277	5
0	14447	2632.523263985251	6
0	14449	2633.297101383848	7
0	14451	2633.971010384285	8
0	14456	2635.637420120533	7
0	14465	2637.121697352008	6
0	14470	2637.633048271906	5
0	14476	2638.137039011865	6
0	14477	2638.3343713957	5
0	14481	2639.82860990338	6
0	14484	2641.161214216543	5
0	14490	2641.88549080021	6
0	14492	2643.313109301023	7
0	14494	2643.317035823511	8
0	14496	2644.569679099975	9
0	14499	2645.138651353832	8
0	14505	2648.235250938391	9
0	14508	2648.831886473993	8
0	14512	2650.017827371482	9
0	14516	2650.561805426753	10
0	14517	2651.311615909543	9
0	14523	2652.893396678691	10
0	14526	2653.812861763291	9
0	14532	2654.28985919073	10
0	14535	2654.695734736468	9
0	14541	2656.40821760564	10
0	14542	2658.126594573528	9
0	14549	2659.237308429159	8
0	14555	2660.224053219264	9
0	14556	2660.643051148503	8
0	14561	2660.673517766513	7
0	14566	2661.642021531245	6
0	14571	2662.634276008327	5
0	14577	2663.77094960305	6
0	14579	2664.869500146914	7
0	14583	2666.125564764659	8
0	14584	2667.811529759158	7
0	14591	2669.316260360007	6
0	14598	2672.015935877897	5
0	14604	2672.521541849234	6
0	14606	2673.06700957753	7
0	14608	2673.175524237865	8
0	14609	2673.198574978897	7
0	14614	2673.254862188444	6
0	14618	2673.954861104797	7
0	14624	2675.947453481298	8
0	14629	2677.955207312648	7
0	14637	2678.926634630202	8
0	14639	2679.440147329108	9
0	14640	2680.346119274604	8
0	14647	2681.18845017035	7
0	14652	2681.629338163144	6
0	14659	2685.139743754302	5
0	14663	2685.940940796963	6
0	14669	2687.376794172999	7
0	14671	2687.381647829687	8
0	14674	2688.158768109462	9
0	14677	2689.502625836322	8
0	14682	2689.640316514852	7
0	14687	2691.468257921422	6
0	14692	2692.366279450767	5
0	14696	2692.522726921133	6
0	14700	2693.732581569149	5
0	14706	2695.124647938533	6
0	14707	2695.588996317049	5
0	14711	2695.880743993532	6
0	14714	2697.449956226684	5
0	14720	2698.411037713027	6
0	14722	2699.118944333269	7
0	14723	2699.62016510664	6
0	14727	2700.582133371278	7
0	14733	2701.889953257774	8
0	14734	2701.929334702343	7
0	14739	2702.006900333713	6
0	14744	2702.238933792403	5
0	14748	2703.226093670805	6
0	14753	2706.924040827078	5
0	14757	2708.126755915113	6
0	14759	2708.16532191576	7
0	14761	2709.125705067065	8
0	14763	2710.486215523245	9
0	14767	2712.817125044626	10
0	14770	2713.935651716809	9
0	14775	2714.259027059995	8
0	14780	2715.602811698392	7
0	14785	2716.086958482334	6
0	14789	2716.169106569039	7
0	14791	2717.833230063298	8
0	14794	2718.140460366486	7
0	14803	2721.654672700783	6
0	14808	2722.273301793267	5
0	14813	2722.456671801282	4
0	14817	2722.904892716916	5
0	14820	2723.625321185983	4
0	14825	2723.996772567115	3
0	14831	2725.398927115746	4
0	14832	2725.716417019985	3
0	14842	2727.192918350135	2
0	14847	2728.345463952116	1
0	14851	2729.756043301523	2
0	14854	2730.236980362698	1
0	14858	2730.410140527951	2
0	14860	2730.473524452092	3
0	14864	2731.66946650891	2
0	14872	2731.959529164437	3
0	14874	2732.045317082736	4
0	14875	2733.708355190017	3
0	14881	2734.794457091529	4
0	14883	2734.95023486161	5
0	14884	2735.087869850783	4
0	14892	2735.663579750961	3
0	14897	2735.771576768848	2
0	14901	2736.480777887267	3
0	14904	2737.996725905964	2
0	14909	2738.411751559529	1
0	14913	2738.577251426847	2
0	14915	2738.914313379438	3
0	14918	2739.778258330016	2
0	14923	2740.97494061324	1
0	14932	2742.648172767371	0
0	14961	2748.570718185348	1
0	14967	2753.522308375054	0
0	14980	2756.105576601018	1
0	14981	2757.575577131336	0
0	14987	2757.588925178213	1
0	14989	2758.425959840743	0
0	15002	2759.491555096979	1
0	15005	2763.334707484528	0
0	15018	2763.834292350313	1
0	15020	2764.127843003944	0
0	15027	2765.076604751699	1
0	15030	2766.534966439403	0
0	15036	2767.374300919275	1
0	15037	2767.421425490412	0
0	15041	2767.598334027334	1
0	15044	2770.196895094552	0
0	15050	2770.920353599566	1
0	15053	2773.230562019113	0
0	15057	2773.73343323657	1
0	15059	2774.525496075633	2
0	15064	2776.083026887166	3
0	15065	2776.744108669479	2
0	15071	2777.217811801711	3
0	15073	2777.244086057629	4
0	15075	2777.253149612248	5
0	15077	2777.281144772063	6
0	15078	2779.702308449822	5
0	15082	2780.890663855967	6
0	15084	2781.629986138867	7
0	15088	2782.87086376123	8
0	15092	2785.96311527105	9
0	15094	2786.142582950359	10
0	15098	2786.462611279573	11
0	15102	2787.631728532639	12
0	15105	2789.19886948437	11
0	15109	2789.308493368576	12
0	15111	2789.373345598708	13
0	15113	2790.813114938399	14
0	15115	2791.446262688265	15
0	15117	2791.551783319933	16
0	15119	2793.433868780173	17
0	15121	2794.621956984844	18
0	15127	2795.558384260962	19
0	15129	2796.024602449136	20
0	15132	2796.602910151936	19
0	15137	2797.155665581654	18
0	15143	2798.698809131446	17
0	15148	2799.768587299018	16
0	15155	2801.577195061619	15
0	15159	2801.972584526768	16
0	15162	2802.664942319848	15
0	15167	2804.754152229699	14
0	15172	2805.528567311705	13
0	15177	2805.842767949167	12
0	15183	2806.145451277528	13
0	15186	2806.701442199419	12
0	15192	2810.042381328886	13
0	15194	2811.066082025574	14
0	15195	2811.085220219054	13
0	15200	2811.669772551535	12
0	15205	2812.471742013245	11
0	15209	2813.843171611728	12
0	15218	2815.933725422382	11
0	15224	2816.15689062202	12
0	15225	2816.318236324207	11
0	15229	2816.948663891245	12
0	15231	2818.13968965719	13
0	15234	2819.558283763608	12
0	15240	2820.442684237844	13
0	15243	2821.83616847738	12
0	15248	2822.693386217941	11
0	15252	2823.375556081702	12
0	15257	2826.749693594159	11
0	15263	2828.670991120996	12
0	15269	2829.300542968689	11
0	15274	2829.434820019992	10
0	15280	2831.066667700035	11
0	15284	2831.726165452614	12
0	15285	2832.122089767309	11
0	15292	2833.934591770327	10
0	15300	2834.835287099376	11
0	15301	2835.255987649485	10
0	15305	2835.517050748111	11
0	15307	2836.117054979764	12
0	15310	2837.632731489324	11
0	15316	2839.178995517314	12
0	15317	2839.908658232664	11
0	15321	2840.608922800842	12
0	15323	2840.800269894557	13
0	15329	2842.685051636135	12
0	15335	2843.532483967964	11
0	15340	2844.518773589562	10
0	15346	2844.896781147033	11
0	15350	2846.456060524372	10
0	15357	2846.615612271618	9
0	15362	2847.140137155458	8
0	15367	2847.843539751831	7
0	15371	2847.932372913845	8
0	15374	2849.065326702786	7
0	15380	2849.638246010204	8
0	15386	2850.613869199226	9
0	15388	2851.002335565125	8
0	15394	2851.709960704417	9
0	15395	2851.782095103252	8
0	15399	2851.838411330446	9
0	15403	2853.091721393432	10
0	15404	2853.118221415968	9
0	15411	2854.721496480879	10
0	15413	2854.787885643037	11
0	15414	2854.907938447069	10
0	15420	2855.52564986521	9
0	15427	2855.997549019925	10
0	15428	2856.111721953708	9
0	15434	2857.39030173849	10
0	15435	2857.723369615422	9
0	15440	2859.010414373595	8
0	15445	2859.628296514076	7
0	15451	2860.699126306814	8
0	15452	2861.711015711263	7
0	15460	2863.770553636624	6
0	15465	2863.889512713247	5
0	15471	2865.737320396599	6
0	15472	2867.065880026631	5
0	15478	2868.594482848371	4
0	15484	2868.852041252485	3
0	15490	2869.223374158222	4
0	15491	2869.625164715119	3
0	15497	2870.076882676678	4
0	15498	2871.518321979516	3
0	15503	2872.028597785039	2
0	15507	2872.287873367763	3
0	15514	2873.457680930701	4
0	15517	2873.903407994495	3
0	15522	2874.9989584359	2
0	15528	2878.220054250821	3
0	15531	2878.477362230217	2
0	15537	2880.182464839388	3
0	15539	2880.244162899349	4
0	15548	2882.050686471818	5
0	15550	2884.425826523362	4
0	15556	2885.260117712755	5
0	15559	2885.590903484842	6
0	15560	2886.150383190912	5
0	15566	2886.729133328518	6
0	15569	2887.995260982552	5
0	15576	2889.207544372476	4
0	15581	2889.513756515281	3
0	15590	2889.70978243855	4
0	15592	2890.474209679278	5
[...]
5	158118	28198.879143731918	3032.3231484175
5	158125	28200.168274975228	3032.9613632991
5	158138	28202.112865179152	3030.9260082402
5	158171	28206.109439396764	3032.6418025774
5	158176	28206.742226712311	3028.4479609137
5	158181	28206.898416037823	3027.68792038
5	158186	28208.028435663731	3028.3830615164
5	158205	28211.867349359399	3022.3140715801
5	158331	28231.164261814031	3034.9324467185
5	158519	28262.096515947803	3060.2045606175
5	158611	28280.184633497019	3073.602056664
5	158616	28280.613280801344	3073.0066804231
5	158621	28280.7622262091	3069.8981843209
5	158626	28281.51057033965	3069.6404488094
5	158632	28283.098691238239	3069.7533498916
5	158637	28283.642516257044	3064.4739484779
5	158646	28287.571514390213	3065.5803822178
5	158665	28289.331141314655	3064.1962072809
5	158689	28293.012110750406	3062.8821396948
5	158710	28296.259540514979	3065.9290844315
5	158770	28306.273354356226	3071.6318030667
5	158781	28307.400104038129	3068.6612794975
5	158803	28309.157304905767	3064.8431387766
5	158811	28309.948920939349	3062.8759111441
5	158819	28311.78647149856	3062.7474119268
5	158826	28313.460809256186	3059.6371792888
5	158838	28314.402718835784	3057.2611352263
5	158846	28316.779786760246	3056.0708848629
5	158879	28323.437448623448	3060.9589825034
5	158903	28326.113895030049	3061.2710438948
5	158908	28326.189391346035	3060.0613509581
5	158915	28328.122521568557	3061.2206620242
5	158950	28332.571066135174	3064.5017551616
5	158964	28334.309842189407	3063.4416347183
5	158986	28336.767404552924	3063.1604768483
5	158999	28338.946382044125	3052.3126204238
5	159011	28339.895475867202	3051.0333760222
5	159060	28348.177522016808	3058.4884476507
5	159086	28350.523465141018	3049.0391257086
5	159214	28376.13167801117	3073.018838956
5	159219	28376.312635745835	3072.725049479
5	159224	28376.708748599575	3066.1811232148
5	159230	28376.962596827788	3065.1436396202
5	159235	28377.045410456191	3063.8534511632
5	159242	28381.571762729393	3055.2313600617
5	159247	28382.082116756295	3042.4791340299
5	159255	28386.504005861122	3044.0075707087
5	159268	28387.459403668019	3034.0412919054
5	159277	28390.116780540982	3031.2673344901
5	159296	28391.988383926994	3033.0268616079
5	159302	28392.333711068402	3032.9432221265
5	159311	28393.535388266216	3030.3135150848
5	159326	28397.324384129263	3032.8453144069
5	159353	28403.254341123646	3036.5807626161
5	159606	28462.242204312499	3088.8041269477
5	159613	28462.437791735199	3087.468695077
5	159631	28466.124205644318	3085.3015731864
5	159645	28472.692553079953	3086.7044561263
5	159668	28475.206797787842	3086.7286364669
5	159673	28475.247417639381	3083.8465371793
5	159685	28477.521148514918	3085.8004444865
5	159696	28480.005532941912	3088.0275651447
5	159706	28481.021996515782	3085.6059150016
5	159740	28488.04201157975	3092.0405295223
5	159754	28488.952217381197	3090.1510034194
5	159763	28491.904991955158	3089.7283905739
5	159782	28493.924744790205	3088.4883720066
5	159810	28496.909426245218	3090.4021987357
5	159821	28498.584672760944	3086.6909350661
5	159829	28499.436577605249	3081.6177347761
5	159850	28500.716076417816	3081.6804990028
5	159865	28502.945441979661	3083.6987442153
5	159870	28502.975623357282	3081.622318914
5	159876	28505.114461613945	3081.8133244748
5	159881	28509.226004311832	3082.3018682433
5	159892	28515.796709593349	3086.4818810196
5	159917	28517.007764634741	3087.0144570568
5	159924	28518.620025182053	3086.7767886604
5	159931	28520.459090989888	3087.7611327744
5	159941	28521.032210787193	3083.766017367
5	159948	28521.879598301479	3084.3847608553
5	159972	28528.41477764212	3084.3678178327
5	160081	28555.165877953537	3110.383239786
5	160100	28560.444249727171	3114.0940452178
5	160133	28567.216859814767	3115.1728589816
5	160141	28567.86645598449	3114.7798781468
5	160159	28575.96553675447	3119.8215771504
5	160164	28575.990145265806	3119.1436433741
5	160169	28577.630038478966	3116.0270771231
5	160174	28581.198570743024	3118.7578436681
5	160181	28582.183147016537	3107.1675322565
5	160209	28586.131191189788	3107.7126462676
5	160218	28587.109571411785	3107.4469529478
5	160247	28594.395242891153	3112.55704148
5	160267	28596.091728553255	3109.5185218836
5	160274	28597.193672169717	3099.8021258598
5	160311	28603.112696857259	3096.4514409957
5	160353	28608.887735711841	3101.9645960161
5	160364	28610.354904686027	3100.4823588731
5	160502	28631.036572083221	3118.0108373552
5	160515	28634.483536338607	3117.3180069929
5	160689	28664.503707291512	3140.4675355012
5	160700	28667.031892737959	3141.7721358126
5	160722	28671.465010805604	3138.5982587419
5	160736	28674.35332553536	3141.4752636749
5	160747	28675.300722083872	3140.3396269451
5	160752	28675.52790820204	3138.2722561284
5	160757	28676.158555963931	3134.72380556
5	160769	28679.935656708322	3136.3939998221
5	160776	28681.213586151941	3135.2954397751
5	160786	28681.506454703488	3132.2787545723
5	160796	28684.331113552042	3131.6052960819
5	160812	28686.425256853562	3127.56638023
5	160822	28687.29970021183	3125.3842592682
5	160827	28690.057661083158	3116.2533003969
5	160837	28693.061355309625	3118.3925812932
5	160875	28695.827051408728	3115.769500264
5	160900	28698.854822758182	3117.7850199655
5	160905	28699.150751346292	3112.1809126866
5	160918	28700.319770776907	3113.1780453762
5	160944	28702.523962461853	3111.4940644538
5	160949	28702.869020664441	3106.9655510748
5	160956	28704.433727311891	3101.2508076386
5	160966	28705.251131645836	3100.6478865918
5	160995	28707.60885491666	3101.8472211736
5	161004	28708.572621576456	3096.070039549
5	161019	28709.954629201004	3087.7182947871
5	161029	28713.02202481136	3089.3850929322
5	161041	28714.174345251553	3088.5165349775
5	161046	28714.18409715506	3086.0505447252
5	161051	28715.082418242447	3085.4974945529
5	161057	28715.822248130285	3076.5207880658
5	161062	28716.323457756793	3073.3205612215
5	161067	28717.378731396127	3066.0070461269
5	161075	28720.837880986595	3062.8542394994
5	161094	28725.856649598556	3064.5870017773
5	161136	28731.586264578049	3069.4546971886
5	161157	28735.110127298475	3068.0128955607
5	161167	28736.246368699223	3068.6350308506
5	161183	28736.410846023513	3060.9786855795
5	161188	28736.641671074325	3054.9272564231
5	161195	28737.337662902169	3051.9876272572
5	161206	28737.934803686333	3050.6498265076
5	161211	28738.093521546883	3047.4591937518
5	161218	28741.344462643865	3046.6638337219
5	161226	28742.571497308122	3046.4082642806
5	161231	28742.573488986605	3046.2472479936
5	161243	28745.099483007726	3042.2047574382
5	161267	28747.041342955106	3039.7154577989
5	161277	28748.564519702357	3038.559687231
5	161311	28754.722621780931	3028.4851080816
5	161341	28757.747784472959	3029.5363524505
5	161358	28758.665351645394	3027.1176627435
5	161364	28759.426781015701	3015.619097423
5	161369	28759.862109658669	3013.6721660706
5	161380	28764.905078597077	3018.6256920768
5	161404	28767.586084133674	3021.0838929496
5	161425	28774.877537292057	3025.8265002822
5	161450	28777.590113307057	3022.6005666726
5	161462	28779.029896712891	3022.4972054851
5	161479	28781.304868241931	3007.3817302874
5	161552	28795.153438734535	3007.4144810242
5	161560	28795.665960211765	2996.9866154643
5	161585	28798.784621837298	2998.9019347428
5	161779	28847.901011985112	3044.2637504241
5	161784	28848.187400369709	3042.9042528569
5	161790	28848.337197350503	3042.841140742
5	161798	28848.901734236768	3037.4929321629
5	161814	28852.327548331561	3040.3043818138
5	161828	28853.859194063863	3040.6060695692
5	161839	28856.712018950826	3037.8301462671
5	161844	28856.917521374315	3030.2869204853
5	161849	28857.268325050954	3029.4241500618
5	161854	28858.080803912924	3029.5551609869
5	161863	28860.500459971209	3030.5842230207
5	161885	28863.673281285211	3033.6527340101
5	161890	28865.145192335981	3034.1940049851
5	161895	28865.391611029044	3033.1192093202
5	161900	28868.361249645588	3033.3751140034
5	161913	28874.7703566439	3036.3317297991
5	161938	28880.984326030757	3042.4131499602
5	161991	28886.663147553562	3039.0594018223
5	162002	28887.963122234433	3036.2966326503
5	162049	28893.190098427269	3030.1180206852
5	162061	28893.948629296426	3029.538338968
5	162093	28900.504407298821	3036.0441766997
5	162098	28900.616430897984	3036.0623236139
5	162103	28900.676115371567	3035.4388130999
5	162111	28904.141311622155	3037.6063763222
5	162123	28907.389229180324	3040.3651279018
5	162138	28910.472946250786	3040.3789525275
5	162180	28914.736104201404	3041.1422157411
5	162193	28918.364945582158	3044.2641187947
5	162218	28920.585191361116	3045.9278116511
5	162224	28920.942604509306	3043.2024793553
5	162229	28921.026861896337	3040.1809730355
5	162240	28924.536728029377	3038.6505556675
5	162248	28926.502403320488	3037.6358491423
5	162258	28927.263314035776	3036.3098850979
5	162263	28927.321396834568	3033.5412488415
5	162270	28928.332616234185	3034.395478585
5	162283	28928.819127093357	3033.1489393567
5	162293	28929.940351167971	3031.1500355207
5	162310	28934.210200363625	3033.8566780037
5	162502	28971.879940682558	3066.3128441643
5	162514	28973.387625674956	3067.5014831628
5	162530	28977.129360056714	3070.750216991
5	162542	28978.911596409989	3069.2561861692
5	162570	28981.01829470786	3064.9273855216
5	162575	28981.664560798835	3062.7135414752
5	162583	28982.333352876541	3052.6668683647
5	162596	28983.28578963195	3048.796887822
5	162603	28985.325599153888	3047.2450348468
5	162608	28986.598683991109	3039.4014160465
5	162613	28988.684642018392	3024.4176154917
5	162626	28993.353077041985	3028.0063690022
5	162652	28996.586682949558	3025.572909609
5	162662	29000.770082966234	3029.6404794253
5	162670	29002.218004294752	3027.4954058177
5	162684	29004.407905007124	3023.6915132507
5	162689	29004.56283958868	3019.4327667713
5	162699	29008.017372827306	3017.5004701992
5	162708	29009.04137991741	3018.2896087228
5	162723	29012.695800393964	3018.1655028678
5	162897	29052.544715080067	3053.6374680162
5	162904	29055.779241642066	3054.5426190403
5	162910	29056.54503100836	3049.2982896529
5	162915	29057.876085416055	3048.4569156626
5	162920	29057.913704518162	3046.2103401343
5	162925	29058.597724744855	3038.712161357
5	162930	29059.714423034052	3035.5694977814
5	162945	29062.407617973581	3030.867640885
5	163158	29099.140882456161	3066.1825534551
5	163292	29125.589897589101	3092.2966382355
5	163298	29126.538206308832	3074.634647278
5	163303	29126.581423636471	3074.1169600888
5	163308	29126.864699991406	3066.6175121248
5	163318	29129.174483268294	3056.088201426
5	163328	29129.706468435504	3055.3142946222
5	163333	29130.017978604797	3055.3761595338
5	163340	29134.200540127464	3053.5125970498
5	163499	29160.963185814268	3077.8716673448
5	163511	29163.844318375323	3080.4314297987
5	163516	29164.049063663582	3080.174082309
5	163524	29165.00455820739	3077.9072436244
5	163530	29167.023844420616	3078.0673804115
5	163542	29169.814146037755	3076.3051559381
5	163591	29175.942318194245	3081.4279270447
5	163599	29177.67527795359	3071.9272594348
5	163610	29181.206151488271	3072.1762522089
5	163622	29183.732912664222	3071.8517101851
5	163630	29184.221579221586	3069.1762926294
5	163635	29184.43748990447	3065.0344991376
5	163641	29184.957321943371	3063.1560337718
5	163646	29185.100305556813	3061.9335978836
5	163652	29186.671119894772	3061.5860044425
5	163657	29186.77152564857	3061.3287653949
5	163665	29187.717691384639	3051.8059866936
5	163675	29189.510046246322	3050.7023077744
5	163692	29192.244229954052	3053.1634673005
5	163915	29231.515125914824	3089.9268469178
5	163926	29233.610104460708	3087.47415228
5	163993	29241.251485842868	3093.549895225
5	163998	29241.597864160504	3087.4876932358
5	164005	29243.340139510266	3089.155856563
5	164012	29243.660959990231	3076.3078225295
5	164018	29244.439227256492	3067.742235641
5	164024	29245.280835890673	3067.8527811702
5	164035	29250.008082861677	3067.8166224408
5	164060	29255.611198357963	3072.1989946844
5	164112	29262.466012329093	3077.3643184073
5	164117	29262.616686837814	3071.8206448516
5	164122	29262.987406623789	3071.454470192
5	164135	29266.413856766178	3074.431974556
5	164158	29269.471014126997	3074.3630232572
5	164164	29269.800392874423	3074.46599619
5	164169	29270.47168016406	3061.2081648383
5	164174	29271.425187870245	3058.2331459912
5	164184	29275.499362367421	3059.3033072635
5	164209	29277.26439515146	3059.4712968654
5	164214	29278.041164409094	3056.2660911633
5	164221	29279.02301264175	3054.3448081947
5	164233	29280.20938158926	3054.8555652175
5	164259	29283.28248801393	3056.7534643759
5	164270	29284.669174576007	3057.3235502239
5	164382	29305.736421086295	3074.8719746995
5	164388	29306.239405195375	3071.8556209281
5	164399	29307.270241452016	3071.7204736562
5	164406	29307.819335047104	3057.2457130543
5	164411	29309.479432699749	3058.2472340625
5	164424	29314.683201828593	3061.5057618021
5	164489	29323.343176543844	3061.6558125117
5	164502	29324.910603438402	3059.7687979044
5	164508	29325.752958599803	3059.9857239683
5	164515	29327.091925184437	3061.2205225817
5	164524	29328.362495088562	3060.5310716487
5	164541	29329.046953822668	3056.4340885406
5	164558	29333.269517816674	3052.0596208281
5	164603	29337.996770632385	3055.4680842068
5	164625	29340.149279861437	3055.3671056944
5	164631	29340.59185728898	3053.113914792
5	164636	29340.659561668356	3047.5135330861
5	164647	29343.414015781747	3050.128586891
5	164685	29352.569547109862	3055.5642860986
5	164706	29354.640118471967	3045.3667284418
5	164714	29355.086307283945	3045.1411226139
5	164719	29356.798505876271	3046.4964548746
5	164724	29357.716579033146	3046.2394537326
5	164733	29358.851258572083	3044.3917417485
5	164748	29363.597419610394	3043.2107073023
5	164783	29371.741379263986	3045.7435120895
5	164796	29372.914968984243	3044.746251636
5	164807	29374.340730359201	3044.8753723415
5	164812	29374.558459971809	3040.823126749
5	164817	29375.042299495655	3029.7378345144
5	164833	29376.590026220663	3030.5955972876
5	165005	29414.853843718792	3053.5457890918
5	165010	29416.041537974014	3048.429695363
5	165018	29417.504567319356	3049.5495258292
5	165035	29420.67841220073	3048.9133031304
5	165067	29425.537182482862	3047.8900486772
5	165072	29425.544561317491	3045.0507356273
5	165083	29427.263791134629	3044.7438938979
5	165090	29429.270882350423	3046.2604351126
5	165095	29429.386161965072	3040.3039652971
5	165100	29429.428158942403	3039.0701376345
5	165110	29431.692734493375	3039.7118405917
5	165125	29431.84998712956	3038.7480166301
5	165137	29434.612946562467	3041.1530218335
5	165159	29438.493951168748	3043.0528545784
5	165171	29441.609488647826	3026.284309071
5	165264	29460.899616379601	3038.6939759933
5	165269	29461.037397968809	3037.7634738912
5	165274	29461.503209615938	3027.934166048
5	165284	29463.249056994816	3025.5035141712
5	165294	29465.605272340379	3025.3204816855
5	165302	29467.24021471805	3026.7837979559
5	165323	29470.170070923522	3026.6222641573
5	165333	29473.113813555723	3028.7133490821
5	165349	29475.876315334035	3030.5798540047
5	165362	29477.242420470157	3029.4633966788
5	165377	29480.259136487463	3032.0219211394
5	165423	29490.885838340747	3034.3400733192
5	165429	29491.750940548577	3035.1577632105
5	165434	29492.707242453745	3023.1261397923
5	165439	29492.964319382453	3020.0571813779
5	165447	29494.822116363324	3021.0757901995
5	165463	29496.976523783297	3013.5720063352
5	165508	29502.676861816526	3015.7622291602
5	166105	29646.6252884343	3152.8895068281
5	166110	29646.658908341541	3152.2102148345
5	166115	29646.705025956389	3141.036051021
5	166120	29647.052432524239	3139.8563159856
5	166131	29650.348989384442	3125.3175837918
5	166167	29653.765445064929	3125.815123744
5	166172	29654.344791250684	3125.5744992501
5	166179	29655.741955929758	3126.1408940782
5	166195	29662.834077120494	3131.3027554339
5	166208	29664.916087358761	3132.3977921472
5	166220	29668.352631697025	3125.2319138603
5	166234	29670.25134226317	3123.2314905744
5	166244	29673.150444532784	3125.5588554746
5	166252	29675.780407952969	3128.1845913516
5	166296	29682.525930375761	3130.1228006471
5	166301	29683.364081837402	3127.4004387704
5	166315	29687.922897695427	3128.438651074
5	166339	29690.839358810796	3130.2151666958
5	166350	29692.897171716629	3130.5559551424
5	166357	29693.946135020773	3130.1247072942
5	166367	29695.053646440305	3129.8017719893
5	166390	29700.024019120829	3131.6872873006
5	166417	29703.440066240686	3134.4652117229
5	166422	29703.484798814593	3133.7412642434
5	166428	29704.918956736642	3133.6516686851
5	166433	29705.062418997993	3131.2726277166
5	166438	29705.40343131162	3129.412190397
5	166449	29707.919561137685	3125.1686042388
5	166468	29709.924129880438	3122.9216265565
5	166473	29710.133276243089	3120.5573638867
5	166482	29711.683907564837	3121.6351772025
5	166496	29713.482986812417	3123.3219418871
5	166533	29718.770329139587	3128.4259168322
5	166552	29719.448230172683	3116.4649767661
5	166557	29719.471393055821	3115.0228592739
5	166566	29720.244823546035	3111.5322092383
5	166584	29722.769927878742	3107.5122889553
5	166598	29723.750290693888	3104.9641858367
5	166630	29726.570357472866	3100.7752402793
5	166645	29731.331869747135	3103.1765931208
5	166663	29735.687226774385	3104.6452868943
5	166679	29736.913062625479	3101.9785815852
5	166692	29737.882581648984	3101.6461177277
5	166709	29740.74951036232	3102.4155731689
5	166723	29741.5338452237	3102.5970347167
5	166815	29757.306046956125	3114.3332221469
5	166820	29757.840240740297	3113.8433684511
5	166827	29758.549612321905	3109.3900845703
5	166899	29765.960027730412	3112.396524133
5	166904	29766.569104046113	3110.1654480486
5	166911	29767.344915045907	3105.5568150615
5	167302	29848.586582714987	3186.2484428752
5	167329	29854.323804463043	3190.1941301809
5	167334	29854.839907872227	3183.2727854294
5	167340	29854.943263757273	3177.3008968488
5	167348	29856.178945704041	3178.134097095
5	167362	29858.939134821213	3180.8885539999
5	167373	29859.526624221778	3180.2054336903
5	167378	29859.943524033811	3177.3860092702
5	167392	29864.996888728357	3181.8169362341
5	167408	29865.345880268371	3179.2874850989
5	167416	29866.322571813747	3172.5316078624
5	167423	29866.940247346647	3154.8933471911
5	167428	29867.039723795632	3154.9367335862
5	167436	29867.159043271447	3144.6687275485
5	167442	29867.489086812409	3134.5412367786
5	167447	29869.175354070916	3135.5311835382
5	167458	29870.603384843221	3133.6357697069
5	167479	29875.937177036139	3137.1701210339
5	167490	29877.2353681298	3136.9643520322
5	167498	29878.598568597879	3132.8318439052
5	167505	29878.979771319624	3133.1288739558
5	167510	29879.047105953146	3128.8182456548
5	167515	29880.409918739344	3121.7219070069
5	167520	29881.221531399321	3119.9598976923
5	167527	29883.326246654571	3119.7253376293
5	167545	29886.09312029557	3122.0524478965
5	167580	29887.825225994793	3123.0737700026
5	167585	29887.889501224476	3112.5102046826
5	167594	29889.982251572239	3111.606421602
5	167606	29891.116627471555	3110.4240284911
5	167617	29893.251359882131	3109.9316165319
5	167627	29897.132479400602	3112.0662016676
5	167672	29904.193799913141	3117.6768352255
5	167677	29904.931026238517	3113.2457105382
5	167685	29907.039231528479	3112.2407592895
5	167701	29910.718663011802	3111.4105506058
5	167724	29914.331210253361	3107.9692519867
5	167735	29916.518834594963	3109.3386256676
5	167740	29917.090764176064	3102.6495703682
5	167762	29922.254750771054	3104.9976394295
5	167815	29932.76038021499	3111.9057189482
5	167834	29936.164671386455	3112.8094715838
5	167942	29958.283859971466	3119.5241652232
5	168047	29972.809344500219	3132.8884554194
5	168058	29975.015368233409	3129.7275479651
5	168084	29979.54572912139	3131.6515819622
5	168092	29981.353577463028	3120.7784939336
5	168099	29982.006395934328	3116.5265564363
5	168104	29983.422848732206	3110.1347518943
5	168109	29983.511401432949	3107.5798585192
5	168119	29987.728323566267	3101.872334172
5	168146	29991.9849050504	3106.067668598
5	168153	29992.218655629882	3100.1184756863
5	168179	29997.306268962641	3102.3666454763
5	168185	29997.400452345163	3100.956433429
5	168194	29998.527102221291	3094.5378710302

