version 2
run First-n2-15-20191016-14:53:05-12340
attr configname First-n2
attr datetime 20191016-14:53:05
attr experiment First-n2
attr inifile omnetpp.ini
attr iterationvars ""
attr iterationvarsf ""
attr measurement ""
attr network org.omnetpp.queueing.Pizza
attr processid 12340
attr repetition 15
attr replication ""
attr resultdir results
attr runnumber 15
attr seedset 15
param **.PS.maxInventoriedPS 2
param **.U1.interArrivalTime exponential(2s)
param **.U2.interArrivalTime exponential(4s)
param **.PS.serviceTimeForInventoryU1 exponential(0.8s)
param **.PS.serviceTimeForInventoryU2 exponential(1.0s)
param **.PS.serviceTimeDirectU1 exponential(1.2s)
param **.PS.serviceTimeDirectU2 exponential(1.4s)
param **.PS.probabilityProducing 0.5
param **.CS.serviceTimeU1 exponential(0.8s)
param **.CS.serviceTimeU2 exponential(1.0s)

vector 0 Pizza.EntryQueueU1 queueLength:vector ETV
attr interpolationmode sample-hold
attr title "queue length, vector"
vector 1 Pizza.CS queueLength:vector ETV
attr interpolationmode sample-hold
attr title "queue length, vector"
vector 2 Pizza.EntryQueueU2 queueLength:vector ETV
attr interpolationmode sample-hold
attr title "queue length, vector"
vector 3 Pizza.sink lifeTime:vector ETV
attr interpolationmode none
attr title "lifetime of arrived jobs, vector"
attr unit s
vector 4 Pizza.sink lifeTimeU2:vector ETV
attr interpolationmode none
attr title "lifetime of arrived jobs, vector"
attr unit s
0	0	0	0
0	5	4.17274849821	1
0	7	4.284541970041	2
0	9	4.519827285931	3
0	15	5.417214924167	4
0	17	6.14338972316	5
0	22	6.942359780066	4
0	27	6.968787968827	3
0	35	7.980824764378	2
0	41	8.688786154527	3
0	42	9.297206363884	2
0	47	9.727320527949	1
0	51	9.786501278433	2
0	53	9.88216594665	3
0	57	11.374736660964	2
0	62	11.747911897949	1
0	67	12.181034733372	0
0	71	12.862329485476	1
0	74	13.20658275034	0
0	99	19.456011303163	1
0	100	19.682253576137	0
0	121	21.407130247884	1
0	124	21.9536006529	0
0	135	25.118609859144	1
0	138	26.984628000474	0
0	147	27.731802824702	1
0	148	27.800815208003	0
0	154	27.839218893273	1
0	155	28.12091783167	0
0	161	28.322640236491	1
0	162	29.04264527935	0
0	168	29.568806072034	1
0	171	29.89202647595	0
0	189	32.707313531367	1
0	190	33.041685238741	0
0	212	38.039579337003	1
0	213	38.300815337858	0
0	277	51.972310306761	1
0	280	52.866442682712	0
0	291	55.70164676591	1
0	294	58.501576621776	0
0	302	60.65400922012	1
0	303	61.060494462507	0
0	307	61.136830388271	1
0	309	62.255914017731	2
0	311	64.19962838019	3
0	314	66.248137285984	2
0	319	67.464796247402	1
0	327	69.216434449054	2
0	329	69.234605518999	3
0	331	69.872634983467	2
0	337	70.019857471542	1
0	342	70.020732050235	0
0	346	71.112950634596	1
0	348	71.684755923879	2
0	351	71.853824985169	1
0	356	72.480255932648	0
0	385	77.341089905219	1
0	387	77.826260980912	2
0	390	78.707736278209	1
0	397	80.318880837781	0
0	459	97.693458123731	1
0	464	99.301255051437	2
0	466	99.510400166321	3
0	468	99.561172026336	4
0	469	100.089867615567	3
0	474	100.119304246035	2
0	478	100.400264596928	3
0	480	102.168109572242	4
0	483	103.478453793203	3
0	487	103.71915597776	4
0	489	105.633628048165	5
0	493	108.422820955615	4
0	498	110.719724702884	3
0	503	112.360323599138	2
0	507	112.549497115779	3
0	509	112.996471931972	4
0	512	113.149504680329	3
0	517	113.507172883413	2
0	522	113.659748670972	1
0	526	114.434047884907	2
0	531	117.079587377346	3
0	532	117.137216610376	2
0	538	117.176995388001	3
0	540	117.834574800555	4
0	541	118.312447099463	3
0	548	122.534998544006	2
0	557	124.574063076147	3
0	558	124.672162640578	2
0	564	125.156824964426	3
0	565	126.031899874475	2
0	569	126.089430520781	3
0	579	128.774834963646	4
0	581	129.142373302659	5
0	586	130.177265516541	4
0	594	130.664432712767	5
0	595	131.133589321281	4
0	599	131.588040638978	5
0	601	131.933290495755	6
0	605	132.551515124861	7
0	606	132.601130773395	6
0	612	133.29985949396	7
0	615	135.475036759243	6
0	619	136.36344527243	7
0	622	137.465521947619	6
0	626	137.94134081189	7
0	628	137.95605785194	8
0	630	139.046224290904	9
0	633	141.934047675441	8
0	638	142.68511859494	7
0	646	143.57469502751	8
0	649	144.154563925303	7
0	655	144.913810597665	8
0	658	145.216490792964	7
0	662	145.38378783299	8
0	664	147.337203428983	9
0	666	147.71489786898	10
0	670	148.929500158917	11
0	673	150.383443100725	10
0	677	150.457495592177	11
0	680	152.116566095284	10
0	684	152.886207816181	11
0	689	153.204403101746	10
0	693	153.500552865564	11
0	697	155.969608799067	12
0	698	156.004662395181	11
0	703	156.935275468908	10
0	711	157.486915932786	9
0	717	157.667606426396	8
0	724	157.808624039463	9
0	728	159.567084506948	10
0	729	159.660801892666	9
0	735	160.513220425537	10
0	737	162.016496390334	11
0	738	162.208060448484	10
0	743	163.923531146924	9
0	747	165.253373218774	10
0	750	165.603453544689	9
0	762	168.476450967813	10
0	764	169.665391419211	9
0	770	171.991412179215	8
0	775	171.99716610616	7
0	782	173.605646213307	6
0	786	174.372227145324	7
0	793	176.765660660477	6
0	798	177.307925997563	5
0	803	178.076078625643	4
0	807	178.275937175868	5
0	811	178.46306426279	6
0	812	178.770199841616	5
0	818	179.493094193296	6
0	819	179.967423443728	5
0	823	180.169524680241	6
0	827	180.288308859892	7
0	828	180.630886940901	6
0	832	180.898229296078	7
0	839	185.564833309725	6
0	844	186.491443799402	5
0	849	186.718984370372	4
0	853	186.756165732275	5
0	857	188.384963169088	6
0	858	188.878089099681	5
0	865	191.742154860451	6
0	866	193.182440174542	5
0	874	194.958754364799	4
0	879	195.15847552117	3
0	883	195.658075641823	4
0	885	195.946189880219	5
0	887	196.236445496142	6
0	891	197.226888575114	7
0	894	197.327916900948	6
0	902	198.976579628707	7
0	905	199.953833473007	6
0	910	200.142697510942	5
0	917	201.060147897066	4
0	924	202.019010906	3
0	929	202.262794644573	2
0	936	203.228963912	1
0	941	204.581288884439	0
0	945	205.513140062482	1
0	948	206.060892803155	0
0	954	207.524354048531	1
0	955	207.54006846414	0
0	987	211.451258634754	1
0	989	211.499353171936	2
0	990	211.587918375271	1
0	996	211.955812530052	0
0	1004	214.141997949852	1
0	1005	214.257517114835	0
0	1011	214.722194061103	1
0	1014	215.250176451892	0
0	1018	216.296429520368	1
0	1021	217.506977623126	0
0	1025	217.77727300136	1
0	1032	219.529904439081	0
0	1045	220.456665323456	1
0	1047	220.596657750425	2
0	1048	221.533199841773	1
0	1059	223.602122745284	0
0	1070	224.133809059139	1
0	1072	225.426207787662	0
0	1078	226.831093569015	1
0	1079	226.991770855071	0
0	1099	228.965407820803	1
0	1106	232.985290633167	0
0	1117	233.185893874412	1
0	1118	233.263277989971	0
0	1131	235.737936800869	1
0	1134	236.499765711269	0
0	1150	242.200144064726	1
0	1152	242.795022629328	2
0	1154	242.806722759765	3
0	1156	244.088932953565	4
0	1160	245.721852827008	5
0	1162	246.050080974617	6
0	1164	246.643259292786	7
0	1165	246.648643977806	6
0	1170	247.010229995271	5
0	1176	247.899945832941	4
0	1183	247.977999445166	3
0	1187	249.66865963078	4
0	1189	252.776282624783	5
0	1195	253.705288022311	6
0	1199	254.501235101033	5
0	1204	255.055170522278	4
0	1209	255.535734089113	3
0	1217	256.085148229766	4
0	1218	256.784632160384	3
0	1222	257.961256225582	4
0	1225	259.234138215968	3
0	1231	259.951769959941	4
0	1233	260.970981081301	5
0	1235	261.058918024794	6
0	1236	261.516267717835	5
0	1240	261.923657838759	6
0	1244	262.707750978981	7
0	1245	264.054102741978	6
0	1249	264.453045966951	7
0	1252	264.657454110991	6
0	1257	264.84173216243	5
0	1261	265.157648028238	6
0	1264	265.202443796683	5
0	1272	266.048063804496	6
0	1274	266.45803615516	7
0	1275	266.729124583563	6
0	1280	268.440604854366	5
0	1290	271.0862057859	6
0	1292	271.133173555984	7
0	1293	271.438947860525	6
0	1297	271.971087248652	7
0	1300	272.016355613712	6
0	1308	275.174486502563	7
0	1309	275.421751709831	6
0	1316	275.955439762343	7
0	1318	276.655369606116	6
0	1324	278.652181691208	7
0	1325	280.037579419327	6
0	1330	280.040695130921	5
0	1340	281.294599069557	4
0	1345	281.396362789425	3
0	1350	282.354836118097	2
0	1354	284.173696215227	3
0	1357	284.541700410472	2
0	1361	285.622626980808	3
0	1363	288.152976615518	4
0	1366	289.158637274029	3
0	1372	289.594050065378	2
0	1377	290.000106001577	1
0	1383	291.000195209654	2
0	1384	291.089530267041	1
0	1389	294.395516532156	0
0	1395	295.115631358812	1
0	1397	295.205386242233	2
0	1398	295.212460329846	1
0	1403	296.093024402914	0
0	1409	297.948303992652	1
0	1414	299.121652911944	0
0	1441	306.68987800596	1
0	1442	307.281363432953	0
0	1464	315.031893514232	1
0	1466	315.341322442793	2
0	1470	317.853249176195	1
0	1478	318.848006889914	2
0	1479	319.165515789408	1
0	1484	319.333517764711	0
0	1514	322.6178945449	1
0	1518	323.487315802618	0
0	1529	324.897216466049	1
0	1530	325.120908601504	0
0	1548	328.217701372645	1
0	1552	329.538200156054	2
0	1555	330.026515325599	1
0	1563	330.580455683818	2
0	1565	330.903422414959	3
0	1566	331.240922700975	2
0	1570	331.263024997185	3
0	1572	331.380715335285	4
0	1576	331.912799403598	3
0	1583	332.431313213032	2
0	1588	332.499341582443	1
0	1596	333.316956127069	2
0	1597	333.904361436597	1
0	1603	333.930731869892	2
0	1605	334.157210403608	1
0	1610	334.283011012128	0
0	1624	335.579275811175	1
0	1626	336.484193478265	2
0	1627	337.907532066722	1
0	1634	337.965383328014	0
0	1659	341.083321836416	1
0	1661	342.394847427665	2
0	1666	342.855006691679	1
0	1674	343.605131724955	0
0	1691	345.911276831291	1
0	1693	346.309641689908	0
0	1703	346.952208675787	1
0	1706	349.579324437672	0
0	1717	349.883711065498	1
0	1720	350.314239134309	0
0	1745	353.306345801181	1
0	1746	353.756321449206	0
0	1777	357.807347308418	1
0	1779	358.100783990218	2
0	1781	358.137920793928	3
0	1783	358.162427893955	4
0	1785	358.586652226153	5
0	1787	359.842238037146	6
0	1789	360.051886624247	7
0	1797	361.495645113633	8
0	1802	362.564227727017	9
0	1803	363.321249021895	8
0	1809	363.450929028899	9
0	1810	363.872407387593	8
0	1815	364.104204910094	7
0	1821	365.073809318288	6
0	1827	365.727606981167	7
0	1828	366.045825345814	6
0	1832	366.070987999074	7
0	1834	366.508568900982	8
0	1836	367.323409644111	9
0	1840	367.752179445141	10
0	1841	368.506052370923	9
0	1848	369.892558369983	10
0	1849	370.523890361272	9
0	1854	370.838352327849	8
0	1859	371.035720497515	7
0	1863	371.280362856695	8
0	1866	371.771923194736	7
0	1871	371.928178706274	6
0	1875	372.047370431519	7
0	1877	372.426579952901	8
0	1881	373.949738753877	7
0	1889	374.240931970883	8
0	1890	374.962252528509	7
0	1897	376.058164570527	8
0	1898	376.671489423544	7
0	1903	377.303408917061	6
0	1910	378.002166054347	5
0	1914	378.161318961588	6
0	1916	378.433604524403	7
0	1922	379.767401657548	8
0	1926	381.478590248556	9
0	1927	381.572197573103	8
0	1933	381.618460948711	9
0	1935	381.994011393523	8
0	1941	383.432032516601	9
0	1942	383.560151650146	8
0	1949	384.04555711648	7
0	1955	384.62754810794	8
0	1957	384.96003702546	9
0	1959	385.7834365829	10
0	1960	385.899391988912	9
0	1970	386.47246560294	8
0	1978	388.072815318117	9
0	1979	388.142564462923	8
0	1987	390.774650967498	9
0	1993	392.492961132836	10
0	1994	393.020062208398	9
0	2001	393.444363614146	10
0	2003	394.486627785493	11
0	2004	394.778545440419	10
0	2010	394.904141169103	11
0	2012	395.171192561915	12
0	2014	395.318365187466	13
0	2015	395.491561360677	12
0	2021	395.499561590287	13
0	2022	395.998039594598	12
0	2026	396.397787953669	13
0	2031	397.988731774419	12
0	2037	398.271981674638	13
0	2040	398.734951627353	12
0	2045	399.375928259355	11
0	2052	400.139981981702	12
0	2053	400.707210503046	11
0	2060	400.907736470447	10
0	2070	404.415404433303	9
0	2076	404.420732758256	10
0	2077	404.729878310143	9
0	2082	404.824178422725	8
0	2089	407.012694765324	7
0	2096	407.594742092256	6
0	2102	408.332231492667	7
0	2104	408.34419816234	8
0	2105	408.454306335303	7
0	2109	409.481049891958	8
0	2116	411.4750655922	7
0	2122	412.603298847144	6
0	2127	414.135325446003	5
0	2133	414.378988611736	6
0	2137	417.017283107881	7
0	2138	417.744580686906	6
0	2142	418.200455279803	7
0	2146	418.234825006263	8
0	2150	419.289920609125	9
0	2151	420.150025241221	8
0	2157	421.55078348884	7
0	2162	421.729107897744	6
0	2166	422.113314033754	7
0	2168	423.317842010143	8
0	2170	423.557904725554	9
0	2173	424.057318978682	8
0	2177	424.198782069577	9
0	2181	425.428445343507	10
0	2184	425.919136235124	9
0	2190	426.1168583707	10
0	2191	426.257326987323	9
0	2199	426.865223012521	10
0	2200	427.586795675295	9
0	2204	427.85042135089	10
0	2206	430.888197205141	11
0	2220	435.407246863137	12
0	2221	436.549980465714	11
0	2226	436.925403972381	10
0	2231	438.04214710267	9
0	2236	438.521156065945	8
0	2240	440.048703382257	9
0	2242	440.712725296398	10
0	2244	441.013804282099	11
0	2249	442.147598273673	10
0	2256	444.024525687163	9
0	2261	444.349571172854	8
0	2267	446.992094989049	7
0	2272	447.112663020177	6
0	2277	447.853314626066	5
0	2284	449.602229777504	4
0	2289	450.966930785894	3
0	2294	451.16134753038	2
0	2299	451.439891733483	1
0	2303	451.887710938524	2
0	2307	452.375925060668	3
0	2308	452.864386240749	2
0	2313	453.40842400571	1
0	2317	454.234703517911	2
0	2322	456.820891309079	1
0	2326	458.387913575807	2
0	2334	461.566263904489	1
0	2339	461.853554497246	0
0	2359	463.528858680317	1
0	2363	463.849195900521	2
0	2364	464.77257749913	1
0	2369	464.884233545565	0
0	2375	465.558605318244	1
0	2378	466.441023395683	0
0	2387	472.170517217668	1
0	2393	475.109290580653	0
0	2411	475.84079910243	1
0	2414	475.98630462325	0
0	2418	476.485827258488	1
0	2420	477.919027482504	2
0	2426	478.939443593426	1
0	2434	479.844840763354	2
0	2437	480.418502223148	3
0	2438	480.668916068822	2
0	2445	482.627623376854	1
0	2451	483.089345812369	2
0	2452	483.165383908688	1
0	2459	485.853380380943	0
0	2480	488.371269513133	1
0	2482	489.187839779585	0
0	2493	490.56219707794	1
0	2495	491.138436152089	2
0	2497	491.214518902041	3
0	2504	493.848682878449	4
0	2506	494.336156418256	5
0	2507	494.592696573058	4
0	2513	494.808717873526	5
0	2514	495.708267417035	4
0	2518	497.40105985179	5
0	2520	498.255756182753	6
0	2522	498.698093312548	7
0	2527	499.985330219418	8
0	2528	500.455901423925	7
0	2534	501.249110697446	6
0	2539	501.363583553342	5
0	2544	502.140556571641	4
0	2548	505.233919434647	5
0	2553	507.414044414172	4
0	2560	510.348444893779	3
0	2564	511.66579814401	4
0	2567	511.941032855802	3
0	2574	513.746062922446	4
0	2576	513.781567268845	5
0	2577	513.907899328179	4
0	2583	514.546375605102	5
0	2584	514.890012382397	4
0	2590	515.846589449787	5
0	2593	516.916281519266	4
0	2601	518.22245775697	5
0	2605	518.782678291663	6
0	2606	519.097861886709	5
0	2611	520.358172499943	4
0	2617	522.222368484703	5
0	2622	522.782410999267	4
0	2627	523.468116793952	3
0	2632	524.041495166909	2
0	2636	524.055782594214	3
0	2641	525.393033575619	2
0	2645	526.049909118775	3
0	2649	529.24130080361	2
0	2654	529.519916597343	1
0	2660	530.238135645877	2
0	2663	532.915313826255	1
0	2667	533.153449337146	2
0	2669	533.985315251283	3
0	2671	534.070260324065	4
0	2674	534.887365032219	3
0	2678	535.191903016589	4
0	2681	535.387624220241	3
0	2685	536.256469374163	4
0	2688	537.700836989578	3
0	2694	539.512569138924	4
0	2696	539.640093341109	5
0	2698	541.587929555301	6
0	2700	543.424067006889	7
0	2702	544.343462170712	8
0	2703	544.562102141981	7
0	2708	545.203889626735	6
0	2712	545.680204221822	7
0	2714	547.071166020869	8
0	2719	550.055353982121	9
0	2720	552.151751228112	8
0	2725	552.335296511466	7
0	2732	552.799705450396	6
0	2737	552.957044317141	5
0	2743	553.421454812706	6
0	2745	556.204068792465	7
0	2747	556.789033555591	8
0	2750	557.393068092326	7
0	2757	558.84303555844	6
0	2762	559.208648852237	5
0	2768	559.50555311234	6
0	2771	559.832360160202	7
0	2774	560.71689333133	6
0	2779	561.741191931365	5
0	2785	562.775199463896	6
0	2787	563.939216358904	7
0	2790	564.979922598918	6
0	2795	565.38932294349	5
0	2803	566.598479491318	4
0	2808	566.66176189403	3
0	2812	566.86452592663	4
0	2818	568.190124062246	5
0	2819	568.194039664898	4
0	2824	571.136182799813	3
0	2829	571.510725685268	2
0	2836	572.479875014174	1
0	2842	573.460091772708	0
0	2859	575.21133305639	1
0	2860	575.404038276343	0
0	2885	578.314016518327	1
0	2888	579.034580021373	2
0	2889	579.467762492128	1
0	2895	580.219541484382	0
0	2901	580.656211899467	1
0	2902	581.057673040568	0
0	2910	583.34818099931	1
0	2912	584.208504712906	2
0	2913	584.429810983962	1
0	2917	585.28520986996	2
0	2920	586.314544925809	1
0	2924	586.375178526102	2
0	2929	591.296863702365	3
0	2930	591.510645200284	2
0	2935	591.674875407569	1
0	2944	595.832924680763	0
0	2977	600.852582881656	1
0	2979	600.858480425318	2
0	2982	601.939221989037	1
0	2989	602.732345036851	0
0	2998	602.815542435766	1
0	3003	604.021890291875	2
0	3004	605.59416238551	1
0	3011	606.123788157328	2
0	3013	606.512233304033	1
0	3021	607.403926397136	2
0	3025	608.037800391862	1
0	3030	608.319584774322	0
0	3048	609.775188660825	1
0	3050	609.827095289027	2
0	3052	609.97036019436	3
0	3055	611.686079913362	4
0	3057	612.569014253367	3
0	3066	614.565041902911	2
0	3075	617.793612326211	1
0	3081	617.924015500228	2
0	3083	618.640308643109	1
0	3088	619.34633349731	0
0	3107	620.665108885551	1
0	3109	623.343135497879	2
0	3111	623.462580908814	3
0	3115	624.836629089808	2
0	3123	626.763016411254	1
0	3127	626.821430965233	2
0	3133	628.62896556763	3
0	3136	628.90547760131	2
0	3142	630.171801943931	1
0	3149	632.476153755406	0
0	3153	632.593163896297	1
0	3155	632.762505104918	2
0	3157	632.814503781641	3
0	3161	633.55420472637	2
0	3168	634.173710885505	1
0	3172	634.567819633156	2
0	3174	636.725559074973	3
0	3177	637.88032345926	2
0	3186	642.341340355819	1
0	3191	642.553122979849	0
0	3195	642.560227879368	1
0	3197	642.620572127641	2
0	3199	642.689969681169	3
0	3207	644.393838285427	4
0	3208	645.317960062126	3
0	3212	645.551264718136	4
0	3214	645.745025998409	5
0	3216	646.335882976166	6
0	3218	647.35299128317	7
0	3221	648.392788539686	6
0	3226	648.888795930318	5
0	3233	649.810497264242	4
0	3243	651.050546777007	5
0	3245	651.249647473205	6
0	3249	652.061535871026	7
0	3250	652.063037668187	6
0	3259	654.132238122717	5
0	3265	654.717087203201	6
0	3266	654.809641332252	5
0	3271	655.278921302266	4
0	3275	656.182469805381	5
0	3279	658.332287569079	6
0	3280	658.55952267089	5
0	3284	658.868216769286	6
0	3288	659.389985106079	7
0	3290	659.804484933988	8
0	3292	659.958340313032	9
0	3294	660.343488185373	10
0	3295	660.743808577156	9
0	3299	661.339887904112	10
0	3301	661.655248428172	11
0	3305	662.71711426705	12
0	3307	662.805380953766	13
0	3309	664.312972576516	14
0	3312	665.001745650158	13
0	3316	666.0559599156	14
0	3322	666.748002443264	15
0	3325	667.495718195174	14
0	3330	668.085188043932	13
0	3335	668.832728386975	12
0	3341	670.742983006737	13
0	3347	671.41280037495	14
0	3348	671.53731579511	13
0	3353	672.446354505009	12
0	3358	674.730448573658	11
0	3362	674.875001935813	12
0	3364	675.957265716063	13
0	3368	678.151230280927	12
0	3374	678.532644305514	13
0	3375	679.835504563288	12
0	3384	680.764384028054	11
0	3389	681.619859786687	10
0	3393	681.734166033734	11
0	3397	683.240340420777	12
0	3402	684.109057407349	11
0	3406	684.733010023971	12
0	3410	687.922770222533	13
0	3411	688.284431904157	12
0	3415	688.502155174017	13
0	3420	689.401555150487	12
0	3427	691.063277321597	11
0	3435	691.945426888974	12
0	3437	692.522050397738	13
0	3440	693.300677137777	12
0	3448	694.141082841161	11
0	3454	694.315502102182	12
0	3458	695.794431369485	13
0	3460	696.605104460575	14
0	3461	696.787120896261	13
0	3466	697.362155127427	12
0	3473	697.890158927552	11
0	3479	698.3159037249	12
0	3480	698.386904727389	11
0	3488	701.705266857443	12
0	3490	701.802480586323	13
0	3494	702.670363958825	14
0	3495	703.262143262296	13
0	3500	704.338412736363	12
0	3509	706.050818223537	11
0	3515	706.840979780797	10
0	3520	706.989590864169	9
0	3525	707.005436601465	8
0	3530	707.245698323096	7
0	3536	708.97614577168	6
0	3542	709.656844012769	7
0	3543	710.271871934957	6
0	3549	711.43773453291	7
0	3552	714.701319528393	6
0	3559	716.248510695463	5
0	3566	717.710371921352	4
0	3574	719.363878994981	3
0	3579	719.79219108497	2
0	3589	722.87529336716	3
0	3591	722.987529353353	4
0	3593	723.482806977482	5
0	3596	724.500373421	4
0	3603	725.466326197933	3
0	3608	725.637725406113	2
0	3617	726.719440081503	1
0	3625	728.202246383383	2
0	3626	728.759408915987	1
0	3630	729.244958539957	2
0	3633	732.182307737591	1
0	3638	733.15946022632	0
0	3655	734.630153000002	1
0	3656	735.443439730218	0
0	3665	737.081936159608	1
0	3669	738.151914702118	2
0	3671	739.066279023638	3
0	3674	739.877754231008	2
0	3679	742.191453162174	1
0	3686	745.265655786721	0
0	3690	745.956355979992	1
0	3694	746.631355583449	2
0	3699	748.097505329312	3
0	3704	748.724410389156	4
0	3707	748.927281375491	3
0	3714	748.96648718322	4
0	3715	749.028134776907	3
0	3720	749.783051415245	2
0	3725	749.943721542142	1
0	3731	751.992760196017	2
0	3733	752.248647617766	3
0	3735	752.394732016219	4
0	3739	753.243292337594	5
0	3740	753.727156673945	4
0	3745	754.766547910324	3
0	3749	755.129785557603	4
0	3753	756.304962728518	5
0	3754	757.551292272106	4
0	3760	757.959955449926	5
0	3762	758.595385147454	6
0	3765	758.833567585636	5
0	3771	760.971273465087	6
0	3773	761.478147773534	7
0	3775	761.556857950206	8
0	3779	762.202459868924	9
0	3781	762.286386020015	10
0	3782	762.406266624408	9
0	3787	763.693630477673	8
0	3791	763.820348350424	9
0	3793	764.513809658976	10
0	3797	766.330594912494	9
0	3803	766.572331164142	8
0	3809	766.870505117629	7
0	3815	767.059040159974	8
0	3818	767.75120066449	7
0	3824	768.327723314089	8
0	3825	768.718806099695	7
0	3830	769.59542929272	6
0	3837	770.875139536385	5
0	3846	771.668565181279	4
0	3851	773.441238097279	3
0	3856	774.343000932145	2
0	3860	775.720640420295	3
0	3862	777.565458069137	4
0	3867	780.327925214126	3
0	3871	781.758470066191	4
0	3876	784.033340667555	3
0	3881	784.310791903056	2
0	3887	785.033512530221	3
0	3888	785.364332422789	2
0	3893	785.703252622052	1
0	3897	787.518956456158	2
0	3900	788.54285549121	1
0	3905	789.672061885178	0
0	3911	790.604630281458	1
0	3913	791.24670911472	2
0	3914	791.449468618275	1
0	3919	792.013826106261	0
0	3923	792.496562853173	1
0	3925	792.614034572957	2
0	3927	793.566972303892	3
0	3932	795.09333258671	2
0	3936	795.467699351381	3
0	3943	799.831665355698	2
0	3948	800.315999426868	1
0	3955	800.601104839931	0
0	3968	802.275828235916	1
0	3970	803.025196526044	2
0	3971	803.205101664021	1
0	3976	803.394069678903	0
0	3998	809.469439339392	1
0	4004	810.879094080984	2
0	4005	811.112752314987	1
0	4011	812.700781910196	0
0	4017	813.03679171804	1
0	4018	813.348255909277	0
0	4022	813.416361068606	1
0	4024	816.273540897027	2
0	4030	818.045452668684	1
0	4035	818.669660976475	0
0	4083	826.619467183256	1
0	4087	830.414059687828	2
0	4088	830.515800542521	1
0	4097	831.525871268772	2
0	4098	831.547367997614	1
0	4103	831.786671036209	0
0	4107	832.402526409427	1
0	4109	832.745512441459	2
0	4111	833.320449673304	3
0	4115	834.652898749112	2
0	4119	834.883740909952	3
0	4122	836.895581697467	2
0	4132	838.847575678166	1
0	4137	839.421376264973	0
0	4150	841.623651809933	1
0	4151	843.487513128386	0
0	4158	844.946964716024	1
0	4159	845.012712376456	0
0	4168	846.303326483967	1
0	4172	847.709412940035	0
0	4181	849.514283151583	1
0	4184	849.712179708512	0
0	4191	850.691390116169	1
0	4193	851.618230409639	0
0	4205	853.944416365883	1
0	4207	854.452480909789	2
0	4208	854.946365510517	1
0	4212	855.284459891724	2
0	4214	856.279532558211	3
0	4216	857.544602297827	4
0	4221	860.310307260093	3
0	4226	861.650533349102	2
0	4232	862.520059787975	3
0	4236	863.002753782349	2
0	4241	863.629508508734	1
0	4249	865.125369627061	0
0	4255	865.221970965097	1
0	4256	865.626005109186	0
0	4308	872.798222785581	1
0	4310	873.521840065188	2
0	4313	874.244147428329	1
0	4318	874.561948277161	0
0	4327	875.256187736579	1
0	4331	876.738924471644	2
0	4332	876.814091585936	1
0	4336	877.467928691652	2
0	4338	877.509009522833	3
0	4344	879.259566854188	2
0	4349	879.758198614883	1
0	4355	881.173289100756	2
0	4357	883.333484722882	3
0	4365	885.435449740789	2
0	4375	887.782368716665	3
0	4378	888.914437442237	2
0	4382	890.250715120158	3
0	4385	891.789904191466	2
0	4392	892.844696028054	1
0	4396	892.974017689859	2
0	4399	893.645350519477	1
0	4405	894.630957515002	2
0	4408	894.751218131198	1
0	4414	896.322436956883	2
0	4415	896.370349052874	1
0	4422	896.71886860506	2
0	4424	897.071898533325	3
0	4426	897.147606516612	4
0	4428	897.838314457943	5
0	4430	898.327885375502	4
0	4435	899.029831412626	3
0	4440	899.234809241578	2
0	4446	900.078739259047	3
0	4448	900.189293929101	4
0	4449	900.664896435411	3
0	4453	900.748629674342	4
0	4455	901.661157567477	5
0	4458	903.484528556602	4
0	4463	904.072036287026	3
0	4467	905.069713051734	4
0	4470	909.563921332792	3
0	4478	911.319790273642	2
0	4483	911.94053948911	1
0	4488	913.155599699049	0
0	4496	914.253705580976	1
0	4499	915.625743315997	0
0	4505	917.220854650099	1
0	4508	918.673957873713	0
0	4524	920.518220263391	1
0	4525	920.703761008493	0
0	4531	921.930264318944	1
0	4533	922.298593601152	2
0	4536	922.705155796999	1
0	4543	923.857644286782	0
0	4551	926.582589875551	1
0	4553	928.145563159497	2
0	4556	929.049494312154	1
0	4560	929.130461287991	2
0	4562	929.386756880804	3
0	4567	930.458954611741	2
0	4577	931.807666657895	3
0	4578	932.688428319904	2
0	4583	933.504288491465	1
0	4591	936.304863881754	0
0	4599	937.389179674739	1
0	4603	937.529579599002	2
0	4604	937.687758648629	1
0	4609	938.145875844279	0
0	4633	940.439684606479	1
0	4637	940.621877746215	2
0	4639	942.396202495786	1
0	4644	942.63489420863	0
0	4680	949.431617623895	1
0	4682	950.279695404171	2
0	4685	952.113261504152	1
0	4692	953.628114087888	0
0	4710	955.756794812193	1
0	4712	956.758934188525	0
0	4725	957.966226718044	1
0	4727	959.802267448775	2
0	4730	960.828830441885	1
0	4737	962.124021279988	0
0	4772	969.393517680533	1
0	4774	970.54510095238	2
0	4778	971.792978082858	1
0	4783	972.089701913683	0
0	4829	981.88381785549	1
0	4830	983.912066806589	0
0	4853	989.353322493142	1
0	4854	989.642150964473	0
0	4863	990.153517499742	1
0	4870	992.648050771099	2
0	4871	992.6688359812	1
0	4877	993.938779587378	2
0	4878	993.963783318706	1
0	4883	994.119232384606	0
0	4892	994.783090670278	1
0	4900	996.481276167562	0
0	4914	997.842109799481	1
0	4919	998.449220819837	2
0	4920	998.61469353881	1
0	4925	998.628824821841	0
0	4931	999.839513048448	1
0	4932	999.996112431995	0
0	4936	1000.240644921032	1
0	4940	1000.876585024728	2
0	4944	1001.746800602569	3
0	4946	1002.104612051936	4
0	4947	1002.225331393454	3
0	4952	1003.174532254931	2
0	4956	1003.68316430431	3
0	4960	1005.231911598556	4
0	4962	1005.835074006213	5
0	4965	1006.335654294954	4
0	4971	1006.367447772955	5
0	4978	1009.300473438443	4
0	4985	1010.205339538149	5
0	4986	1010.470344833193	4
0	4992	1010.800223032618	5
0	4993	1010.894188457551	4
0	4998	1011.056076162024	3
0	5006	1012.751785157767	4
0	5007	1012.947423011268	3
0	5013	1013.903629393319	2
0	5018	1014.657681614187	1
0	5026	1016.125301936299	0
0	5052	1021.46251755433	1
0	5054	1021.55993142302	2
0	5055	1021.669116673754	1
0	5060	1022.440728217448	0
0	5067	1022.618783919575	1
0	5070	1023.426681497585	2
0	5071	1023.589552582968	1
0	5077	1024.310331409277	2
0	5079	1024.488625684061	3
0	5081	1024.834226803877	4
0	5084	1025.892410198026	3
0	5090	1026.738065622274	4
0	5095	1028.681275667458	3
0	5099	1029.407009448732	4
0	5101	1029.615281898235	5
0	5105	1031.301218622281	6
0	5109	1032.082436432978	7
0	5110	1032.733872328375	6
0	5114	1034.4477618898	7
0	5116	1034.73366048618	8
0	5119	1036.25143703802	7
0	5128	1037.34725978315	8
0	5129	1037.662086837244	7
0	5135	1038.521927597365	8
0	5136	1038.909105144724	7
0	5141	1039.782955200785	6
0	5145	1040.358668596097	7
0	5147	1042.165610276571	8
0	5149	1042.611195146625	9
0	5151	1043.422768449463	10
0	5154	1046.198429534515	9
0	5159	1047.122305694812	8
0	5165	1047.35811002088	9
0	5167	1047.580698009051	10
0	5169	1047.929909877149	9
0	5175	1049.23876823768	10
0	5176	1049.36272991885	9
0	5182	1050.068744535788	10
0	5184	1050.580857369798	11
0	5191	1055.937737404662	10
0	5196	1056.177331303822	9
0	5201	1057.687356185402	8
0	5205	1059.41594727978	9
0	5209	1064.279504398159	10
0	5210	1065.035819670047	9
0	5215	1066.458996919024	8
0	5220	1067.143770110199	7
0	5224	1067.34414571492	8
0	5228	1069.833214682536	9
0	5231	1071.300065564648	8
0	5236	1072.680906886272	7
0	5242	1073.250660638008	8
0	5243	1073.360941873631	7
0	5248	1074.103207657599	6
0	5253	1075.994552380983	5
0	5260	1078.032891461175	6
0	5261	1078.172333370466	5
0	5266	1078.337025111431	4
0	5270	1078.366854578164	5
0	5274	1078.90914215647	4
0	5281	1079.532721928479	3
0	5285	1080.046910633264	4
0	5289	1081.88623102636	3
0	5294	1082.55087482621	2
0	5299	1083.247299977309	1
0	5304	1085.395528926557	0
0	5315	1086.862797310339	1
0	5316	1087.096638866825	0
0	5322	1087.580635946632	1
0	5326	1088.634186521389	2
0	5331	1089.952983773261	3
0	5332	1090.337502279802	2
0	5338	1090.385322915249	3
0	5339	1090.829561096318	2
0	5346	1091.959960499372	1
0	5353	1092.906276202328	2
0	5356	1093.923942063734	1
0	5362	1094.677344903807	2
0	5369	1096.298835263212	1
0	5374	1097.925290042625	0
0	5378	1098.35005232284	1
0	5380	1098.902020965985	2
0	5383	1099.17995116062	1
0	5388	1101.504700460207	0
0	5394	1101.683852213195	1
0	5397	1102.121989534833	0
0	5423	1107.706517276227	1
0	5427	1109.565251943751	2
0	5428	1109.587237137253	1
0	5434	1109.750620808239	2
0	5436	1109.887456136109	3
0	5439	1110.443791621727	2
0	5444	1111.235055257855	1
0	5451	1112.718614857405	0
0	5478	1119.54034803742	1
0	5480	1120.088701783241	2
0	5481	1120.10835627142	1
0	5486	1120.870404358572	0
0	5506	1122.84030297079	1
0	5508	1123.066731488035	0
0	5536	1128.604077756465	1
0	5542	1131.746442718741	2
0	5543	1131.858290926388	1
0	5550	1132.132161676699	0
0	5556	1132.232351829442	1
0	5560	1133.318333155122	0
0	5583	1135.904405710546	1
0	5584	1135.933544147177	0
0	5593	1139.8092042408	1
0	5599	1140.765384312051	2
0	5600	1141.085474348883	1
0	5604	1141.093193773051	2
0	5608	1142.056126786765	1
0	5614	1143.083987341898	2
0	5617	1143.465303217628	3
0	5618	1143.668515431704	2
0	5623	1144.371440878422	1
0	5628	1144.879316122847	0
0	5632	1144.884733585886	1
0	5635	1146.524174407	0
0	5641	1147.480301921524	1
0	5643	1147.904518494577	2
0	5645	1148.553193481886	3
0	5650	1150.324710894797	2
0	5655	1150.559031034887	1
0	5660	1151.511358729484	0
0	5666	1152.216666107961	1
0	5667	1152.253115280794	0
0	5675	1154.032986706853	1
0	5676	1154.199378210649	0
0	5693	1155.571162802492	1
0	5695	1155.675639268906	2
0	5696	1155.95596514401	1
0	5701	1156.546461836063	0
0	5705	1156.600562366785	1
0	5708	1157.778689329494	0
0	5712	1159.518247187534	1
0	5715	1159.907612818542	0
0	5726	1160.369222034268	1
0	5727	1161.715723904597	0
0	5743	1163.145738352588	1
0	5751	1163.933873126006	2
0	5752	1165.400674656276	1
0	5757	1165.576639843833	0
0	5763	1165.754147939163	1
0	5764	1165.903485992643	0
0	5779	1167.687633926135	1
0	5782	1168.370533593745	0
0	5800	1170.267978574845	1
0	5807	1172.610103255263	0
0	5825	1177.627112775512	1
0	5827	1178.081383176152	2
0	5829	1178.278770123608	3
0	5832	1178.845751297888	2
0	5837	1179.017538836337	1
0	5841	1179.584081575739	2
0	5843	1180.358670445881	3
0	5845	1180.580556542437	4
0	5847	1180.641467834779	5
0	5851	1181.021890032807	6
0	5854	1181.760527537109	5
0	5858	1181.780654063376	6
0	5861	1181.96684652617	5
0	5867	1182.133216407361	6
0	5872	1184.066231347508	5
0	5876	1185.219858714826	6
0	5879	1186.679327572639	5
0	5884	1186.838835820894	4
0	5890	1188.628511624079	3
0	5896	1189.793424116318	4
0	5897	1190.05758231471	3
0	5903	1191.074241192436	4
0	5906	1191.841384510676	3
0	5910	1192.580280450356	4
0	5913	1193.066452185161	3
0	5918	1194.60249812194	2
0	5922	1194.757932509816	3
0	5925	1195.082347840718	2
0	5929	1195.670813450123	3
0	5931	1197.608370468008	4
0	5933	1198.531695142708	5
0	5937	1199.572194073723	6
0	5940	1200.03489301447	5
0	5944	1200.129232618482	6
0	5947	1201.340161580868	5
0	5953	1202.609053842414	6
0	5954	1202.752094849293	5
0	5960	1202.869703230027	6
0	5962	1203.398768258099	7
0	5965	1204.579269152318	8
0	5966	1204.786596192701	7
0	5973	1205.066852217352	6
0	5977	1205.297165353819	7
0	5983	1205.576724240609	8
0	5984	1206.878571573327	7
0	5991	1208.0045518656	6
0	5997	1209.028806365211	5
0	6003	1209.196334994989	6
0	6007	1210.483060363437	5
0	6012	1210.863728153997	4
0	6016	1211.391838204276	5
0	6018	1211.470106423446	6
0	6021	1212.585408156827	5
0	6026	1212.647981058616	4
0	6032	1213.440514770512	3
0	6038	1213.799739164306	4
0	6040	1215.106285606276	5
0	6041	1215.291030151097	4
0	6045	1215.752045771136	5
0	6047	1216.137859813962	6
0	6049	1217.390001229525	7
0	6052	1218.195949787579	6
0	6056	1220.348723003857	7
0	6058	1221.02685947371	8
0	6063	1225.735383801227	9
0	6064	1226.320347467271	8
0	6069	1226.419219113046	7
0	6073	1226.421219591569	8
0	6077	1227.166802694623	9
0	6078	1227.353500540242	8
0	6084	1229.211895785465	9
0	6085	1230.250170203407	8
0	6090	1233.184300320924	7
0	6094	1233.573044220731	8
0	6099	1235.644484272875	7
0	6104	1236.705246358897	6
0	6108	1237.218816171155	7
0	6110	1239.883587695855	8
0	6113	1243.242881659661	7
0	6117	1244.356872076476	8
0	6124	1245.018620950669	9
0	6125	1245.408339187741	8
0	6131	1245.651588448618	9
0	6134	1246.414112053634	8
0	6139	1246.780693841698	7
0	6145	1246.930201549614	8
0	6146	1246.952568175191	7
0	6151	1247.091798753756	6
0	6157	1249.955210227283	7
0	6160	1253.130448732571	6
0	6165	1254.043196221242	5
0	6172	1257.660437867768	4
0	6176	1258.237918742922	5
0	6178	1258.490325058691	6
0	6181	1259.333808839758	5
0	6185	1260.625903860934	6
0	6187	1260.975736972672	7
0	6191	1261.765864076592	8
0	6192	1262.749900557645	7
0	6196	1263.059763925234	8
0	6198	1263.301318634998	9
0	6201	1263.513908148514	8
0	6206	1263.804067653663	7
0	6212	1265.0447429902	8
0	6214	1265.085892243219	9
0	6215	1265.412974588425	8
0	6219	1265.768684623004	9
0	6221	1265.836209236523	10
0	6226	1266.539267319715	9
0	6231	1266.882373289426	8
0	6239	1267.030803389134	9
0	6241	1267.714136775296	10
0	6243	1268.451719686406	11
0	6245	1268.477113291974	12
0	6246	1268.708948144268	11
0	6252	1269.413186826212	12
0	6254	1270.420409370789	11
0	6261	1271.31960468579	10
0	6269	1274.087315184933	9
0	6274	1274.608959355808	8
0	6278	1275.477693083914	9
0	6281	1276.183976750582	8
0	6290	1276.886826680218	7
0	6297	1277.990224544549	8
0	6301	1280.435044567782	9
0	6304	1280.96109129474	8
0	6310	1281.080699516997	9
0	6311	1281.353933886019	8
0	6316	1281.593333818838	7
0	6323	1282.143070345317	6
0	6327	1284.794098384417	7
0	6331	1287.03106767229	8
0	6332	1287.194861611238	7
0	6336	1287.270866200421	8
0	6339	1287.991398142739	7
0	6343	1288.37615073056	8
0	6346	1288.667957857704	7
0	6352	1289.817843835833	6
0	6357	1290.200047221528	5
0	6364	1291.559003807751	4
0	6368	1292.838900580725	5
0	6373	1293.411118595544	4
0	6379	1293.799442239991	5
0	6382	1294.305667437689	4
0	6387	1294.721971234993	3
0	6393	1295.347632716162	4
0	6394	1295.534756517471	3
0	6398	1295.763565277985	4
0	6401	1297.21012931506	3
0	6406	1298.468824342213	2
0	6411	1299.899389753544	1
0	6415	1300.826907443683	2
0	6418	1302.411510343629	1
0	6426	1305.828326315269	2
0	6431	1307.774850215608	3
0	6432	1308.181989099779	2
0	6439	1309.618845542335	1
0	6445	1309.959836466455	2
0	6446	1310.589338204317	1
0	6451	1310.746083155863	0
0	6482	1314.595247215556	1
0	6483	1314.77442219828	0
0	6506	1320.117973134734	1
0	6509	1320.525991051962	2
0	6510	1320.732995765741	1
0	6517	1322.946854437137	2
0	6518	1323.717181589305	1
0	6526	1323.912947928113	2
0	6527	1324.079539248731	1
0	6532	1325.515103761753	0
0	6538	1326.634621141059	1
0	6540	1326.832935979336	2
0	6541	1326.993984876847	1
0	6545	1327.734768828334	2
0	6550	1328.995586685598	3
0	6554	1329.783835115157	4
0	6555	1330.506670471055	3
0	6562	1331.125548005554	2
0	6567	1331.3696588547	1
0	6572	1332.116508908003	0
0	6576	1333.288990542841	1
0	6578	1333.360962949149	2
0	6580	1333.438683178362	3
0	6584	1334.082147055394	2
0	6590	1334.304114414793	3
0	6594	1334.672587484669	4
0	6596	1335.285761806431	5
0	6598	1335.732175203764	6
0	6603	1336.278242382844	5
0	6607	1340.087010821445	6
0	6610	1340.999899891789	5
0	6616	1342.063312803808	4
0	6621	1343.23596809503	3
0	6626	1344.25193682698	2
0	6633	1346.796341634293	1
0	6637	1346.935444380186	2
0	6639	1346.956582611619	3
0	6647	1348.617515573817	4
0	6648	1349.150871828278	3
0	6653	1349.895647093509	2
0	6657	1350.832572801723	3
0	6660	1353.106820061285	2
0	6664	1353.127004731328	3
0	6668	1353.283710324001	4
0	6669	1353.694268777657	3
0	6673	1354.087911569905	4
0	6675	1354.582212200689	5
0	6677	1354.929585785257	6
0	6682	1356.080158935986	7
0	6685	1357.408103923975	8
0	6686	1357.797342803337	7
0	6691	1358.010247000889	6
0	6696	1358.252695122435	5
0	6701	1359.735944053617	4
0	6705	1360.565229279522	5
0	6707	1360.983300172139	6
0	6710	1361.269288965512	5
0	6714	1361.793630105542	6
0	6721	1363.126789973475	5
0	6728	1365.6338295676	6
0	6732	1366.089632972849	7
0	6734	1366.328465237534	8
0	6735	1366.514652307409	7
0	6744	1369.315152406569	6
0	6750	1369.565138238462	5
0	6756	1370.082976411075	6
0	6758	1370.390865501897	7
0	6760	1370.648700155963	8
0	6761	1371.309067396775	7
0	6767	1371.406122228054	8
0	6769	1371.857247703468	9
0	6770	1374.129243667002	8
0	6774	1374.151505719873	9
0	6780	1375.588491062037	10
0	6781	1375.786625197922	9
0	6785	1376.285306459325	10
0	6787	1376.920256991078	11
0	6790	1378.732848965298	10
0	6795	1380.602847005244	9
0	6800	1381.095451221851	8
0	6804	1381.572004566962	9
0	6806	1383.2108005924	10
0	6808	1383.29444250254	11
0	6810	1384.099625210227	12
0	6812	1385.63619869887	13
0	6815	1386.960320620505	12
0	6820	1387.637902589023	11
0	6825	1388.222132167677	10
0	6829	1388.237153980323	11
0	6834	1391.899051681146	10
0	6838	1391.976319969105	11
0	6840	1392.373470518733	12
0	6845	1392.981762609174	13
0	6846	1393.141645250591	12
0	6851	1393.147551991434	11
0	6856	1394.225919921646	10
0	6863	1395.793330931044	9
0	6868	1396.192333502526	8
0	6872	1396.401180165528	9
0	6874	1396.82553661852	10
0	6878	1397.862251544338	11
0	6880	1397.8804185707	12
0	6887	1399.835418694604	11
0	6892	1400.483294979312	10
0	6896	1400.912432401838	11
0	6902	1402.576368477659	12
0	6909	1406.541367430232	11
0	6914	1407.349705968246	10
0	6918	1407.98199157701	11
0	6921	1408.21070363497	10
0	6926	1408.573420763823	9
0	6932	1411.424738822742	10
0	6933	1412.000177139366	9
0	6937	1412.213341665273	10
0	6939	1413.519249526138	11
0	6944	1414.431371339046	12
0	6945	1414.447005044605	11
0	6950	1414.576182124216	10
0	6956	1414.951456162563	11
0	6962	1417.556843074873	10
0	6967	1417.841133397042	9
0	6972	1418.445705817286	8
0	6976	1418.607593788276	9
0	6980	1419.853407049691	8
0	6986	1419.953399699041	7
0	6991	1419.978825395053	6
0	6995	1420.37478907323	7
0	6998	1420.891845605432	6
0	7004	1421.550460620583	7
0	7005	1421.62379093566	6
0	7015	1422.808858155302	7
0	7019	1426.138135423641	8
0	7020	1428.627092747441	7
0	7026	1429.370981085178	6
0	7032	1429.683395275876	7
0	7036	1430.682613508502	8
0	7037	1430.860932748617	7
0	7042	1432.60214485232	6
0	7047	1435.181074693408	5
0	7052	1437.20416530341	4
0	7057	1438.475569711354	3
0	7063	1440.578093439503	2
0	7068	1440.903363096269	1
0	7072	1440.929184893637	2
0	7074	1442.252314262291	3
0	7080	1443.98216951267	4
0	7081	1444.291275718109	3
0	7088	1445.24488486512	2
0	7094	1445.430039763232	3
0	7095	1445.927196441815	2
0	7101	1446.959548938953	1
0	7106	1447.249591021724	0
0	7128	1452.603420636725	1
0	7132	1452.777355052814	2
0	7134	1453.046059834376	3
0	7135	1453.744623055172	2
0	7142	1454.357282058158	3
0	7144	1455.399480998325	2
0	7148	1456.1060726582	3
0	7154	1457.954030172646	4
0	7155	1458.247807280007	3
0	7161	1458.299339600642	4
0	7163	1459.630990016674	5
0	7165	1459.984907439475	6
0	7166	1460.102127099246	5
0	7171	1460.440684208516	4
0	7177	1461.216640015689	5
0	7178	1462.428960769519	4
0	7182	1463.327283829115	5
0	7185	1465.279063603019	4
0	7192	1466.807039321257	3
0	7196	1466.932123552807	4
0	7198	1467.511189998482	5
0	7200	1467.948926846104	6
0	7205	1469.032645109112	5
0	7210	1469.984392489589	4
0	7217	1471.215318702706	3
0	7221	1473.131724808933	4
0	7225	1473.598367667523	5
0	7227	1473.826048438318	6
0	7229	1473.832273639554	7
0	7233	1474.178813709912	8
0	7234	1474.507197844184	7
0	7240	1475.542897679014	8
0	7241	1475.55559084308	7
0	7245	1476.035906161652	8
0	7253	1478.145534311719	9
0	7255	1478.626614085937	10
0	7256	1478.710920777222	9
0	7264	1479.375698907588	10
0	7265	1479.698124544638	9
0	7270	1481.114203079851	8
0	7278	1481.41194877259	9
0	7279	1481.703383876522	8
0	7286	1481.986942121496	7
0	7290	1482.002732507327	8
0	7292	1483.498150426031	9
0	7296	1484.955862615358	10
0	7297	1485.875052414595	9
0	7303	1487.428586462476	10
0	7304	1487.450964008714	9
0	7311	1488.207847808809	8
0	7317	1488.875325970087	9
0	7319	1489.031481217934	10
0	7321	1489.780346492044	9
0	7327	1489.954748877168	8
0	7333	1490.430685766316	7
0	7338	1490.520828067604	6
0	7344	1492.003272070844	5
0	7349	1492.332516343762	4
0	7356	1493.693089024645	5
0	7358	1493.737517385676	6
0	7360	1493.754226320188	7
0	7361	1494.143963079191	6
0	7366	1494.259355095915	5
0	7374	1495.499564862005	6
0	7376	1495.544959663782	7
0	7380	1495.890017756274	8
0	7381	1497.247052925056	7
0	7388	1497.835382978899	6
0	7394	1498.964762841441	5
0	7399	1499.334242955853	4
0	7404	1500.102656125935	3
0	7411	1501.411238258928	2
0	7416	1502.251569018828	1
0	7424	1505.876511626763	0
0	7430	1506.781821280308	1
0	7431	1506.877713433065	0
0	7437	1507.112814344776	1
0	7438	1507.44975237665	0
0	7473	1511.506610389483	1
0	7476	1512.029131794555	0
0	7488	1514.363843125782	1
0	7489	1515.427836155378	0
0	7498	1516.286061538228	1
0	7502	1517.187639547134	0
0	7506	1517.646419665972	1
0	7509	1519.029098725236	0
0	7526	1521.836701948662	1
0	7530	1522.958006357635	2
0	7534	1524.415633248103	3
0	7539	1526.169113721778	2
0	7545	1526.706274928799	1
0	7550	1526.963175975629	0
0	7554	1527.18816408762	1
0	7556	1529.526138964057	2
0	7561	1529.873334604518	1
0	7565	1530.096544487792	2
0	7567	1530.931943762696	3
0	7572	1532.206692440479	2
0	7578	1533.402892074399	3
0	7579	1533.570450554279	2
0	7583	1534.67254438492	3
0	7586	1534.839918220576	2
0	7591	1536.090470444953	1
0	7597	1536.421455245901	2
0	7600	1537.094927876547	1
0	7605	1537.312368034291	0
0	7618	1538.746436017295	1
0	7619	1538.996248863378	0
0	7631	1540.012320387342	1
0	7632	1541.390355426248	0
0	7646	1543.689226641217	1
0	7648	1543.828451926308	2
0	7650	1544.787523954821	3
0	7651	1545.761368335831	2
0	7656	1546.457927889202	1
0	7662	1548.27154358679	0
0	7668	1549.576744116552	1
0	7671	1550.740243899145	0
0	7675	1551.52018286807	1
0	7679	1553.108688737996	0
0	7686	1554.369377727581	1
0	7687	1554.535845950261	0
0	7712	1563.012908374734	1
0	7718	1567.247149674666	0
0	7732	1568.357503583517	1
0	7734	1568.418430137552	2
0	7738	1569.146582450966	3
0	7740	1569.559072324801	2
0	7745	1569.843267214953	1
0	7751	1570.220256176837	0
0	7755	1570.242366813867	1
0	7760	1571.847837378253	0
0	7783	1576.615910607106	1
0	7784	1577.067952432301	0
0	7790	1577.377952117123	1
0	7792	1578.210308960284	0
0	7796	1580.975366900222	1
0	7798	1581.464696247862	2
0	7800	1582.241413784957	3
0	7804	1582.366208923799	4
0	7807	1582.460962675026	5
0	7809	1583.074109637045	6
0	7811	1584.545350162987	5
0	7817	1584.974980289075	4
0	7823	1585.350648545819	5
0	7824	1585.369179294996	4
0	7828	1585.852893489458	5
0	7833	1586.630737547914	4
0	7837	1587.167673668794	5
0	7841	1587.758584671261	4
0	7847	1587.932361002309	5
0	7849	1588.049503493456	6
0	7854	1588.500975022618	7
0	7855	1588.543670273364	6
0	7860	1590.682106345254	5
0	7865	1590.904242196763	4
0	7872	1593.416087376259	3
0	7876	1593.662512135317	4
0	7885	1596.569577248156	5
0	7886	1596.727723458278	4
0	7891	1596.768317570351	3
0	7895	1596.820393491168	4
0	7897	1596.823637423898	5
0	7901	1597.497327500779	6
0	7902	1597.845650148733	5
0	7907	1598.311620717737	4
0	7912	1600.39338834328	3
0	7919	1602.222368603029	2
0	7930	1605.928940333011	1
0	7934	1606.519942729788	2
0	7936	1607.063135389016	3
0	7939	1608.88388491495	2
0	7944	1609.372587492902	1
0	7950	1609.650190716255	2
0	7952	1609.997951022416	1
0	7957	1610.68943851206	0
0	7968	1610.923242531648	1
0	7969	1611.405016893766	0
0	7973	1613.048817235024	1
0	7975	1613.271321861125	2
0	7981	1614.405155638676	3
0	7984	1614.859371155781	2
0	7989	1615.740060220634	1
0	7994	1616.567401457881	0
0	8008	1618.373556352617	1
0	8009	1618.532940171015	0
0	8013	1619.241922827156	1
0	8016	1620.043611831456	0
0	8038	1623.230119864595	1
0	8043	1624.404417072427	0
0	8051	1627.276017466097	1
0	8053	1627.975044758914	2
0	8055	1628.873834903919	1
0	8060	1629.106461977912	0
0	8086	1632.365097041763	1
0	8088	1633.113834079908	0
0	8097	1634.250120099397	1
0	8099	1634.902060342855	2
0	8101	1635.317126252643	1
0	8106	1635.608272315793	0
0	8128	1637.908097446712	1
0	8129	1638.06120455485	0
0	8143	1639.361742893215	1
0	8146	1640.177654444077	2
0	8148	1640.210851460652	3
0	8150	1640.870501334682	2
0	8156	1641.134816556668	3
0	8157	1641.710269620922	2
0	8162	1642.083776122681	1
0	8166	1642.101223623533	2
0	8169	1643.951791101824	1
0	8175	1644.123180430941	2
0	8178	1645.285353319138	3
0	8179	1646.280645064815	2
0	8184	1646.32068346285	1
0	8192	1646.647704554801	2
0	8195	1647.381106773296	1
0	8200	1648.496446498268	0
0	8225	1652.947957759092	1
0	8227	1652.96294171919	2
0	8232	1655.077615595	3
0	8235	1656.283864544714	4
0	8239	1657.514842943451	5
0	8243	1659.228789631206	6
0	8244	1659.549654757477	5
0	8250	1660.348690340974	6
0	8251	1660.458360476003	5
0	8256	1660.940166332784	4
0	8263	1661.809398772708	3
0	8267	1662.27073809666	4
0	8270	1663.030299853255	3
0	8274	1663.368218111476	4
0	8276	1663.565214828173	5
0	8279	1665.025155317542	4
0	8285	1666.13611975726	5
0	8289	1666.858544785406	4
0	8294	1667.030658496168	3
0	8298	1667.176399551134	4
0	8301	1667.963580618196	3
0	8305	1668.842755288495	4
0	8308	1669.553288866441	3
0	8315	1670.184153397877	4
0	8316	1670.600687113973	3
0	8324	1672.572918430697	2
0	8329	1672.658195261364	1
0	8335	1673.573323300327	2
0	8337	1674.158902249776	3
0	8338	1674.216903135035	2
0	8344	1674.841367741233	1
0	8350	1675.772366098056	2
0	8352	1677.070965828274	3
0	8354	1677.103768641922	4
0	8356	1679.652830406888	5
0	8358	1679.765310830705	6
0	8359	1680.419416361358	5
0	8363	1680.584377928645	6
0	8366	1680.852732029145	5
0	8372	1681.425096892007	6
0	8378	1683.016065473512	5
0	8388	1684.689609732783	6
0	8389	1685.973107892773	5
0	8394	1686.19187309231	4
0	8400	1686.263074633397	5
0	8401	1686.480941565011	4
0	8406	1687.351243653804	3
0	8410	1687.383813743945	4
0	8413	1687.871804174202	3
0	8417	1688.620416600374	4
0	8420	1690.358828518852	3
0	8425	1691.142879691039	2
0	8433	1693.808706750608	3
0	8437	1694.453992067359	4
0	8440	1695.0650434015	3
0	8446	1695.799586282993	4
0	8447	1695.895146556089	3
0	8452	1697.451590934346	2
0	8458	1697.883577814818	3
0	8459	1698.038135370267	2
0	8464	1699.22332577212	1
0	8468	1699.556236521668	2
0	8470	1700.551598568066	3
0	8473	1701.665277976363	2
0	8479	1703.459038441449	3
0	8480	1703.87225113184	2
0	8485	1704.223168699063	1
0	8489	1704.993663013534	2
0	8491	1705.104585613012	3
0	8495	1705.768958688973	4
0	8497	1706.519685199688	5
0	8499	1708.1308826774	6
0	8501	1708.930457447961	7
0	8507	1710.494956270382	8
0	8508	1710.85892443721	7
0	8517	1715.208014199594	6
0	8523	1716.159453759532	7
0	8525	1716.31048374386	8
0	8527	1717.075746956491	9
0	8531	1718.396909810841	10
0	8532	1718.401556304072	9
0	8536	1718.853624320152	10
0	8539	1721.048470296085	9
0	8545	1723.564982770935	10
0	8549	1726.206255065666	11
0	8550	1726.673712195717	10
0	8554	1728.194292713699	11
0	8556	1728.366075129563	12
0	8560	1728.965538217813	13
0	8561	1729.4948062335	12
0	8571	1732.440277045359	13
0	8574	1735.337470900708	12
0	8579	1736.464182155679	11
0	8585	1738.651257405571	12
0	8587	1740.127403471115	13
0	8589	1741.417449769324	14
0	8592	1741.779301430145	13
0	8599	1743.000579347599	12
0	8604	1743.288281331973	11
0	8609	1744.783947628869	10
0	8614	1744.955820308669	9
0	8621	1746.49352798345	8
0	8631	1749.386242666939	7
0	8636	1749.700439361497	6
0	8641	1750.594610751987	5
0	8645	1750.714558600389	6
0	8648	1751.37495571889	5
0	8654	1752.903585944263	6
0	8656	1753.289559007267	7
0	8658	1754.550292525377	8
0	8661	1754.896813473419	7
0	8667	1756.64186490286	6
0	8672	1757.79810186243	5
0	8677	1758.099631173359	4
0	8682	1758.91042333523	3
0	8688	1761.861182973108	4
0	8689	1762.338967773092	3
0	8693	1762.409178454708	4
0	8695	1762.827142205795	5
0	8697	1763.129535973117	6
0	8701	1766.177072660812	7
0	8702	1767.45260612275	6
0	8707	1768.18809047536	5
0	8712	1768.554133635436	4
0	8716	1769.318364137151	5
0	8720	1771.07640767817	4
0	8727	1773.553022716206	3
0	8731	1774.953534450349	4
0	8734	1775.906377501145	3
0	8740	1776.969286736656	4
0	8743	1777.502394851361	5
0	8744	1777.973663382379	4
0	8750	1778.681484174327	5
0	8751	1779.112114213283	4
0	8755	1780.307408853812	5
0	8757	1780.334105390409	6
0	8759	1780.552471700314	7
0	8762	1781.759686989761	6
0	8771	1783.421826448897	5
0	8775	1784.41397717686	6
0	8777	1784.743203792706	7
0	8779	1784.801601381378	8
0	8782	1786.329346634427	7
0	8787	1787.607773552446	6
0	8791	1787.723939588945	7
0	8795	1787.933717906513	8
0	8797	1787.994824422501	9
0	8798	1788.567748447075	8
0	8803	1790.030760936338	7
0	8808	1790.363556967255	6
0	8814	1792.922004068831	7
0	8816	1795.929139750401	8
0	8817	1795.955745034026	7
0	8821	1796.439912938729	8
0	8824	1798.207983894481	7
0	8831	1799.692001758902	6
0	8837	1799.879221403917	7
0	8838	1799.985785436935	6
0	8848	1801.750263402151	5
0	8853	1801.774574220254	4
0	8859	1803.137025847504	5
0	8862	1804.514549509528	4
0	8867	1806.364042785369	3
0	8876	1807.668484210048	2
0	8880	1808.481709663795	3
0	8883	1809.058910005404	2
0	8890	1812.524688276539	1
0	8894	1812.652088537349	2
0	8898	1814.302423734673	3
0	8902	1815.001915754748	4
0	8903	1815.764885457786	3
0	8907	1816.634199197048	4
0	8911	1817.194158644624	5
0	8914	1818.280046699937	6
0	8915	1818.492414640278	5
0	8922	1819.469031780915	4
0	8926	1820.576917164991	5
0	8929	1820.882192005016	4
0	8935	1824.739811219683	5
0	8938	1825.559975716668	4
0	8944	1827.339426318858	5
0	8948	1828.003680857378	4
0	8953	1828.456326058259	3
0	8962	1830.779257722892	4
0	8963	1830.805970661266	3
0	8968	1831.998902164506	2
0	8977	1834.798162180141	1
0	8985	1836.10577727483	2
0	8990	1837.322468551823	3
0	8991	1837.901684944235	2
0	8997	1838.032321703257	3
0	8998	1838.515356083335	2
0	9003	1839.233644605742	1
0	9007	1839.841702366152	2
0	9010	1841.648414509046	1
0	9014	1842.412647372507	2
0	9016	1843.007279904355	3
0	9021	1844.595245019531	2
0	9025	1844.610656977416	3
0	9027	1844.843250735079	4
0	9031	1846.220544921284	5
0	9032	1846.353593131482	4
0	9036	1846.423127939417	5
0	9040	1846.997761997365	6
0	9042	1847.30337913429	7
0	9044	1848.678565630607	6
0	9050	1849.035591191164	5
0	9057	1850.261507018804	4
0	9064	1851.345312027651	3
0	9069	1851.838214634082	2
0	9077	1852.665935378994	1
0	9082	1852.883739598746	0
0	9089	1853.401184114664	1
0	9090	1854.361936377814	0
0	9128	1859.922905108249	1
0	9134	1861.493365564323	2
0	9137	1865.153189347333	1
0	9143	1865.184770574063	2
0	9146	1865.82984533114	3
0	9147	1867.0747974471	2
0	9153	1868.336073380866	1
0	9158	1868.757225615442	0
0	9174	1869.667627583174	1
0	9177	1871.013420224063	0
0	9183	1871.296489471566	1
0	9186	1871.773863820384	0
0	9190	1871.873403218414	1
0	9194	1873.438735288831	2
0	9197	1873.755596423216	1
0	9201	1873.969726702807	2
0	9204	1875.698329755873	1
0	9208	1876.504436084751	2
0	9211	1877.940103551326	1
0	9219	1880.616448916209	2
0	9222	1881.368813680367	3
0	9224	1881.74627156087	4
0	9226	1881.769849884361	5
0	9228	1881.928085684883	6
0	9229	1882.396957882384	5
0	9235	1882.489628361478	4
0	9241	1882.642482174963	5
0	9242	1882.729216477577	4
0	9247	1883.598483945364	3
0	9255	1884.827473068831	4
0	9257	1885.184821573234	3
0	9264	1885.368445901365	2
0	9273	1887.456486310983	1
0	9277	1887.669731910326	2
0	9280	1888.015690412657	1
0	9286	1890.001341823191	2
0	9287	1890.203257190257	1
0	9293	1892.202146775485	0
0	9299	1892.256797904484	1
0	9300	1892.298539985729	0
0	9304	1892.831035272823	1
0	9308	1894.921084723788	2
0	9311	1896.042609667097	1
0	9316	1896.275104915806	0
0	9323	1897.192978336657	1
0	9324	1897.254745599047	0
0	9337	1898.390238288482	1
0	9339	1898.545351762313	2
0	9341	1898.697547027411	3
0	9342	1898.735006789578	2
0	9350	1899.753766459511	1
0	9355	1901.202345119452	0
0	9359	1901.341787472458	1
0	9361	1901.654594397828	2
0	9363	1901.69922912239	3
0	9365	1902.387208592696	4
0	9369	1903.6573036263	5
0	9370	1904.283323973336	4
0	9374	1905.704232005912	5
0	9378	1906.170540555565	6
0	9380	1906.202934782829	7
0	9384	1906.959638133717	6
0	9389	1906.998005006683	5
0	9396	1911.220482265457	4
0	9401	1911.634010309976	3
0	9408	1913.277073789968	2
0	9418	1919.777181151371	1
0	9424	1919.928882746448	2
0	9428	1920.542370864695	1
0	9434	1920.741962857681	0
0	9461	1923.903712558635	1
0	9464	1925.219865261981	0
0	9490	1927.934331736727	1
0	9492	1928.315067045721	2
0	9494	1928.810803660617	3
0	9498	1930.12491750494	2
0	9504	1931.149238866501	1
0	9509	1931.610144888772	0
0	9537	1935.277151421271	1
0	9538	1935.371570470323	0
0	9553	1937.919429480987	1
0	9555	1939.591828814164	2
0	9558	1940.549618333846	1
0	9563	1940.782516050593	0
0	9582	1942.506576623013	1
0	9583	1942.756678684603	0
0	9589	1942.836670552056	1
0	9590	1943.581039512646	0
0	9598	1944.165032626283	1
0	9600	1944.627486510636	0
0	9625	1950.371893516399	1
0	9629	1951.378472344499	0
0	9637	1952.705639912896	1
0	9640	1953.107829344474	0
0	9653	1954.221883461778	1
0	9654	1954.505907404919	0
0	9691	1963.248619491824	1
0	9693	1963.320880627892	2
0	9695	1963.717812990895	3
0	9698	1965.011224183214	2
0	9703	1965.494735261397	1
0	9710	1968.130034203729	0
0	9718	1969.728600848992	1
0	9719	1969.813776409838	0
0	9723	1970.238196861889	1
0	9731	1971.960769404797	2
0	9732	1973.650292553779	1
0	9738	1975.417159938429	2
0	9739	1976.898778884877	1
0	9749	1978.593011960013	0
0	9756	1979.76488691952	1
0	9757	1980.332847475148	0
0	9783	1982.664234171944	1
0	9785	1982.772971115583	2
0	9787	1983.740852481382	3
0	9789	1984.289582152587	4
0	9795	1985.98193861674	5
0	9796	1986.018820774083	4
0	9801	1986.550602293748	3
0	9807	1987.275015881094	4
0	9810	1988.633306020506	3
0	9818	1990.333391271433	4
0	9821	1992.143501585097	3
0	9827	1992.193284340867	4
0	9829	1992.434768157956	5
0	9831	1993.761346490527	6
0	9832	1994.600565397671	5
0	9837	1994.963702179536	4
0	9845	1996.255198856561	3
0	9853	1996.496102737272	4
0	9854	1996.788988836418	3
0	9859	1997.528415717778	2
0	9863	1997.573727259783	3
0	9867	2000.002254566376	4
0	9870	2000.487987942995	3
0	9877	2002.018891592394	2
0	9882	2003.54539960137	1
0	9890	2004.422630158111	2
0	9892	2004.822762291505	3
0	9893	2004.823789978104	2
0	9898	2005.332369832632	1
0	9904	2005.886147709671	2
0	9906	2006.808582054811	1
0	9912	2007.613252392442	2
0	9914	2008.999082358776	3
0	9915	2009.12337826734	2
0	9919	2012.471093126322	3
0	9923	2014.343253876065	4
0	9924	2014.437886890335	3
0	9929	2015.606345153254	2
0	9935	2016.318557123717	1
0	9940	2016.919515036919	0
0	9946	2018.356062652497	1
0	9951	2019.104841637748	0
0	10004	2027.258766331917	1
0	10008	2028.547091972957	2
0	10011	2029.714294024268	1
0	10018	2030.067236123877	0
0	10029	2030.826479456232	1
0	10033	2031.38645277673	0
0	10039	2031.41897647896	1
0	10041	2032.127051676621	2
0	10043	2032.22536813114	3
0	10045	2032.320176761873	4
0	10046	2032.363716217136	3
0	10051	2033.608904641002	2
0	10057	2034.130089016027	3
0	10059	2034.564425708433	4
0	10061	2035.200906482672	5
0	10062	2035.739164172948	4
0	10067	2036.071212811418	3
0	10071	2036.512663398179	4
0	10076	2037.305290464784	5
0	10078	2037.547071009928	4
0	10083	2037.631031165157	3
0	10091	2037.776936091767	4
0	10093	2039.439295503699	5
0	10094	2039.881027445073	4
0	10099	2041.762486086973	3
0	10105	2042.156275727444	4
0	10107	2043.40307927388	5
0	10109	2045.41978844062	6
0	10110	2045.935430541809	5
0	10114	2047.913721400174	6
0	10117	2048.167819255791	5
0	10122	2048.635222687694	4
0	10130	2049.744750285377	5
0	10132	2050.341547886184	6
0	10134	2050.497624545984	7
0	10137	2051.822552250971	6
0	10141	2051.893017876916	7
0	10143	2052.370455916264	8
0	10145	2053.065536600439	9
0	10155	2054.465551047538	10
0	10157	2055.097062037615	11
0	10158	2055.287408458234	10
0	10162	2055.448957424434	11
0	10167	2057.570564086559	10
0	10171	2057.658050637281	11
0	10174	2057.989394600591	10
0	10178	2058.5924810524	11
0	10184	2060.02908551384	10
0	10189	2060.937281510295	9
0	10194	2062.401839915975	8
0	10198	2064.585987045856	9
0	10200	2064.863542084386	10
0	10202	2065.135548291715	11
0	10207	2065.527065051614	10
0	10211	2066.985803238508	11
0	10213	2067.182855216292	12
0	10218	2068.015269630469	11
0	10223	2068.688939907042	10
0	10235	2070.788208673714	9
0	10241	2070.938717216753	10
0	10242	2071.237297877063	9
0	10249	2072.235009170403	8
0	10256	2075.347730891486	7
0	10261	2076.038389932483	6
0	10269	2079.417453746052	7
0	10272	2080.016614772719	6
0	10276	2080.223922032562	7
0	10278	2081.126395968391	8
0	10280	2081.944498833566	9
0	10282	2082.582363617269	10
0	10285	2082.718918411464	9
0	10290	2083.506891667432	8
0	10295	2083.791441068802	7
0	10301	2085.48874896811	8
0	10302	2085.571717680976	7
0	10306	2085.936600993222	8
0	10308	2086.757278179966	9
0	10313	2088.386492172355	8
0	10317	2088.743128240634	9
0	10324	2091.562089743945	8
0	10329	2091.5831789103	7
0	10335	2092.229075200209	8
0	10336	2092.976002950842	7
0	10340	2093.770427331167	8
0	10342	2095.049190476971	9
0	10344	2095.697788223337	10
0	10349	2097.290757822915	9
0	10354	2097.424313172513	8
0	10361	2098.278275103239	9
0	10362	2098.444272465865	8
0	10368	2098.584378448044	9
0	10369	2099.065862238822	8
0	10375	2100.149353160323	9
0	10378	2100.423369215583	8
0	10386	2101.967755095517	9
0	10389	2102.920043803021	8
0	10394	2103.451329886707	7
0	10398	2104.190114894515	8
0	10400	2104.492725211764	9
0	10406	2105.719743950259	10
0	10407	2105.877070468372	9
0	10413	2105.916011032252	10
0	10415	2106.081828740007	9
0	10420	2106.729046733778	8
0	10427	2107.223788988872	9
0	10429	2107.329797678141	10
0	10431	2107.617153434452	11
0	10434	2107.908377704024	12
0	10435	2108.376972441913	11
0	10440	2108.668355337728	10
0	10447	2109.935693968168	9
0	10452	2110.530827779196	8
0	10458	2111.019972100635	7
0	10464	2111.806405619788	6
0	10469	2112.029077958496	5
0	10473	2112.564413156375	6
0	10476	2113.107484579485	5
0	10480	2115.007813379639	6
0	10484	2116.837693333831	5
0	10491	2117.903656466585	4
0	10495	2118.047543832909	5
0	10498	2118.248400945549	4
0	10505	2118.873169236694	3
0	10513	2121.940255807563	4
0	10514	2121.959563623231	3
0	10520	2122.293731058126	4
0	10521	2123.600075221314	3
0	10528	2126.581378721578	2
0	10534	2127.460502827421	3
0	10536	2127.590397546314	4
0	10539	2129.5591824562	3
0	10545	2130.369451743774	4
0	10546	2130.377503296618	3
0	10551	2130.784061701478	2
0	10556	2131.127679035836	1
0	10560	2131.880101491616	2
0	10564	2133.36923680541	3
0	10566	2133.711029289725	4
0	10568	2134.213095476051	3
0	10576	2136.624729338475	4
0	10577	2136.716344467645	3
0	10590	2141.439182162384	4
0	10591	2142.315664484064	3
0	10597	2143.215484222389	2
0	10602	2143.317210245115	1
0	10607	2143.556525533941	0
0	10637	2149.80679583353	1
0	10638	2150.057188063206	0
0	10656	2153.383996202243	1
0	10658	2155.294286520272	2
0	10659	2155.421204678541	1
0	10665	2155.78606124197	0
0	10692	2158.573340201565	1
0	10694	2158.590634920044	2
0	10698	2159.052617731439	3
0	10700	2159.589671237773	2
0	10707	2159.744023706033	1
0	10712	2160.426537569563	0
0	10718	2161.054689774615	1
0	10720	2161.283297606345	2
0	10725	2161.742189954748	3
0	10726	2161.85269964958	2
0	10732	2162.074910838975	3
0	10739	2163.276507514773	4
0	10740	2163.364421801583	3
0	10745	2163.917045053614	2
0	10754	2165.980115327739	3
0	10755	2166.727171819433	2
0	10765	2167.240186629828	1
0	10771	2167.415964280707	2
0	10773	2168.431634190844	1
0	10778	2168.556438439577	0
0	10786	2169.576426618089	1
0	10788	2170.222057710062	2
0	10790	2170.258485155781	3
0	10792	2170.401354137652	4
0	10794	2170.742937405141	3
0	10799	2170.749937286834	2
0	10804	2170.934276911829	1
0	10808	2171.128057649514	2
0	10812	2172.29627829307	3
0	10815	2172.697925436084	2
0	10819	2173.944085449366	3
0	10821	2174.629293591261	4
0	10823	2174.68976409365	5
0	10825	2174.762193710996	6
0	10827	2175.524214724662	7
0	10834	2178.419720209027	6
0	10840	2178.528840099781	7
0	10842	2180.046463738069	6
0	10847	2180.233126205792	5
0	10853	2180.332603367526	6
0	10854	2180.520602739435	5
0	10859	2181.158166330711	4
0	10866	2183.190555200197	3
0	10871	2183.616028909941	2
0	10876	2183.63407186063	1
0	10881	2184.152715761957	0
0	10885	2184.975203402394	1
0	10889	2185.671913619274	2
0	10890	2186.906262947663	1
0	10895	2191.101749693333	0
0	10901	2192.881686882818	1
0	10903	2193.78264681302	2
0	10904	2194.297669724765	1
0	10909	2194.461404425154	0
0	10941	2196.413339464613	1
0	10946	2196.608462799348	2
0	10947	2196.661661213419	1
0	10952	2196.910361625836	0
0	10958	2197.888100017193	1
0	10960	2198.717542348599	0
0	10980	2203.445523367387	1
0	10981	2203.539208900351	0
0	11005	2207.486270728857	1
0	11006	2209.027740831976	0
0	11012	2209.749798681388	1
0	11013	2210.265610631695	0
0	11025	2211.241452183486	1
0	11027	2211.508770512301	2
0	11029	2212.462326270351	3
0	11035	2212.938102820453	4
0	11037	2213.481459820793	5
0	11040	2213.8245524827	6
0	11041	2213.982536784314	5
0	11046	2214.037304866506	4
0	11052	2214.437377331368	5
0	11054	2215.200529616825	4
0	11061	2216.276504365511	5
0	11062	2216.594197257915	4
0	11068	2216.691194223688	5
0	11069	2216.865085132007	4
0	11074	2219.208134159499	3
0	11080	2220.422033917681	4
0	11083	2221.038535438446	3
0	11087	2221.703595939424	4
0	11091	2221.826735437051	5
0	11094	2223.404708504214	4
0	11100	2225.323285120619	5
0	11103	2225.529100139343	4
0	11110	2227.010599868981	5
0	11111	2227.077848377196	4
0	11118	2227.632387389236	3
0	11122	2227.851848130455	4
0	11126	2228.540096876781	5
0	11128	2229.049080659003	4
0	11133	2229.65221605229	3
0	11140	2230.249351376641	4
0	11143	2230.758704220996	3
0	11148	2231.044008885707	2
0	11153	2231.579830754206	1
0	11157	2232.079062149101	2
0	11161	2234.047610151166	3
0	11163	2235.719827645103	2
0	11177	2238.09025512881	3
0	11178	2238.81815886184	2
0	11182	2239.146744741153	3
0	11186	2244.247886598052	4
0	11187	2244.37498452661	3
0	11192	2244.45274584661	2
0	11197	2245.344185459936	1
0	11202	2245.856359913641	0
0	11206	2246.085833872031	1
0	11208	2247.985646538854	2
0	11212	2248.960405574892	3
0	11213	2249.390014167552	2
0	11222	2250.967945891615	3
0	11223	2251.203480066089	2
0	11228	2251.446805575853	1
0	11232	2252.350557309965	2
0	11234	2252.646019570832	3
0	11237	2252.907424493814	2
0	11242	2254.08533476843	1
0	11249	2255.787588194087	0
0	11255	2256.287530378193	1
0	11256	2256.619733594273	0
0	11260	2257.25107877368	1
0	11264	2257.644331671939	2
0	11265	2257.995129777317	1
0	11272	2260.268091760664	0
0	11283	2261.606346561603	1
0	11284	2261.764073751323	0
0	11305	2264.933382865934	1
0	11307	2265.319692769634	2
0	11308	2265.46117732316	1
0	11313	2265.512751428062	0
0	11331	2268.940006873468	1
0	11333	2271.10174275812	2
0	11334	2272.504574037235	1
0	11338	2272.721395143222	2
0	11341	2273.306885198722	1
0	11345	2273.77531680293	2
0	11348	2275.845406001697	1
0	11353	2276.91120309552	0
0	11357	2277.000882605313	1
0	11361	2280.116106384543	0
0	11385	2282.121048414965	1
0	11388	2282.467942417024	0
0	11392	2283.132174595979	1
0	11394	2283.186414091237	2
0	11396	2283.285273398753	3
0	11398	2284.909753399549	4
0	11404	2287.749965463298	5
0	11406	2287.940119348589	6
0	11416	2289.2034295191	5
0	11423	2290.994640524278	4
0	11428	2292.024684697637	3
0	11432	2292.488390673248	4
0	11434	2293.186254929952	5
0	11437	2294.286558016171	4
0	11441	2294.38256386048	5
0	11443	2294.651968298209	6
0	11445	2294.684384815435	7
0	11447	2295.130822410785	8
0	11453	2297.215523617554	9
0	11455	2297.529980893916	8
0	11462	2298.05769804715	9
0	11464	2299.298988229349	8
0	11469	2299.856641757296	7
0	11475	2299.999181410947	8
0	11476	2302.781698886563	7
0	11480	2303.0142694071	8
0	11482	2303.295886425634	9
0	11485	2303.587920966866	8
0	11492	2304.31988477792	9
0	11495	2305.540005777842	10
0	11496	2305.614634868977	9
0	11501	2305.80163380938	8
0	11506	2306.078489034024	7
0	11512	2307.383238947416	6
0	11517	2308.088593375862	5
0	11525	2308.664858354131	6
0	11527	2308.802791685419	7
0	11529	2310.112605396235	8
0	11531	2310.508309875109	9
0	11532	2312.164597710162	8
0	11536	2312.578441676912	9
0	11541	2314.39302615287	8
0	11546	2315.001839976197	7
0	11550	2317.180975400169	8
0	11554	2318.54603041509	9
0	11555	2318.547954668102	8
0	11561	2320.391448997368	7
0	11567	2321.744861535168	6
0	11572	2321.91927648831	5
0	11576	2324.478191732437	6
0	11580	2326.561991585279	5
0	11585	2327.366008641017	4
0	11591	2329.038861675216	5
0	11592	2329.913078616931	4
0	11598	2331.453540056217	5
0	11602	2331.82246658444	6
0	11604	2332.063995975516	7
0	11605	2332.381479749076	6
0	11611	2332.645462717291	7
0	11613	2333.033340406941	6
0	11619	2333.78455651545	5
0	11624	2334.59217837248	4
0	11628	2335.525771197292	5
0	11633	2336.870566760044	4
0	11638	2337.723379974235	3
0	11643	2337.889032940203	2
0	11648	2338.509287003879	1
0	11652	2339.038867236398	2
0	11656	2339.696924616206	3
0	11657	2341.525268875379	2
0	11664	2342.215251705929	1
0	11670	2343.422713703576	2
0	11674	2345.027893305069	3
0	11678	2347.100039698723	4
0	11679	2347.223249416016	3
0	11684	2347.67023215374	2
0	11694	2349.660561132713	3
0	11696	2349.757877201551	4
0	11697	2350.138562359851	3
0	11702	2351.424613919586	2
0	11707	2352.353242210293	1
0	11713	2354.058068100455	0
0	11738	2355.014674137406	1
0	11741	2355.195971790901	2
0	11742	2355.875654289275	1
0	11750	2357.445626943976	2
0	11751	2357.4612890339	1
0	11759	2361.109228819834	2
0	11762	2361.52926419119	1
0	11767	2362.44495319766	0
0	11775	2363.658665149938	1
0	11777	2363.958162809978	2
0	11779	2364.388654606258	3
0	11781	2364.495130294883	4
0	11783	2364.593724632422	5
0	11791	2366.884633301517	4
0	11796	2366.912428435169	3
0	11802	2367.658736091842	4
0	11805	2368.251312073495	5
0	11808	2371.684935700048	4
0	11813	2371.858398828689	3
0	11819	2372.365360565203	4
0	11822	2372.898073058536	3
0	11828	2373.983060811302	2
0	11833	2374.147615198126	1
0	11839	2375.00464289457	0
0	11887	2382.487835319358	1
0	11891	2384.330991735894	0
0	11934	2392.256203538899	1
0	11936	2392.666812445071	2
0	11939	2392.971587623508	1
0	11947	2393.51621284138	2
0	11950	2394.352710798395	3
0	11953	2395.854967079482	4
0	11959	2396.214192692368	5
0	11960	2396.259363423104	4
0	11966	2396.584134966689	5
0	11971	2397.314748636497	4
0	11977	2398.049346541432	3
0	11983	2400.166588669239	4
0	11986	2400.586347181208	3
0	11991	2402.510099733369	2
0	11999	2405.082532879891	1
0	12004	2405.193263959947	0
0	12008	2405.850046896965	1
0	12010	2406.435937997338	2
0	12014	2408.079457919668	3
0	12017	2408.949982133595	2
0	12023	2409.110886462544	1
0	12028	2409.178149564064	0
0	12034	2409.463724188503	1
0	12035	2409.893820751457	0
0	12082	2416.389316822424	1
0	12086	2417.339644912421	0
0	12093	2417.579060054446	1
0	12094	2417.966899138707	0
0	12110	2418.207285558672	1
0	12113	2419.610003408912	0
0	12138	2422.922531801182	1
0	12139	2423.474196865891	0
0	12148	2424.373126887064	1
0	12150	2424.551351084617	2
0	12154	2426.132059961761	1
0	12162	2426.757341258685	2
0	12164	2429.728572590965	1
0	12170	2429.760480087572	0
0	12199	2432.697432036619	1
0	12201	2433.903102076735	0
0	12207	2434.323978197684	1
0	12209	2435.594031471151	0
0	12220	2435.916240530999	1
0	12222	2436.262136507373	2
0	12223	2437.19581914505	1
0	12228	2437.476251977792	0
0	12248	2440.579652801532	1
0	12252	2441.10400093376	2
0	12253	2441.205587673501	1
0	12259	2442.453676653033	0
0	12293	2447.217524908599	1
0	12295	2447.457714926989	0
0	12307	2448.166975028214	1
0	12309	2449.229741697731	0
0	12329	2452.305141973493	1
0	12331	2452.961578609347	2
0	12333	2454.488047737831	3
0	12336	2454.950343077431	2
0	12342	2458.097728528155	1
0	12349	2458.677635071227	0
0	12362	2460.074815277438	1
0	12363	2460.152013705458	0
0	12369	2460.528900878566	1
0	12370	2460.769956000222	0
0	12374	2461.851612951546	1
0	12377	2463.190215527343	0
0	12381	2463.246885345096	1
0	12385	2464.248280597132	2
0	12395	2465.660468070199	3
0	12397	2465.812321417734	4
0	12401	2466.521413113397	5
0	12402	2466.877113670369	4
0	12410	2467.68894596386	5
0	12412	2467.755986980679	6
0	12414	2468.267045261247	5
0	12419	2468.7746163018	4
0	12423	2468.964334025565	5
0	12426	2469.816767944089	4
0	12430	2470.357736225371	5
0	12433	2470.873986683169	4
0	12438	2472.111920953668	3
0	12442	2473.879683946296	4
0	12444	2474.267054179906	5
0	12448	2475.430541879004	6
0	12450	2475.660140290195	7
0	12454	2476.023571074884	6
0	12459	2476.092907123335	5
0	12464	2477.131748459357	4
0	12468	2478.127124829944	5
0	12471	2478.41263620305	4
0	12476	2479.292877455912	3
0	12482	2480.441524422018	4
0	12490	2482.969249620277	3
0	12495	2483.073818974205	2
0	12500	2486.602957501053	1
0	12505	2487.156457534094	0
0	12516	2488.435996448682	1
0	12517	2488.543177540362	0
0	12523	2488.959252037114	1
0	12524	2489.291569658597	0
0	12528	2490.816511128547	1
0	12532	2490.93130513414	2
0	12534	2492.191282257475	1
0	12539	2492.728696166227	0
0	12559	2496.287474636654	1
0	12562	2497.360526179773	0
0	12568	2497.703958935063	1
0	12570	2497.923885974001	2
0	12574	2500.934856503086	3
0	12575	2501.298493699256	2
0	12584	2503.196810579747	3
0	12585	2503.506813003042	2
0	12591	2503.834941635063	3
0	12594	2504.803824789919	4
0	12595	2504.841216365038	3
0	12600	2505.062549513083	2
0	12607	2507.553639902267	3
0	12608	2508.072407938843	2
0	12613	2508.249453305568	1
0	12619	2508.484382958163	2
0	12621	2508.703617076877	3
0	12623	2508.863228893861	4
0	12624	2508.894390560962	3
0	12630	2509.950840863858	4
0	12631	2509.969026336555	3
0	12636	2510.923338069844	2
0	12641	2511.38270584054	1
0	12648	2512.956163002131	0
0	12652	2514.885547240002	1
0	12654	2517.538248341725	2
0	12658	2518.005191906187	3
0	12662	2518.978376568947	4
0	12663	2520.136431285916	3
0	12676	2523.480438833816	2
0	12681	2523.838986388647	1
0	12689	2525.468803940438	2
0	12690	2525.48730115902	1
0	12695	2525.635032591869	0
0	12701	2525.885623943494	1
0	12703	2526.430169671817	2
0	12705	2526.561942796532	3
0	12706	2526.656751959978	2
0	12714	2530.338639057675	3
0	12717	2530.608321875572	2
0	12722	2531.444252714508	1
0	12728	2532.566759526462	2
0	12731	2532.579628042113	1
0	12736	2533.811224010112	0
0	12740	2533.976171063676	1
0	12742	2534.987131023802	2
0	12746	2535.83958184491	3
0	12748	2537.029812347553	4
0	12752	2537.711214113997	5
0	12754	2537.852329621028	6
0	12755	2538.175411454466	5
0	12761	2541.910757393208	6
0	12762	2541.91477618004	5
0	12766	2542.369137306377	6
0	12768	2542.381488592795	7
0	12771	2543.553147862796	6
0	12778	2544.652267560901	5
0	12783	2544.844606915991	4
0	12788	2544.993792118792	3
0	12792	2545.028534531031	4
0	12794	2545.411390201306	5
0	12798	2546.228576144589	6
0	12800	2546.403469446372	7
0	12804	2546.542537826965	8
0	12807	2547.849365325338	7
0	12813	2548.396546684757	8
0	12814	2548.576253959357	7
0	12820	2550.47683420432	8
0	12822	2550.741013836165	9
0	12823	2550.805790403048	8
0	12828	2551.249481405879	7
0	12832	2551.504325910353	8
0	12836	2553.096475268918	9
0	12838	2553.166417043945	10
0	12842	2553.996406497141	9
0	12848	2554.043813568023	10
0	12850	2554.274535859136	11
0	12854	2555.529118506775	10
0	12860	2556.249878443436	11
0	12861	2557.016022499831	10
0	12868	2560.568982087432	9
0	12872	2561.090274407423	10
0	12876	2561.605269326254	11
0	12878	2563.463942862453	12
0	12880	2563.640994977305	13
0	12881	2564.674545154227	12
0	12886	2565.951745998644	11
0	12890	2565.980994176857	12
0	12892	2566.502841975089	13
0	12895	2567.376059716443	12
0	12900	2568.273138398732	11
0	12905	2571.458170511695	10
0	12910	2572.097865049373	9
0	12914	2572.338331797855	10
0	12916	2573.735293148331	11
0	12922	2575.253904824455	10
0	12928	2576.329746485843	11
0	12929	2576.337208252021	10
0	12934	2576.42856718512	9
0	12942	2578.456895540147	10
0	12944	2579.164162226059	11
0	12948	2579.949720001325	10
0	12955	2580.831744308096	9
0	12964	2581.5485562706	10
0	12965	2581.736259652973	9
0	12970	2582.328505836902	8
0	12976	2582.56000988108	9
0	12978	2583.352938493555	10
0	12980	2583.517746482776	11
0	12982	2583.710345436388	12
0	12984	2583.914809941958	13
0	12985	2584.153143633282	12
0	12990	2584.815299690887	11
0	12994	2585.358822334534	12
0	13000	2587.120260675562	13
0	13002	2588.114339367161	14
0	13003	2588.49730748308	13
0	13009	2589.382852513787	12
0	13014	2590.139999931342	11
0	13021	2591.13431032524	10
0	13026	2591.861929191244	9
0	13030	2592.199304994591	10
0	13032	2593.629833930469	11
0	13036	2595.237000525212	12
0	13037	2595.489332722588	11
0	13043	2596.04666080976	12
0	13045	2596.712379446589	11
0	13050	2597.343341939961	10
0	13057	2597.936313375752	9
0	13061	2598.7064916869	10
0	13065	2599.968171456902	11
0	13068	2600.234755079807	12
0	13070	2600.807884399237	11
0	13076	2601.586130835535	12
0	13077	2601.78619723545	11
0	13082	2601.876446786729	10
0	13086	2603.942959461415	11
0	13089	2605.165657721447	10
0	13097	2606.531078134024	9
0	13102	2606.684459316668	8
0	13107	2606.767943169045	7
0	13112	2608.236441422408	6
0	13118	2609.745857069082	7
0	13121	2611.233805839105	6
0	13127	2611.608560633173	5
0	13133	2612.850871780263	4
0	13139	2612.857456916137	5
0	13141	2613.497014475812	6
0	13145	2613.819555078597	7
0	13146	2614.823825381984	6
0	13151	2616.676475307698	5
0	13159	2618.782368377676	6
0	13161	2618.880317349663	7
0	13163	2618.97289664888	6
0	13168	2618.982575793604	5
0	13175	2621.276638991627	4
0	13184	2624.649176043369	5
0	13186	2626.8303806616	4
0	13191	2627.300266174095	3
0	13197	2627.513388160497	4
0	13200	2628.338029719051	5
0	13203	2630.488784781883	4
0	13208	2630.504283375732	3
0	13212	2630.531799477838	4
0	13217	2631.553827278446	3
0	13222	2631.894768168123	2
0	13228	2632.050636089728	3
0	13231	2632.119421838215	2
0	13236	2633.564188054256	1
0	13240	2634.379650718033	2
0	13245	2636.180289043798	1
0	13254	2639.318554745883	0
0	13261	2641.809089338001	1
0	13264	2642.655919925954	0
0	13290	2647.56449810901	1
0	13292	2647.929569049585	2
0	13294	2648.78961044539	3
0	13295	2649.900315180862	2
0	13301	2650.91930923145	1
0	13306	2651.524380909664	0
0	13312	2651.893815110463	1
0	13313	2652.592216640357	0
0	13326	2654.155242984221	1
0	13327	2654.474365246644	0
0	13333	2655.300969753613	1
0	13334	2656.326410906374	0
0	13349	2657.757388101685	1
0	13351	2658.131707301457	2
0	13353	2658.227224068442	3
0	13355	2658.845793945476	4
0	13361	2660.379264566997	5
0	13362	2660.644440397254	4
0	13368	2661.98397908994	5
0	13371	2662.381586873398	4
0	13377	2662.645898756014	3
0	13382	2663.096376631593	2
0	13387	2663.191896730655	1
0	13394	2664.434607777492	2
0	13397	2666.95155421679	1
0	13407	2668.046121406844	2
0	13408	2668.191197052461	1
0	13415	2669.58964763865	2
0	13416	2670.055246183219	1
0	13421	2670.095600444105	0
0	13427	2671.298845494887	1
0	13428	2671.709015016226	0
0	13434	2672.322649356947	1
0	13438	2674.200410870713	2
0	13439	2674.209352025149	1
0	13448	2675.498309407768	0
0	13452	2677.199429852069	1
0	13456	2678.720451238294	0
0	13468	2680.031732113874	1
0	13471	2680.358394685849	2
0	13472	2680.4026400695	1
0	13477	2680.58167796833	0
0	13491	2681.657550749532	1
0	13494	2682.285184045214	0
0	13505	2686.006454502855	1
0	13509	2688.288593835706	2
0	13511	2688.92344124636	3
0	13513	2689.066510533319	4
0	13519	2690.875785963884	5
0	13525	2691.876660416168	4
0	13530	2692.414770631003	3
0	13536	2694.045651328676	2
0	13545	2694.7514733186	3
0	13546	2695.025657817092	2
0	13553	2695.762298420916	1
0	13559	2696.62295504776	2
0	13561	2696.77322309748	1
0	13566	2696.960162535091	0
0	13577	2697.978432025545	1
0	13582	2699.207874885216	2
0	13587	2699.639672188134	3
0	13589	2699.823035915469	4
0	13590	2699.986615555013	3
0	13596	2700.328749315661	2
0	13602	2700.597153230417	3
0	13605	2701.097515627832	2
0	13610	2701.614966043548	1
0	13614	2701.672309649279	2
0	13619	2703.277272915756	1
0	13625	2704.291026108588	2
0	13626	2704.425077446041	1
0	13630	2704.53834529582	2
0	13634	2705.353592099869	3
0	13637	2706.331691674556	2
0	13644	2707.710294335339	3
0	13645	2708.361754074644	2
0	13650	2708.418967487849	1
0	13655	2708.933342988501	0
0	13687	2712.861015536912	1
0	13694	2713.743012182766	0
0	13700	2713.773304285027	1
0	13701	2714.047168531671	0
0	13712	2714.436239539128	1
0	13715	2715.285831908953	2
0	13716	2715.500325614167	1
0	13721	2716.854332963055	0
0	13725	2717.72994677424	1
0	13728	2719.093093576767	0
0	13732	2719.337228844877	1
0	13736	2720.017522878319	2
0	13737	2720.040353644534	1
0	13742	2721.203110227188	0
0	13773	2729.897911608898	1
0	13778	2730.601729535242	2
0	13780	2731.316748207235	1
0	13785	2732.1768180445	0
0	13791	2732.361187765162	1
0	13793	2732.961532359449	2
0	13797	2734.317080838818	3
0	13798	2734.45414036884	2
0	13803	2735.289330719574	1
0	13807	2735.355523861718	2
0	13809	2735.574927963535	3
0	13811	2735.709253588696	4
0	13819	2738.757506767713	5
0	13820	2739.253562833029	4
0	13824	2739.256492896071	5
0	13828	2739.875663076038	4
0	13834	2739.99563368827	5
0	13836	2740.372876884591	6
0	13837	2740.522911717718	5
0	13845	2741.200327128608	6
0	13847	2741.801671381133	7
0	13849	2741.935128075475	8
0	13850	2742.930090005033	7
0	13856	2742.96646579014	8
0	13858	2743.035891321733	9
0	13859	2743.812262791979	8
0	13864	2744.002986034289	7
0	13868	2744.490743564583	8
0	13872	2745.292323105464	9
0	13874	2746.892096237893	10
0	13876	2747.093825492251	11
0	13877	2747.109466983063	10
0	13885	2748.871773214991	11
0	13887	2749.078415052892	12
0	13888	2749.362779080717	11
0	13893	2750.866888144648	10
0	13897	2751.064688772976	11
0	13900	2752.490560486945	10
0	13906	2752.609274862273	11
0	13907	2753.001185700828	10
0	13911	2753.242219903122	11
0	13914	2754.631750198748	10
0	13918	2755.621560742864	11
0	13921	2756.176351956328	10
0	13925	2756.568476720029	11
0	13929	2759.962359853293	12
0	13934	2761.525870669385	13
0	13936	2762.580858210075	12
0	13941	2763.147116925628	11
0	13946	2763.184045231016	10
0	13950	2763.232680773076	11
0	13952	2764.300601504536	12
0	13955	2764.584939044088	11
0	13962	2766.685246164037	10
0	13970	2767.933497317347	11
0	13972	2768.473452235875	10
0	13977	2769.469225916919	9
0	13985	2771.081162583202	10
0	13986	2771.228502507533	9
0	13991	2773.082399136534	8
0	13995	2773.354393118998	9
0	13998	2774.019844764998	8
0	14004	2774.460872003492	9
0	14006	2775.235637561347	10
0	14007	2775.624367434218	9
0	14012	2777.102214413266	8
0	14019	2779.743951316594	9
0	14020	2779.917007543273	8
0	14026	2780.659184499724	9
0	14028	2780.693728818541	10
0	14030	2781.554386151055	9
0	14036	2781.674793144858	10
0	14038	2781.812419470801	9
0	14044	2782.388095041727	10
0	14046	2782.445823275495	11
0	14048	2783.317913824801	10
0	14054	2784.69453835578	9
0	14060	2784.728488737598	10
0	14061	2784.734771212563	9
0	14067	2784.870955287307	10
0	14069	2785.397305398251	9
0	14074	2785.70575680759	8
0	14082	2787.199316799144	7
0	14088	2787.454083837537	6
0	14094	2787.886512464691	7
0	14095	2788.220652653114	6
0	14099	2788.828725646525	7
0	14102	2789.328877569689	6
0	14107	2789.655442907733	5
0	14113	2790.535584549029	6
0	14115	2790.664762153325	7
0	14118	2791.363140303428	6
0	14122	2791.556584341635	7
0	14124	2793.237937832902	8
0	14130	2793.644987842631	9
0	14131	2793.993852613889	8
0	14139	2794.558328900219	7
0	14145	2794.566438188069	8
0	14146	2794.697067068887	7
0	14152	2795.754049711161	6
0	14158	2796.058969020284	7
0	14159	2796.627391782367	6
0	14164	2800.30015838522	5
0	14175	2802.372636732611	4
0	14180	2803.088166919518	3
0	14185	2803.539466396837	2
0	14189	2803.832120623659	3
0	14192	2804.265996239085	2
0	14197	2805.264248232216	1
0	14201	2805.617410137523	2
0	14204	2806.156407565796	1
0	14211	2807.181968113286	2
0	14214	2808.295541419638	1
0	14219	2808.387706349442	0
0	14223	2808.704865447452	1
0	14225	2811.288611147176	2
0	14227	2811.817871374746	3
0	14233	2813.325849146865	4
0	14236	2814.313697409961	3
[...]
4	143799	27792.074353562033	9597.1075503129
4	143804	27792.543214453395	9587.2221621505
4	143809	27792.549913983601	9579.1471919771
4	143824	27798.399096645832	9579.6722444156
4	143841	27800.423972621223	9578.0180567211
4	143848	27801.049149454003	9577.3871389236
4	143894	27809.004296094097	9584.9255497959
4	143904	27810.272396457357	9586.1739338795
4	143911	27810.795773157802	9582.9580634028
4	143923	27812.222120235942	9584.1190248227
4	143934	27812.740399229672	9581.9591755045
4	143941	27813.756492076638	9577.6314105919
4	143953	27816.087238395382	9573.761766745
4	143975	27818.893896138898	9573.6823118025
4	143989	27821.366831760594	9570.4691560774
4	144010	27823.498734649229	9568.1776680698
4	144033	27825.449183529017	9565.2982850534
4	144039	27826.251411633463	9561.5277818807
4	144050	27828.975115062321	9562.7887947606
4	144185	27849.377668625877	9578.5582319228
4	144282	27868.515495792379	9595.4342374891
4	144287	27868.529738919186	9592.813918848
4	144293	27868.672518057728	9587.2879879913
4	144301	27869.860368922853	9581.6058015824
4	144306	27871.574933090064	9574.3776437633
4	144319	27873.319489754515	9573.3621184902
4	144343	27878.229215933778	9575.2487332513
4	144348	27880.177090479725	9576.8364639439
4	144362	27883.752572375752	9580.3170470623
4	144384	27885.871459131252	9567.9856222394
4	144393	27887.622105260519	9566.1420711418
4	144422	27894.206928857307	9547.8606131025
4	144430	27895.190341111311	9546.6297574102
4	144446	27896.432724835367	9546.4426120176
4	144466	27899.882375551523	9549.5520874393
4	144476	27900.298709233654	9546.182644664
4	144481	27900.709805610979	9539.7276399614
4	144488	27903.464985064397	9540.2760766376
4	144597	27931.874579281832	9565.2846362124
4	144602	27932.177717183224	9563.8515848815
4	144614	27937.040696049959	9566.2456719422
4	144705	27961.787252305572	9590.1646188359
4	144736	27965.891149164581	9584.5614001719
4	144750	27967.425405318287	9584.1415381393
4	144791	27976.561060203326	9590.081551801
4	144797	27978.559659610961	9589.6885724159
4	144807	27981.352423943259	9592.0326134256
4	144832	27987.109239037787	9595.7381637017
4	144875	27993.805190062472	9583.60043541
4	144882	27994.961016234201	9580.1817328199
4	144903	27997.375778047983	9581.5285701858
4	144924	28000.716624931158	9584.4720532237
4	144931	28003.001454773707	9583.6131163946
4	144938	28005.340284978884	9582.3506344294
4	144950	28008.112576889916	9581.3772157092
4	144955	28010.039044143921	9577.6906059333
4	144965	28011.967010386015	9549.2637192499
4	144992	28016.556815180402	9551.8709103647
4	145076	28030.677287740444	9562.4788303628
4	145087	28032.538922328495	9559.4337866528
4	145106	28033.884044047485	9558.3719003567
4	145113	28034.48539609036	9555.2410287657
4	145143	28037.057281623295	9555.797319098
4	145148	28037.098582378888	9550.342946611
4	145156	28038.469824114109	9544.4492360768
4	145166	28039.995260456107	9544.2263852888
4	145177	28043.778800245657	9545.9210467566
4	145195	28046.72351519875	9548.4436217002
4	145215	28050.038155212859	9547.7088444093
4	145226	28051.06686392392	9548.0655249394
4	145234	28052.109043638683	9549.0262725388
4	145248	28053.085805495989	9546.6210125059
4	145267	28054.91212677701	9538.889376799
4	145272	28055.941172366765	9528.9967188354
4	145284	28058.365763537346	9530.6801245201
4	145327	28063.27266969541	9527.2411628882
4	145333	28063.685778308811	9527.5115433754
4	145344	28066.725375010723	9523.8849270741
4	145380	28074.361380401495	9524.8365856724
4	145385	28074.457301822501	9518.8919113386
4	145393	28076.237120419306	9514.9778542046
4	145406	28080.351242527302	9516.3395918201
4	145446	28088.084921419662	9523.6220669386
4	145664	28125.909460256204	9559.5178578566
4	145669	28125.998794760315	9555.5048094279
4	145674	28127.261149955063	9556.4932251293
4	145684	28130.980185912395	9558.0361356683
4	145689	28131.488722195422	9556.2564975569
4	145704	28137.738459323233	9560.7484920692
4	145734	28142.050381226531	9564.1319530496
4	145745	28144.296823637841	9564.4789410604
4	145766	28147.7425985422	9558.8088872979
4	145771	28150.59214946891	9559.6276549797
4	145778	28151.390072640262	9560.1640040222
4	145939	28180.490058761735	9582.7311989485
4	145944	28180.595536065699	9582.4852995622
4	145958	28182.744500419381	9580.2827899399
4	145975	28184.723415070346	9577.3368176342
4	145980	28186.664254525013	9578.9955845678
4	145985	28187.021690212129	9577.8967215806
4	145990	28187.436066300358	9576.3343357956
4	145997	28189.196294869462	9577.2949593129
4	146009	28191.764925888527	9577.0877680624
4	146018	28193.811969654583	9578.8294321895
4	146023	28194.912953255142	9573.1597250149
4	146034	28197.367276525257	9555.885176006
4	146045	28199.057339175022	9554.1707835622
4	146055	28200.391293127677	9547.4769389568
4	146070	28201.021969652455	9543.9168177141
4	146077	28202.415925334974	9545.2173784885
4	146082	28202.997887135448	9542.4830709313
4	146095	28207.897369681286	9546.5760346576
4	146129	28213.15760286122	9550.8347734719
4	146143	28215.732222622814	9547.25717446
4	146149	28216.866552490044	9546.8449579661
4	146160	28218.206565948453	9547.1652979514
4	146192	28221.476054140121	9547.9738453761
4	146197	28222.758013872283	9546.5214135591
4	146205	28225.279298137205	9540.3068791012
4	146212	28226.178378273074	9531.9507461096
4	146221	28230.056943317361	9530.0195644011
4	146302	28247.689501504917	9544.0393340849
4	146308	28248.295243217841	9538.919527377
4	146319	28251.182896971825	9540.5036876647
4	146375	28258.817005729541	9546.4330238886
4	146396	28261.487025474191	9548.7975612727
4	146403	28262.131777238333	9543.4641940253
4	146415	28262.818014675244	9539.9296947696
4	146422	28263.951165761883	9538.7035414438
4	146451	28271.192514617187	9545.0088519468
4	146734	28317.113682560412	9584.2123436193
4	146739	28317.125994319002	9579.1015661815
4	146744	28318.180429959888	9578.1877717173
4	146758	28320.56222542675	9570.2164686932
4	146781	28322.353267730849	9569.2599922542
4	146786	28322.923248739108	9561.9408017528
4	146791	28323.677218154034	9549.2456761664
4	146800	28326.320013280575	9545.395232497
4	146829	28331.404396250742	9538.8707554728
4	146837	28333.482087583537	9540.7215153007
4	146842	28333.552391265511	9532.9292385494
4	146851	28333.964375189557	9532.804850825
4	146871	28337.943202539592	9535.9355387471
4	146950	28349.678157895885	9547.152013013
4	146957	28350.994391643703	9545.7131218957
4	146963	28352.907197151134	9546.8801899769
4	146972	28355.148948024823	9544.5804777703
4	146977	28356.160584923977	9532.6469297677
4	146982	28356.33573143792	9532.6675385952
4	146987	28357.883650551307	9530.9864055537
4	147000	28365.712865940361	9535.0520042226
4	147015	28367.286469840744	9535.3926325712
4	147032	28371.991234906481	9535.6831153835
4	147051	28375.495699858166	9536.2886061865
4	147056	28375.701863428576	9534.7551044863
4	147065	28376.338937032701	9529.7518484346
4	147073	28376.965926510953	9526.072049684
4	147079	28378.324645770898	9525.8992610117
4	147086	28380.669607819391	9520.0532777532
4	147094	28382.005042149274	9519.3492447581
4	147104	28382.491484349858	9514.9219335593
4	147113	28382.66903779113	9511.4933616167
4	147128	28385.402581299347	9511.6196485611
4	147146	28387.038449519478	9511.4403665103
4	147157	28387.897369677758	9512.2988660575
4	147165	28389.804221133221	9509.5282165929
4	147171	28391.226172264507	9509.0259803673
4	147177	28392.538197067427	9498.0743872055
4	147184	28393.288365967896	9485.2750838691
4	147212	28396.606682988178	9486.0541237373
4	147223	28399.601238584671	9485.0496979171
4	147235	28400.631522225299	9481.3696587524
4	147241	28401.38913264221	9480.8272815404
4	147246	28401.566798581561	9479.0881738738
4	147253	28403.442601286863	9480.7856757533
4	147270	28406.302296356797	9480.8664240336
4	147275	28406.363199707251	9464.1029825445
4	147282	28409.500548936428	9465.281710242
4	147287	28411.360156283351	9465.7040899827
4	147298	28416.005898259384	9470.1007688599
4	147789	28522.503862553124	9567.0469913099
4	147826	28527.767248970392	9564.4108277203
4	147837	28528.707270880409	9557.610185382
4	148065	28574.023930725948	9601.8710180531
4	148078	28576.962858880684	9604.2778599193
4	148176	28596.86752504554	9616.7035740162
4	148186	28597.965111449998	9616.4771951978
4	148199	28599.517347493102	9613.6401171487
4	148212	28600.085769555711	9611.4333135358
4	148224	28603.31740100858	9612.0041289816
4	148242	28608.348017532281	9615.1367480853
4	148633	28694.505181155213	9701.1273058409
4	148638	28695.545970098401	9697.1510496752
4	148644	28695.728700137997	9692.5420974828
4	148651	28696.517735635113	9688.800123929
4	148656	28697.584108483434	9688.170584878
4	148666	28698.539066120671	9689.0077370911
4	148679	28700.546216032451	9687.9231544961
4	148684	28701.097217889864	9686.5998804974
4	148697	28703.109461961558	9687.8379077382
4	148730	28708.589994813939	9691.9251387316
4	148737	28709.141828375895	9690.6435164763
4	148747	28709.323970244087	9681.4964955549
4	148753	28710.19060714598	9671.3995500734
4	148758	28710.778411850251	9666.8411256073
4	148767	28712.177094038064	9667.2932048527
4	148861	28724.263438696163	9662.8332042556
4	148869	28724.720829143178	9656.4812171829
4	148880	28726.667769424657	9656.7325537526
4	148893	28727.210470836864	9657.1138658268
4	148904	28729.018114695788	9657.3616754458
4	148913	28731.058837870751	9658.206028078
4	148918	28732.282364448117	9656.4919013866
4	148932	28734.918860074831	9654.467150089
4	149150	28776.404682141179	9687.9538518808
4	149167	28778.963660272191	9687.0242900596
4	149175	28780.490094529653	9680.3895374843
4	149189	28782.119230123798	9681.1682444654
4	149354	28815.70433824264	9709.0111565288
4	149404	28823.671628159299	9710.6171708685
4	149411	28824.296527517251	9708.7183665768
4	149464	28839.445102202466	9718.2194030462
4	149475	28842.875681190866	9713.4066153533
4	149497	28845.86971802388	9715.4295777132
4	149505	28848.597319882538	9717.1254279611
4	149556	28860.170369915728	9702.1143709865
4	149594	28868.064306555897	9707.3478156729
4	149600	28868.907438914249	9707.1530103285
4	149605	28870.206022391004	9700.8856774613
4	149617	28873.553634858928	9703.3132380896
4	149628	28873.640593616925	9702.1584939776
4	149635	28873.847917345837	9699.205397438
4	149646	28875.603344973659	9700.0825763974
4	149662	28877.869250617809	9702.1478539395
4	149734	28890.681495164246	9710.033331456
4	149742	28891.277430867494	9706.0796747166
4	149752	28893.176126975934	9706.4673976854
4	149757	28893.447736700382	9702.751301708
4	149762	28893.573648832829	9701.7909731174
4	149772	28897.000970355588	9705.1098380972
4	149797	28900.904162949757	9702.5309874138
4	149802	28901.021495404725	9701.6103589966
4	149819	28905.496370224914	9692.5622429
4	149881	28919.951034371525	9705.949217365
4	149886	28921.002529203536	9701.4412403554
4	149898	28922.3029228685	9699.1476559146
4	149930	28928.2433020309	9702.7861669625
4	149937	28928.474474295228	9694.9829296917
4	149942	28929.877465517454	9695.8374075163
4	149951	28931.630660716869	9694.8688657564
4	149960	28933.347868293358	9694.9028376909
4	149985	28937.664084628718	9695.7993713302
4	149995	28939.333119428277	9692.4128233334
4	150001	28940.009253374888	9692.7708077901
4	150007	28940.585966963445	9691.2026588291
4	150014	28942.328739943424	9689.8180712286
4	150022	28943.310860248389	9687.3049529325
4	150030	28944.29111811077	9684.9299936992
4	150037	28949.271058574037	9688.4461069854
4	150055	28951.419351709732	9688.9399804043
4	150060	28951.512935472036	9686.9570714059
4	150065	28952.52944404111	9683.9983680877
4	150071	28954.50799494369	9682.2511013983
4	150078	28956.056481177394	9675.8229089571
4	150092	28959.075984714976	9678.4262200317
4	150106	28961.116256427867	9680.222808548
4	150275	28995.038331019114	9711.3945632632
4	150313	29003.966306859291	9714.2944260312
4	150321	29005.833650516226	9708.6962771396
4	150328	29006.353918310336	9701.9293857285
4	150337	29008.984855512832	9693.260183322
4	150362	29010.53265576364	9694.6496826873
4	150367	29011.02984052792	9686.8468519201
4	150382	29017.116938967863	9692.3818343714
4	150600	29073.28489084419	9748.3253446394
4	150612	29076.496644071162	9750.8347884482
4	150631	29080.196950902601	9751.2356856423
4	150645	29082.325678434836	9747.6184433301
4	150745	29104.455902859576	9764.065278214
4	150752	29105.021015368873	9752.8850346073
4	150772	29112.319403597138	9751.8181474169
4	150856	29127.529751122703	9761.586449231
4	150898	29135.032509238619	9767.400716045
4	150908	29137.101234321945	9767.559435082
4	150915	29137.713912570334	9765.3755006572
4	150921	29138.743316760948	9759.756067454
4	150926	29138.877539760789	9758.3416916713
4	150935	29140.37984297899	9759.7793921247
4	150962	29146.420480662628	9765.3955029606
4	150991	29150.062657245146	9765.7957281156
4	150996	29150.978945268588	9759.7647577082
4	151001	29152.284650782675	9755.7014462828
4	151010	29153.461750496229	9750.3946490248
4	151023	29155.283517354082	9741.7705178486
4	151032	29157.076592949121	9733.9045022536
4	151058	29159.824162853825	9729.6267479447
4	151111	29166.187107938684	9735.9286821644
4	151126	29167.03244322196	9736.2843976258
4	151144	29170.198673943241	9736.2930478602
4	151151	29170.255906687548	9727.3283031219
4	151166	29172.551587647872	9726.5377522897
4	151171	29172.772938244001	9722.114004941
4	151180	29176.240904356337	9724.8800068437
4	151192	29179.05160735743	9727.4651694558
4	151209	29182.205754270921	9730.2202385053
4	151432	29228.306944343428	9772.5801455101
4	151448	29231.189643335842	9772.6721655045
4	151470	29234.065435542393	9775.5058678845
4	151477	29235.567633257628	9776.2311177141
4	151482	29235.842670419096	9773.522012835
4	151488	29237.010962235401	9773.6937469785
4	151500	29238.146170317072	9770.0476711854
4	151520	29239.898094539719	9767.7828977086
4	151558	29246.607745674739	9758.0876582485
4	151566	29247.797584862009	9753.298858582
4	151572	29247.949464331402	9752.3966537614
4	151578	29249.285608251754	9751.7699297791
4	151583	29249.812530130725	9745.2625643112
4	151598	29254.699758039367	9749.623989919
4	151647	29262.703142469362	9740.4870597188
4	151657	29262.988869338077	9737.0398413104
4	151664	29268.391212556023	9739.4006558825
4	151716	29278.299483542286	9743.9889028289
4	151730	29279.82487089735	9745.1446494029
4	151770	29285.922608050131	9749.6705861187
4	151781	29288.602609162659	9751.8391177217
4	151786	29288.939779287734	9752.0591480467
4	151793	29289.153304578141	9745.1777585565
4	151805	29291.843769132226	9747.375328382
4	151847	29302.946954088124	9753.1129913758
4	151857	29304.148342296251	9754.1954326742
4	151863	29306.159370276037	9743.629480434
4	151869	29307.542357865546	9741.2860474735
4	151876	29311.018724867552	9739.8535646813
4	151881	29313.208589896883	9735.0671624683
4	151902	29321.12138307616	9739.8371227393
4	151988	29336.766785447232	9752.4945254128
4	151994	29336.962893148023	9749.7199696507
4	151999	29338.934585768519	9748.7115748387
4	152006	29340.46987622678	9744.1842170278
4	152021	29343.409572660051	9746.1787634291
4	152036	29346.325060664967	9739.8242525029
4	152050	29349.099018345676	9738.4267623008
4	152055	29349.439672289168	9737.9061685014
4	152060	29351.837541853549	9740.099379393
4	152069	29358.913805733154	9744.6910374074
4	152088	29360.493256225694	9744.9691256164
4	152099	29361.081138664589	9745.0405494486
4	152104	29361.246657228084	9741.0945754972
4	152113	29362.30933007013	9741.8561687604
4	152148	29367.140920897908	9745.7642744133
4	152183	29372.909821218811	9744.7356738021
4	152196	29375.326272687993	9745.8385285148
4	152211	29377.825236600208	9747.4093466148
4	152229	29378.982649837618	9748.5031702455
4	152234	29380.104711685269	9744.9469433211
4	152239	29381.119695424851	9738.2222349118
4	152244	29381.790471932943	9713.8416526672
4	152249	29382.840015592398	9712.3071923382
4	152257	29384.248988481634	9706.1885276991
4	152277	29387.451879078101	9707.6709817122
4	152282	29389.244170645457	9707.0210339806
4	152288	29391.074096933206	9706.246308008
4	152303	29396.428115750582	9711.5458185131
4	152434	29413.545828779029	9723.41718485
4	152446	29416.978495069646	9720.6735843449
4	152451	29419.340991407873	9722.0712263126
4	152456	29420.558899555739	9720.1094937764
4	152466	29422.955714657387	9719.1025184939
4	152486	29424.632304643874	9718.8220738292
4	152495	29426.654852204195	9719.7926486648
4	152506	29428.683082233289	9717.7829461176
4	152514	29429.798031496219	9708.7552707866
4	152525	29430.751773954808	9709.4743640383
4	152532	29431.639854646124	9708.723809847
4	152543	29435.378042581482	9708.7205047522
4	152771	29482.101733257218	9749.5177024992
4	152783	29484.044928930842	9745.5210612349
4	152793	29484.838427529926	9744.3792473592
4	152798	29485.400672980227	9744.0969474098
4	152813	29487.618554755185	9740.5809138685
4	152875	29497.017674206532	9749.7638716347
4	152893	29501.72490082926	9754.3300280313
4	152899	29502.186553599039	9752.8953947483
4	152908	29505.576563827707	9751.0452785552
4	152913	29505.952376739251	9748.0840851369
4	152920	29506.718628432343	9745.199972116
4	152938	29509.597751769893	9744.3069839282
4	153001	29520.235293681336	9750.0004456371
4	153013	29522.520572255977	9745.4970188181
4	153027	29526.345767961746	9749.3164815151
4	153038	29527.739116467031	9748.2696183282
4	153045	29529.034338943447	9747.561257586
4	153054	29530.416131522253	9748.6262001406
4	153059	29531.718605352781	9742.6294803253
4	153064	29531.980683469805	9740.7011731566
4	153069	29532.994099019365	9739.3756620662
4	153086	29535.689577342106	9739.938842021
4	153228	29563.762656841721	9767.5106429152
4	153245	29565.240634726509	9766.1957298188
4	153262	29567.616434602916	9763.5910237943
4	153267	29568.590177677851	9763.2107747229
4	153273	29570.451670088912	9760.725132958
4	153280	29572.902505805652	9760.0359527274
4	153290	29574.371728828426	9753.8041919791
4	153305	29577.259071965645	9754.2346533743
4	153359	29585.01611907155	9753.8326167536
4	153385	29586.451264329747	9751.6665220095
4	153392	29587.227112829828	9745.686098251
4	153399	29587.790268253774	9744.1181291908
4	153626	29638.693207036316	9793.0014202161
4	153865	29691.547818830045	9843.6916244674
4	153877	29693.377513394226	9843.2252505615
4	154291	29780.747150015737	9926.2972153122
4	154296	29782.360548538756	9922.9286640655
4	154307	29784.689710200428	9923.6566210529
4	154319	29786.155340583925	9920.0227838258
4	154332	29788.092930620364	9917.8912794475
4	154339	29794.181405565346	9923.8904213675
4	154354	29797.830767160691	9927.0249520538
4	154365	29798.434972669923	9926.6731921844
4	154377	29803.4818609137	9927.0878654121
4	154394	29807.354117532522	9929.5320085408
4	154401	29807.711786382143	9928.8489469215
4	154415	29811.899821966235	9931.5737298519
4	154426	29815.251753160227	9933.941047887
4	154448	29819.087489615155	9937.4092328033
4	154463	29821.376456631161	9939.2208434229
4	154470	29824.041606044203	9941.5925391486
4	154475	29825.644049884727	9942.8317021292
4	154485	29826.381839042591	9941.7494419919
4	154503	29827.889220130921	9942.2529813131
4	154522	29832.40177171672	9944.5098294524
4	154653	29854.066975935464	9964.5505482095
4	154658	29854.334524705149	9959.2322248318
4	154663	29855.330096941727	9959.144562973
4	154668	29857.696828376424	9955.1398041097
4	154679	29861.050458173692	9953.7903533295
4	154707	29865.50564260211	9958.1586257167
4	154715	29867.008814944983	9956.5681399528
4	154720	29867.04629895841	9948.4098258634
4	154727	29868.522355861974	9939.8574548545
4	154734	29870.381069316271	9939.0237444707
4	154748	29872.335710244981	9939.2866049537
4	154753	29873.467208965879	9930.5475906975
4	154758	29873.608685891697	9930.0959504911
4	154765	29875.382167732775	9928.0374753632
4	154774	29881.549578982219	9930.3996673764
4	154794	29885.573759038516	9929.8747772278
4	154804	29890.848996161213	9932.6275807428
4	154814	29891.713513707349	9930.6749163007
4	154826	29895.124283269489	9930.9092193921
4	154839	29896.303921301814	9927.9869038039
4	154844	29896.548371108995	9927.5110872618
4	154851	29897.072893756197	9918.148348064
4	154868	29901.360425015002	9916.3360008213

