version 2
run First-n3-15-20191016-14:53:05-8352
attr configname First-n3
attr datetime 20191016-14:53:05
attr experiment First-n3
attr inifile omnetpp.ini
attr iterationvars ""
attr iterationvarsf ""
attr measurement ""
attr network org.omnetpp.queueing.Pizza
attr processid 8352
attr repetition 15
attr replication ""
attr resultdir results
attr runnumber 15
attr seedset 15
param **.PS.maxInventoriedPS 3
param **.U1.interArrivalTime exponential(2s)
param **.U2.interArrivalTime exponential(4s)
param **.PS.serviceTimeForInventoryU1 exponential(0.8s)
param **.PS.serviceTimeForInventoryU2 exponential(1.0s)
param **.PS.serviceTimeDirectU1 exponential(1.2s)
param **.PS.serviceTimeDirectU2 exponential(1.4s)
param **.PS.probabilityProducing 0.5
param **.CS.serviceTimeU1 exponential(0.8s)
param **.CS.serviceTimeU2 exponential(1.0s)

vector 0 Pizza.EntryQueueU1 queueLength:vector ETV
attr interpolationmode sample-hold
attr title "queue length, vector"
vector 1 Pizza.CS queueLength:vector ETV
attr interpolationmode sample-hold
attr title "queue length, vector"
vector 2 Pizza.EntryQueueU2 queueLength:vector ETV
attr interpolationmode sample-hold
attr title "queue length, vector"
vector 3 Pizza.sink lifeTime:vector ETV
attr interpolationmode none
attr title "lifetime of arrived jobs, vector"
attr unit s
vector 4 Pizza.sink lifeTimeU2:vector ETV
attr interpolationmode none
attr title "lifetime of arrived jobs, vector"
attr unit s
0	0	0	0
0	5	4.17274849821	1
0	7	4.284541970041	2
0	9	4.519827285931	3
0	15	5.417214924167	4
0	17	6.14338972316	5
0	22	6.942359780066	4
0	28	7.500111611894	3
0	36	8.688786154527	4
0	37	8.8164932114	3
0	44	9.161625189042	4
0	46	9.242066029311	5
0	48	9.490018313288	6
0	49	9.795606840984	5
0	53	9.936882534884	6
0	60	11.481437250553	5
0	65	11.737238791619	4
0	70	11.944273374247	3
0	75	12.42332496994	2
0	82	13.648973928698	1
0	87	14.525373717741	0
0	136	23.00018522155	1
0	141	24.280976012206	0
0	154	25.040653240372	1
0	157	25.562556493898	0
0	163	25.905603026116	1
0	166	26.128234566492	2
0	168	26.754448489658	3
0	169	26.817959477631	2
0	176	27.189281783284	1
0	183	29.123009132404	0
0	194	30.150774297597	1
0	196	30.649442396929	0
0	217	33.623602908503	1
0	221	36.012639246092	2
0	223	36.543537743206	3
0	224	36.616794641361	2
0	229	36.660309861536	1
0	235	36.816534260563	2
0	237	37.131575899201	3
0	238	37.333822613246	2
0	244	39.236036571795	1
0	249	39.504596940875	0
0	253	39.852202541187	1
0	255	41.128344335289	2
0	257	41.578050903964	3
0	259	41.67717088803	4
0	261	41.680463109981	5
0	264	42.968950005013	4
0	268	43.778205546987	5
0	274	45.160174078477	6
0	277	46.901412410239	5
0	282	47.60767340411	4
0	290	48.446544795335	5
0	291	49.854397831169	4
0	297	49.893599500124	5
0	300	51.712429580644	4
0	304	51.881744582965	5
0	310	54.008844709081	4
0	315	54.912435067805	3
0	320	55.999911031694	2
0	325	56.94904594098	1
0	330	58.152455973673	0
0	344	58.958672454472	1
0	349	60.343314995712	0
0	362	61.285350788563	1
0	363	61.807587783054	0
0	416	71.489111243232	1
0	417	73.393311525141	0
0	428	74.225534769306	1
0	433	75.163236755553	0
0	444	77.568307053994	1
0	450	79.08321454331	0
0	470	81.218401030563	1
0	472	82.552912709122	0
0	497	88.174410222137	1
0	498	88.25853784181	0
0	507	88.388786660291	1
0	509	88.563952045508	2
0	511	92.014171543146	3
0	517	94.659711035585	4
0	518	94.832110312324	3
0	523	94.857198109497	2
0	528	95.099753855894	1
0	532	95.317290448139	2
0	538	96.770450542962	3
0	543	97.353212431241	4
0	548	98.628911083774	3
0	553	99.158558838811	2
0	559	99.673864630517	1
0	566	100.043307801001	0
0	590	103.379408909622	1
0	592	103.394125949672	2
0	597	104.484292388636	3
0	601	105.406977949803	4
0	603	105.900626906801	5
0	604	106.604894871963	4
0	610	107.239045408504	5
0	611	107.271289101304	4
0	617	108.311655828158	3
0	623	108.578160978659	4
0	625	108.955855418656	5
0	626	109.093022066555	4
0	631	109.704220239859	3
0	635	110.170457708593	4
0	638	110.859543529204	3
0	643	112.35782150125	2
0	649	112.752784810583	3
0	655	113.743648578012	2
0	660	115.213709324722	1
0	665	115.642408032481	0
0	676	116.69409036191	1
0	677	117.151504295153	0
0	683	118.452550829395	1
0	689	120.793108036533	0
0	698	122.575993023192	1
0	701	123.14540007447	2
0	702	123.880700927401	1
0	707	126.239011398405	0
0	711	127.079474000544	1
0	713	127.413972633943	2
0	717	128.528221842585	3
0	720	130.375164317272	2
0	726	131.468472409334	3
0	727	131.983644424419	2
0	731	132.546680995655	3
0	734	135.168603096999	2
0	740	136.450391026199	3
0	744	136.951191847707	4
0	745	137.714082520943	3
0	751	137.750856797638	4
0	755	138.922034812903	5
0	756	139.00207649409	4
0	761	139.272648688868	3
0	767	139.721732142328	2
0	775	141.829528339501	1
0	783	142.880147614297	2
0	784	143.601780412565	1
0	789	143.696393300458	0
0	801	145.426807865098	1
0	803	146.260473153331	0
0	819	147.475967478233	1
0	820	148.117140277612	0
0	844	148.760409321855	1
0	846	148.920989648843	2
0	847	149.432623494813	1
0	851	149.498213221941	2
0	855	150.364487035426	1
0	867	152.974706596723	0
0	879	154.968117063977	1
0	880	154.978113008313	0
0	888	156.03621595017	1
0	893	157.915887141081	0
0	909	159.963120536393	1
0	915	161.929635936004	2
0	917	162.055889726147	3
0	920	162.942586956214	2
0	926	163.999644867381	1
0	931	164.144629981141	0
0	942	165.04701911707	1
0	945	165.186498004912	0
0	956	166.297250421751	1
0	958	167.369955596087	0
0	964	167.778093902743	1
0	967	168.540404612877	0
0	995	172.091367711749	1
0	996	172.416817215279	0
0	1014	175.118987841027	1
0	1016	175.634974860783	2
0	1018	175.815792396961	1
0	1024	175.989554279998	2
0	1025	176.769241551976	1
0	1029	177.49587649911	2
0	1031	178.156895863633	3
0	1035	179.59064360852	4
0	1036	179.59913015675	3
0	1040	180.168915503178	4
0	1042	180.181570721895	5
0	1046	180.483396622149	6
0	1049	181.268245857757	7
0	1050	181.407260910338	6
0	1056	181.424850414293	7
0	1057	181.864092810627	6
0	1061	184.215757640489	7
0	1064	185.820633773688	6
0	1071	188.381537186974	5
0	1078	190.677964904346	6
0	1083	191.207806500743	5
0	1087	191.272843468948	6
0	1090	192.318849683853	5
0	1095	193.040678734799	4
0	1105	194.237457651554	5
0	1108	194.9033503578	4
0	1114	195.485508203917	3
0	1120	196.437452286899	2
0	1126	196.758577480961	1
0	1131	197.312512902206	0
0	1149	199.750725769716	1
0	1152	200.385312455026	0
0	1156	202.010262093987	1
0	1158	203.029473215347	2
0	1160	203.11741015884	3
0	1166	203.982149972805	4
0	1169	204.912406980548	3
0	1175	205.019214106807	2
0	1180	205.210437484671	1
0	1185	205.254747011332	0
0	1191	205.727444960775	1
0	1194	206.781427798212	0
0	1200	207.767033326371	1
0	1205	209.571273806123	0
0	1209	210.962329105706	1
0	1211	210.971211802777	2
0	1214	211.147609609904	1
0	1220	213.55263640905	0
0	1248	216.649563112408	1
0	1249	216.866856017637	0
0	1255	217.557701076865	1
0	1256	217.674742623417	0
0	1262	217.812110376535	1
0	1263	218.542822147773	0
0	1289	220.952425926572	1
0	1295	223.836686484418	2
0	1296	223.954525572123	1
0	1302	225.051692672291	0
0	1313	226.249182686529	1
0	1317	227.216889598	2
0	1323	229.640235636341	1
0	1329	229.71967563783	2
0	1330	229.915376311197	1
0	1338	231.455610785561	2
0	1339	231.530083760621	1
0	1345	231.618835253116	2
0	1346	234.86688996393	1
0	1350	235.651153115111	2
0	1352	236.07075226063	3
0	1356	236.593056151996	4
0	1357	236.604602117268	3
0	1362	237.009279018599	2
0	1369	243.375173873468	1
0	1374	244.010985746483	0
0	1378	244.446703322072	1
0	1381	245.213505536665	0
0	1392	246.247820712653	1
0	1394	246.66782565091	2
0	1400	247.366435228108	1
0	1407	248.489979637254	2
0	1408	248.674259784398	1
0	1414	248.895941997037	0
0	1431	250.758547808803	1
0	1434	251.417763226223	2
0	1435	252.007364549095	1
0	1441	253.227979560237	2
0	1443	253.335558511734	1
0	1450	253.369917942983	2
0	1453	254.046761295932	3
0	1454	254.052641182793	2
0	1459	254.10055880456	1
0	1464	254.338912525409	0
0	1470	255.367260079341	1
0	1471	255.553319900785	0
0	1515	259.190772926313	1
0	1516	259.300125070201	0
0	1541	260.93634700477	1
0	1551	262.236170963568	2
0	1556	263.492836856741	3
0	1557	263.948320551947	2
0	1564	264.304502390196	3
0	1565	264.347802216259	2
0	1571	264.696416139984	3
0	1575	266.050309018051	2
0	1580	266.114467242359	1
0	1584	266.152710427641	2
0	1586	267.0529365429	3
0	1590	268.92824912609	4
0	1594	269.482429304941	5
0	1596	269.501276678491	6
0	1597	269.540851579062	5
0	1602	269.580239598616	4
0	1607	270.799156366724	3
0	1612	272.294263338647	2
0	1616	272.313412125536	3
0	1620	272.853353673999	2
0	1626	272.855496965769	3
0	1628	273.224667078291	4
0	1630	273.245423158066	5
0	1632	273.326501115587	6
0	1635	274.117045222773	5
0	1639	274.26403655157	6
0	1642	274.957585195941	5
0	1651	277.52599016061	4
0	1655	277.686671287253	5
0	1659	278.534499811359	6
0	1662	279.980656142036	5
0	1669	281.032712978868	4
0	1673	281.322048853646	5
0	1676	282.499156219348	4
0	1681	283.947334814314	3
0	1688	285.488295225252	2
0	1692	285.823050360883	3
0	1697	287.600282693707	2
0	1705	288.133178323693	1
0	1710	288.142981163704	0
0	1716	288.424674692101	1
0	1718	288.467324491202	2
0	1721	288.638932078238	3
0	1722	288.975019158777	2
0	1727	289.008643658629	1
0	1731	289.707514691622	2
0	1734	290.423439205388	1
0	1740	292.263202274321	2
0	1744	293.641098188565	3
0	1745	293.880953177139	2
0	1751	294.796885417873	1
0	1757	295.287269744964	2
0	1760	296.291626827633	1
0	1765	296.67268779914	0
0	1815	302.65468858641	1
0	1816	302.898091133201	0
0	1830	304.50286120723	1
0	1834	306.747170709265	2
0	1836	306.79882840081	3
0	1838	306.956544553544	4
0	1839	307.205299182486	3
0	1849	309.517993252473	2
0	1854	309.573941532535	1
0	1860	309.928854298787	0
0	1868	311.513255762555	1
0	1872	312.072890066931	0
0	1889	312.378128704676	1
0	1890	312.696903636192	0
0	1899	314.138529007217	1
0	1900	314.367002496175	0
0	1906	314.463411535638	1
0	1907	314.777063786843	0
0	1918	315.081802081522	1
0	1919	315.375291494054	0
0	1923	315.524264135684	1
0	1925	316.481920098159	2
0	1927	317.524184269506	3
0	1929	317.941697653116	4
0	1932	318.071885392307	3
0	1937	318.539893779353	2
0	1942	319.470068658634	1
0	1947	322.122632300262	0
0	1951	322.195278424255	1
0	1954	322.669287914572	0
0	1977	326.394249057694	1
0	1978	326.726603335674	0
0	2014	330.86150109538	1
0	2017	331.725164288355	0
0	2024	332.171950708419	1
0	2026	332.853397543299	0
0	2046	336.74412262017	1
0	2048	337.26940952601	2
0	2049	337.694367698327	1
0	2055	338.649878036665	2
0	2057	339.561087923915	1
0	2063	341.41263527215	0
0	2087	345.234266609254	1
0	2088	345.741846589193	0
0	2121	349.75331626725	1
0	2124	349.988094271762	0
0	2157	353.256568856347	1
0	2160	353.808086050091	0
0	2197	360.290484119994	1
0	2198	360.815807604273	0
0	2205	360.840799402364	1
0	2206	361.459695300498	0
0	2230	365.181074074813	1
0	2232	365.772504228635	0
0	2249	367.282469036438	1
0	2250	368.094671128377	0
0	2258	368.498465185699	1
0	2259	369.562783882282	0
0	2270	370.71544091125	1
0	2272	371.085699104154	0
0	2312	377.79703584825	1
0	2313	377.855634621978	0
0	2332	380.56418127074	1
0	2336	381.013402137644	0
0	2343	381.758876372467	1
0	2345	381.901930866922	0
0	2368	384.567141578876	1
0	2370	385.055063710599	2
0	2378	386.589409232879	3
0	2379	387.269414764139	2
0	2385	387.784309526887	1
0	2392	389.379364249148	0
0	2413	392.647302443944	1
0	2416	394.306732202298	0
0	2420	394.952997919128	1
0	2422	395.465352006152	2
0	2424	397.766344195878	3
0	2427	398.604877994248	2
0	2434	399.846608974314	3
0	2436	399.882113320713	4
0	2437	400.571744466625	3
0	2443	400.64692165697	4
0	2444	401.553857520843	3
0	2450	401.947135501655	4
0	2452	402.702102592472	5
0	2453	402.888006694629	4
0	2459	403.514903144993	3
0	2465	405.027471927351	2
0	2469	405.402763718223	3
0	2475	406.552310541016	2
0	2480	407.148360973809	1
0	2484	407.236177827734	2
0	2493	410.041997101995	1
0	2498	410.355894425334	0
0	2504	411.126722676576	1
0	2505	411.522019901842	0
0	2561	421.662372849476	1
0	2562	421.81070039568	0
0	2568	421.940678263499	1
0	2569	421.960295802799	0
0	2595	429.477122945853	1
0	2596	429.51964730036	0
0	2616	434.514974405452	1
0	2618	434.552193263004	2
0	2621	434.767183443614	3
0	2622	435.043460408961	2
0	2626	435.468199034129	3
0	2629	435.686406276103	2
0	2633	436.00557854066	3
0	2639	437.159163415427	4
0	2640	437.320924623929	3
0	2645	437.950405702949	2
0	2651	439.754321511658	3
0	2653	440.424540539755	4
0	2660	443.10799578855	5
0	2661	443.328385265816	4
0	2667	443.994552854989	3
0	2672	444.82653541818	2
0	2678	445.492525651233	1
0	2685	447.040798328611	0
0	2702	447.885150092533	1
0	2703	447.994835360092	0
0	2727	450.569545423902	1
0	2729	451.067798741047	2
0	2730	452.193300877674	1
0	2737	453.270088517611	0
0	2743	453.590293640018	1
0	2745	456.429324551327	2
0	2746	456.794287133275	1
0	2750	457.289648264923	2
0	2754	457.862171070974	1
0	2759	457.94459051204	0
0	2772	460.125000756343	1
0	2777	461.806392493732	0
0	2802	466.662438708547	1
0	2804	466.905550283655	2
0	2807	467.384160390045	1
0	2812	467.38651940751	0
0	2818	467.546109689229	1
0	2820	467.730283281897	0
0	2842	471.621366674231	1
0	2843	471.715982368139	0
0	2898	482.545148620408	1
0	2900	482.563625217623	2
0	2902	483.154767695319	3
0	2903	483.615785614248	2
0	2908	484.088043771337	1
0	2914	484.839141682546	2
0	2916	485.069395469574	3
0	2917	485.524415297931	2
0	2922	486.915927720244	1
0	2926	487.501120898897	2
0	2929	489.276542826696	1
0	2934	490.461540199301	0
0	2942	490.841708631707	1
0	2944	492.023117414763	2
0	2947	493.05959554321	1
0	2952	494.349683569954	0
0	2956	495.850708065279	1
0	2958	496.5325855718	2
0	2961	497.44785885911	1
0	2968	499.182092939761	0
0	2987	502.873312320539	1
0	2988	502.957668496188	0
0	3001	503.87080537055	1
0	3002	504.766069489065	0
0	3038	509.705474174945	1
0	3039	509.839323380837	0
0	3059	511.932990031953	1
0	3062	512.960566529653	2
0	3064	513.159667225851	3
0	3067	513.444543348651	2
0	3073	513.971555623672	3
0	3078	514.905035663413	4
0	3080	515.513743803181	3
0	3084	516.370418265593	4
0	3086	517.390383508457	5
0	3090	521.244246685255	4
0	3094	521.485242486149	5
0	3098	522.419474319832	6
0	3100	522.833974147741	7
0	3102	522.987829526785	8
0	3104	523.189551011435	7
0	3110	523.372977399126	8
0	3115	526.010981457569	7
0	3120	526.287798468635	6
0	3127	527.161122075251	5
0	3132	528.339900913274	4
0	3137	529.087441256317	3
0	3141	530.550336500779	4
0	3145	531.132430904328	5
0	3146	531.792028664452	4
0	3154	534.625630899531	3
0	3159	534.659805900844	2
0	3163	535.476391548828	3
0	3165	536.558655329078	4
0	3169	538.080587608113	3
0	3175	539.134033918529	4
0	3176	539.764861890474	3
0	3181	540.616930935196	2
0	3186	541.540924056868	1
0	3194	542.335555646749	2
0	3195	542.618878586992	1
0	3199	543.021743076497	2
0	3201	543.373634732641	3
0	3206	544.202812883068	2
0	3210	544.248032260509	3
0	3216	546.394386977094	4
0	3218	547.493977688188	3
0	3224	547.584193234343	4
0	3227	548.528979162822	5
0	3230	549.282156881699	6
0	3231	549.328812944153	5
0	3236	549.52923718475	4
0	3241	549.656115731479	3
0	3246	550.867864640488	2
0	3251	552.346202607432	1
0	3256	553.317757126159	0
0	3260	553.792447872784	1
0	3262	554.79617196579	2
0	3265	555.162508491342	1
0	3269	555.285301157385	2
0	3274	556.458763233435	3
0	3275	556.910107085094	2
0	3280	556.948992576646	1
0	3284	557.215302447197	2
0	3288	558.925566675997	3
0	3289	560.264314621725	2
0	3293	560.519232221925	3
0	3297	560.819407588201	4
0	3303	563.243110494867	3
0	3311	564.215097568149	4
0	3312	564.681257362521	3
0	3317	564.697103099817	2
0	3322	564.711442999399	1
0	3328	565.711462436924	2
0	3332	566.441890447983	1
0	3337	569.363156007716	0
0	3354	571.427482428842	1
0	3355	571.769119814654	0
0	3371	573.432122849558	1
0	3373	574.502903074532	2
0	3378	576.109926804239	1
0	3383	576.280266152409	0
0	3387	576.665301485077	1
0	3389	579.080183427408	2
0	3393	579.43316156887	3
0	3396	579.756817148239	2
0	3405	581.185975371681	3
0	3407	582.228687528255	4
0	3408	582.516904178911	3
0	3413	582.855691720859	2
0	3418	583.15124407828	1
0	3424	587.368872994349	2
0	3426	587.437400463094	3
0	3427	587.844867035171	2
0	3431	587.962107408	3
0	3434	589.898662847845	2
0	3442	591.848733105629	3
0	3444	592.781528259585	4
0	3445	593.015814670525	3
0	3451	593.869850143976	4
0	3454	594.706329267289	5
0	3457	597.077440470801	6
0	3458	597.217689083961	5
0	3463	597.487688925344	4
0	3473	599.393663064336	5
0	3474	599.938021133941	4
0	3480	600.02056812418	5
0	3481	600.073147833495	4
0	3486	600.169978551121	3
0	3495	601.705045690486	4
0	3497	602.056357052848	5
0	3498	603.150151559871	4
0	3507	604.450705565047	3
0	3512	608.732496084309	2
0	3520	609.333714217737	3
0	3521	609.574744011385	2
0	3526	610.331072341099	1
0	3530	610.579170873097	2
0	3533	611.453486957035	1
0	3540	612.735762270565	0
0	3572	617.738811788986	1
0	3574	618.432273097538	2
0	3579	619.872772144006	1
0	3586	620.938847269631	0
0	3592	620.977503598536	1
0	3593	621.819542816492	0
0	3600	622.246186752651	1
0	3601	622.760166555688	0
0	3609	623.128593049431	1
0	3611	623.195963057538	0
0	3631	624.693631776659	1
0	3634	626.374374868556	0
0	3669	634.502827353702	1
0	3673	635.916684022676	2
0	3676	636.415415777537	1
0	3685	638.184875593151	0
0	3691	638.239415851955	1
0	3692	638.586390957878	0
0	3696	639.223375875973	1
0	3703	640.379011332992	0
0	3709	641.516452432119	1
0	3713	642.346166063971	2
0	3720	643.977174751443	3
0	3724	644.468165693826	4
0	3725	645.126487164705	3
0	3730	646.119237691894	2
0	3735	647.316205774277	1
0	3739	647.617672360206	2
0	3747	651.021113801503	1
0	3753	653.385314159061	0
0	3759	653.395140792487	1
0	3760	653.949176055698	0
0	3781	657.107158492099	1
0	3784	659.687178342555	0
0	3822	667.453084778328	1
0	3824	667.516384613103	2
0	3825	667.662671101619	1
0	3831	667.790110440059	2
0	3832	668.152617262461	1
0	3839	668.98416670826	0
0	3855	670.643177033199	1
0	3862	673.534654131518	2
0	3865	673.903653244129	1
0	3871	674.175397285678	2
0	3872	675.541345214818	1
0	3877	675.6028342216	0
0	3883	676.009813308142	1
0	3884	676.744867556477	0
0	3895	677.808165193364	1
0	3897	678.335606936497	0
0	3947	685.266846952147	1
0	3949	686.512138504166	2
0	3956	689.116702678274	1
0	3961	689.132976555342	0
0	3970	691.277265256983	1
0	3971	691.606792462837	0
0	3980	692.109244238918	1
0	3981	692.112820358683	0
0	3993	692.773377500095	1
0	3994	693.62835118561	0
0	4006	695.46591272467	1
0	4009	696.246181546691	2
0	4013	696.970615991124	3
0	4015	697.466976329606	2
0	4020	697.654235811902	1
0	4025	698.166658668806	0
0	4061	704.546867811608	1
0	4062	705.121531232734	0
0	4076	707.095709294048	1
0	4082	709.548564390771	2
0	4086	711.031301125836	3
0	4087	711.278369256723	2
0	4094	711.760305345844	3
0	4096	712.640478905055	4
0	4097	712.744081087892	3
0	4102	712.944524469226	2
0	4109	714.337821282382	3
0	4113	715.844788187284	2
0	4123	718.786705276165	3
0	4124	719.604292841912	2
0	4131	720.430497022276	1
0	4136	720.912838366047	0
0	4148	722.446745421737	1
0	4151	722.924865044409	2
0	4152	723.077171636335	1
0	4158	723.586392910446	2
0	4160	725.277872352327	3
0	4161	726.366462060516	2
0	4166	726.566074019384	1
0	4171	728.100905514948	0
0	4175	728.149310091564	1
0	4178	728.42020110979	0
0	4182	728.56783530214	1
0	4184	728.920865230405	2
0	4186	728.996573213692	3
0	4190	729.687281155023	4
0	4193	731.297581691735	3
0	4197	731.816941170916	4
0	4199	732.329385743295	5
0	4203	733.405696889099	6
0	4205	733.516251559153	7
0	4206	733.587621593075	6
0	4212	734.075587304394	7
0	4217	736.204662709057	6
0	4221	737.484142788651	7
0	4223	737.709190456392	8
0	4226	741.820763410746	7
0	4231	743.551966271349	6
0	4238	744.779930769323	5
0	4242	745.516091799118	6
0	4245	746.23070834432	5
0	4251	748.367082245256	6
0	4253	748.80270372325	7
0	4257	749.96430536853	8
0	4262	752.05451687398	7
0	4266	752.931454437653	8
0	4269	753.879637484752	7
0	4274	755.104811801956	6
0	4280	755.978465327318	5
0	4286	756.228820050945	6
0	4287	756.543282949539	5
0	4292	757.593830135936	4
0	4299	758.981747905897	5
0	4300	759.057903133802	4
0	4305	759.210280953993	3
0	4312	760.800186768537	2
0	4316	760.965939628646	3
0	4318	761.786225841657	4
0	4320	762.736454569925	5
0	4322	762.992750162738	6
0	4328	765.413659939829	7
0	4330	765.683195012441	8
0	4331	765.894538307	7
0	4335	766.482893495733	8
0	4337	766.744510072796	9
0	4340	767.828736921024	8
0	4345	770.375812206646	7
0	4353	771.118646618267	8
0	4354	771.191672378207	7
0	4361	772.514962394619	8
0	4364	774.818812832045	7
0	4370	775.972199311807	8
0	4371	775.982854835036	7
0	4376	776.440972030686	6
0	4382	776.459591419251	7
0	4383	776.613710953504	6
0	4387	777.054882259377	7
0	4391	777.924767862538	8
0	4393	778.436259870329	9
0	4395	778.61558898399	10
0	4398	779.071316549359	9
0	4402	779.312119271331	10
0	4404	779.494312411067	11
0	4407	781.31612483725	10
0	4411	782.609039375627	11
0	4413	783.183853768702	12
0	4421	786.038461261915	13
0	4423	786.080086550825	14
0	4427	786.737699665823	15
0	4428	786.947435656865	14
0	4435	787.624259596907	13
0	4439	788.14582472128	14
0	4443	788.44419011283	15
0	4445	788.532939962337	16
0	4447	789.026348654541	17
0	4451	789.430684716234	18
0	4452	790.109779417572	17
0	4456	790.668375482583	18
0	4459	790.955757191277	17
0	4465	793.03883061613	18
0	4471	794.472151253464	19
0	4473	795.465186329351	20
0	4475	796.235544193136	21
0	4476	796.654103436282	20
0	4481	796.804959133301	19
0	4488	797.321304588593	18
0	4497	800.24175221414	17
0	4504	801.546757419334	16
0	4510	803.248783250254	17
0	4512	803.292912339053	18
0	4514	804.575849645944	19
0	4517	806.722230212476	18
0	4521	807.216827122255	19
0	4524	809.04331476761	18
0	4528	810.027138283708	19
0	4531	810.936913632527	18
0	4542	814.02440259801	17
0	4547	815.137977286469	16
0	4554	815.196697031214	15
0	4561	817.003563528843	14
0	4568	819.381901866376	13
0	4572	819.618388515466	14
0	4579	821.031902395555	13
0	4583	823.941236600092	14
0	4585	826.965642294783	15
0	4587	827.3749901535	16
0	4592	828.191996440656	17
0	4594	828.343795965408	18
0	4596	828.628899991198	19
0	4597	828.834300188824	18
0	4602	830.09660369374	17
0	4606	831.668729483947	18
0	4608	831.695942956804	19
0	4611	832.929496555712	18
0	4620	833.410701536749	19
0	4621	833.651461532518	18
0	4626	834.141567582947	17
0	4630	834.888851900539	18
0	4634	836.12485596784	19
0	4635	836.744693005102	18
0	4639	836.759790402022	19
0	4642	837.125249863004	18
0	4647	838.271786324164	17
0	4655	839.677894811259	16
0	4660	839.796090623212	15
0	4666	840.767243487373	14
0	4671	840.78276188301	13
0	4677	843.122361865474	14
0	4678	843.406683034368	13
0	4684	848.677867394253	12
0	4690	849.135900986383	13
0	4691	849.226461678802	12
0	4697	849.524523651132	13
0	4698	850.442241581351	12
0	4702	850.465639436995	13
0	4707	852.008337780234	12
0	4714	853.524658566198	13
0	4715	853.988426695189	12
0	4722	854.326335238117	11
0	4727	854.469692813657	10
0	4733	854.483001902447	11
0	4734	854.966626210401	10
0	4744	855.873294131058	11
0	4746	855.876648775169	12
0	4747	856.939358534587	11
0	4752	857.488775192471	10
0	4760	860.641335487977	9
0	4767	861.648745288243	8
0	4774	864.173617696179	7
0	4783	865.685754707613	8
0	4784	866.822454427746	7
0	4789	867.14117152166	6
0	4795	869.057464292763	5
0	4801	870.227335687513	4
0	4806	870.651179311871	3
0	4811	871.044960588023	2
0	4815	873.097802566336	3
0	4819	873.502521827518	4
0	4824	874.589412267817	5
0	4825	874.741764412624	4
0	4832	875.409290556426	5
0	4833	875.744689534593	4
0	4840	876.130545031507	3
0	4844	877.294421108596	4
0	4857	880.661664482702	5
0	4859	881.360813516903	6
0	4860	881.926156020124	5
0	4865	882.31975824894	4
0	4872	882.638077571101	5
0	4873	883.01245809759	4
0	4878	883.06270414833	3
0	4882	884.567106430335	4
0	4889	886.39922849814	3
0	4896	887.111590090921	4
0	4897	887.160764025499	3
0	4902	887.829075529075	2
0	4908	888.130401409039	3
0	4910	888.338673858542	4
0	4912	888.938531652715	3
0	4917	889.251018776994	2
0	4921	890.024610582588	3
0	4924	891.038852256774	2
0	4928	892.38993603941	3
0	4931	892.778869467424	2
0	4936	894.879541204767	1
0	4940	896.623109449437	2
0	4944	897.797777263652	3
0	4947	899.032970787498	2
0	4952	899.476740636021	1
0	4958	900.915323032351	2
0	4960	901.360907902405	3
0	4962	902.172481205243	4
0	4969	905.892214969751	3
0	4973	906.10782277666	4
0	4982	907.262279080374	3
0	4986	908.157028945145	4
0	4989	909.689941259253	3
0	4996	910.392772171722	2
0	5000	911.606975536709	3
0	5002	912.313691862471	4
0	5005	918.735653503403	3
0	5010	918.975247402563	2
0	5014	919.415792088558	3
0	5016	919.456695904633	4
0	5019	922.465493198806	3
0	5023	923.473101601385	4
0	5026	926.609483996538	3
0	5030	926.680399772716	4
0	5035	928.360017818186	5
0	5036	928.774704425247	4
0	5043	930.017232698905	3
0	5049	932.268460122994	4
0	5050	932.930812521883	3
0	5054	933.586679583798	4
0	5056	933.8021119515	5
0	5058	934.698203000057	6
0	5060	934.821690033337	7
0	5063	935.940490799842	6
0	5067	935.968380350462	7
0	5072	937.977624663661	8
0	5074	938.171384084192	9
0	5076	938.359453143466	10
0	5077	938.755507526911	9
0	5084	938.889092773707	8
0	5088	939.136418280815	9
0	5090	939.548147633227	10
0	5092	939.932250150639	11
0	5100	940.568822725805	10
0	5106	941.612306205739	11
0	5107	942.26520057156	10
0	5111	943.004055503294	11
0	5113	943.445631671952	12
0	5115	944.905316526681	13
0	5118	947.105479726455	12
0	5125	948.701465325051	13
0	5130	949.294667691643	12
0	5135	949.688375078967	11
0	5141	950.904021921061	12
0	5142	950.997034643174	11
0	5146	951.621860557354	12
0	5150	952.111859710863	13
0	5154	953.405410483715	12
0	5160	953.655058047282	13
0	5164	954.08739718927	14
0	5165	954.594712861434	13
0	5170	955.772444644354	12
0	5175	956.430158728827	11
0	5180	956.94048432662	10
0	5187	959.468995099318	9
0	5196	962.860794821419	8
0	5201	963.439705024064	7
0	5205	964.270352282266	8
0	5207	964.914858315766	9
0	5209	966.902756940786	10
0	5212	967.159832784569	9
0	5216	967.454725583931	10
0	5218	967.60953044139	11
0	5220	967.684744502026	12
0	5223	967.819292069699	11
0	5229	969.788823483433	12
0	5231	970.210289771383	13
0	5235	971.919454280413	12
0	5241	972.596407995096	11
0	5247	974.778832579674	10
0	5252	974.803230174106	9
0	5257	975.641355497711	8
0	5263	976.285301004127	9
0	5264	976.357263835663	8
0	5268	978.055396927812	9
0	5271	978.457735268588	8
0	5277	980.196783138997	9
0	5278	980.52983575174	8
0	5284	981.368920727541	9
0	5287	981.734674257896	8
0	5292	982.005588539154	7
0	5298	984.371203712961	6
0	5303	984.585163064583	5
0	5308	986.424580692564	4
0	5313	988.79922983488	3
0	5319	991.216463869448	2
0	5324	992.536761092324	1
0	5329	993.53563648503	0
0	5333	993.757986026602	1
0	5339	994.169153346726	2
0	5341	994.235065362185	3
0	5342	994.381226500567	2
0	5348	995.257274164392	3
0	5352	996.654293835227	4
0	5354	997.371112333617	5
0	5355	998.359411630598	4
0	5360	999.07443987328	3
0	5365	999.846633456096	2
0	5370	1000.4980237511	1
0	5375	1000.817275688788	0
0	5381	1003.134887119292	1
0	5382	1003.78147880531	0
0	5396	1004.595178679351	1
0	5398	1005.441632484796	0
0	5418	1007.560607375408	1
0	5420	1008.144653797304	2
0	5422	1008.341992564872	3
0	5423	1008.365305824879	2
0	5430	1009.162657166115	1
0	5437	1009.960958180562	2
0	5438	1010.689311929623	1
0	5444	1010.917138251813	2
0	5445	1010.939051416715	1
0	5452	1012.515046827003	0
0	5476	1014.448434445626	1
0	5480	1015.458746979382	0
0	5488	1016.577115721837	1
0	5493	1017.978858516282	0
0	5505	1018.44327044495	1
0	5507	1018.757334490514	2
0	5508	1019.485852834749	1
0	5514	1019.597880244997	2
0	5515	1019.723281933369	1
0	5524	1021.414200843889	2
0	5525	1022.561551384712	1
0	5535	1023.350257863022	2
0	5537	1023.454734329436	3
0	5539	1024.379657427315	4
0	5540	1024.954918798379	3
0	5546	1025.050288492937	4
0	5547	1025.143036851059	3
0	5557	1027.046955213971	4
0	5558	1027.234037682202	3
0	5563	1027.732197050993	2
0	5568	1029.798761197989	1
0	5574	1031.717462989321	0
0	5598	1032.774203757613	1
0	5600	1033.214116726505	2
0	5601	1033.754849612106	1
0	5608	1034.838171423776	0
0	5629	1036.693240920015	1
0	5631	1038.091744035333	2
0	5633	1039.191210572856	3
0	5635	1039.534639467812	4
0	5640	1041.373927188922	3
0	5645	1042.437869859406	2
0	5651	1042.570597829944	1
0	5657	1042.77038140433	2
0	5658	1043.601691853837	1
0	5665	1044.492569124025	0
0	5673	1045.269124987547	1
0	5675	1045.649547185575	2
0	5676	1045.831210914475	1
0	5682	1046.156389364772	2
0	5683	1046.657462844164	1
0	5691	1047.993954402515	2
0	5692	1048.01763273437	1
0	5697	1049.331090616644	0
0	5709	1052.435230170277	1
0	5711	1052.664624402313	2
0	5713	1053.688254036219	1
0	5718	1053.739284048599	0
0	5755	1060.347717274247	1
0	5759	1062.285274292132	2
0	5761	1063.325773223147	3
0	5771	1065.241768825277	2
0	5776	1065.346028580322	1
0	5782	1066.092490440153	2
0	5785	1066.621555468225	3
0	5788	1067.339451669726	4
0	5789	1067.38052992373	3
0	5796	1067.596126152024	4
0	5797	1068.02693036472	3
0	5807	1069.221658762673	2
0	5813	1070.675912760899	1
0	5820	1071.215736906404	2
0	5823	1071.294005125574	3
0	5824	1071.943402634037	2
0	5830	1072.205994635661	3
0	5832	1072.2752118716	4
0	5834	1072.448766655518	5
0	5835	1072.973401355743	4
0	5841	1073.489886866543	3
0	5848	1074.662598929248	2
0	5855	1076.583865983536	1
0	5860	1076.606885038586	0
0	5903	1083.794332510204	1
0	5906	1084.515413332339	2
0	5910	1086.797988561829	1
0	5915	1086.823127898246	0
0	5936	1088.98869771296	1
0	5938	1089.418383546694	2
0	5942	1090.625579942413	1
0	5952	1092.443392224363	2
0	5954	1093.938663348669	1
0	5959	1094.09914755444	0
0	6008	1098.204654625621	1
0	6011	1098.625271285105	0
0	6034	1106.8929587221	1
0	6037	1107.987046661695	0
0	6043	1108.166210086722	1
0	6045	1108.658543023689	0
0	6067	1110.678741547357	1
0	6070	1113.926697994866	0
0	6081	1114.392140414777	1
0	6085	1116.62910970265	2
0	6087	1117.863634767211	3
0	6088	1117.965058096522	2
0	6094	1118.259081057777	1
0	6099	1118.494606330859	0
0	6111	1118.96891929735	1
0	6112	1119.362643835235	0
0	6129	1120.64049201604	1
0	6132	1122.188682492211	2
0	6135	1122.377489553399	3
0	6136	1122.847623557692	2
0	6143	1122.988227631048	3
0	6144	1123.101347025465	2
0	6151	1123.823234371138	1
0	6156	1124.644825395366	0
0	6172	1125.824449416612	1
0	6174	1126.463597797545	2
0	6177	1130.888951408391	1
0	6182	1131.76294590873	0
0	6193	1132.802023290229	1
0	6197	1134.629746554028	2
0	6199	1135.021608932893	3
0	6201	1135.398475455806	4
0	6202	1135.772156672039	3
0	6212	1137.008959573642	2
0	6216	1137.502571180965	3
0	6221	1138.573556996308	4
0	6224	1139.234814421899	3
0	6230	1139.561941487624	4
0	6231	1139.667352228917	3
0	6237	1140.717536324746	4
0	6238	1140.750034689586	3
0	6242	1144.341771870261	4
0	6245	1145.47817366516	3
0	6249	1146.740425431037	4
0	6253	1147.178311237989	5
0	6257	1147.79059432552	6
0	6258	1148.07372336641	5
0	6264	1149.781080655442	6
0	6266	1149.908471946589	7
0	6267	1150.216053712338	6
0	6271	1152.001482903324	7
0	6275	1154.257533681142	8
0	6281	1155.781001732862	7
0	6286	1156.115258093176	6
0	6295	1157.114813703155	5
0	6299	1157.863005789958	6
0	6306	1159.123823647222	7
0	6309	1160.627499297363	6
0	6316	1161.246376831862	5
0	6321	1161.490487681008	4
0	6327	1161.855242444972	5
0	6328	1162.237337734311	4
0	6333	1162.29188275917	3
0	6338	1162.497101223924	2
0	6342	1164.825051608261	3
0	6345	1166.391926130254	2
0	6350	1166.663338752513	1
0	6358	1170.315289926886	2
0	6360	1170.319170085281	3
0	6362	1171.164157842059	4
0	6364	1172.494600750894	5
0	6366	1172.502146624478	6
0	6367	1173.124280084695	5
0	6373	1173.893197269357	6
0	6374	1174.776725281337	5
0	6379	1175.792694013287	4
0	6383	1176.824835497412	5
0	6385	1177.025418150304	6
0	6387	1177.75553739479	7
0	6390	1178.163943555404	6
0	6394	1178.209563789212	7
0	6396	1178.236172119065	8
0	6399	1180.883604879847	7
0	6404	1182.680715881764	6
0	6412	1185.620646365753	7
0	6414	1185.862527438172	8
0	6415	1185.89188884954	7
0	6419	1186.019233030845	8
0	6428	1187.615923198975	9
0	6429	1188.010021294465	8
0	6435	1188.579512730546	7
0	6441	1188.633419158643	8
0	6442	1188.792416928098	7
0	6448	1190.261164124058	6
0	6454	1190.321062679048	7
0	6455	1190.393824201016	6
0	6462	1191.683210736114	7
0	6463	1191.929903985839	6
0	6468	1192.200243542951	5
0	6473	1192.850975584885	4
0	6477	1193.371128270903	5
0	6479	1193.826931676152	6
0	6481	1195.229879279923	7
0	6485	1195.468711544608	8
0	6486	1195.581915673885	7
0	6490	1196.44788032027	8
0	6492	1196.815393817539	9
0	6496	1197.854832259614	10
0	6500	1200.032651654518	9
0	6506	1200.696469219763	10
0	6508	1201.004358310585	11
0	6510	1201.262192964651	12
0	6511	1201.776580812831	11
0	6515	1202.019615036742	12
0	6523	1207.255457023406	11
0	6528	1207.534183182321	10
0	6534	1209.070055712311	11
0	6542	1211.587805087175	10
0	6550	1213.565293253211	9
0	6556	1213.721803288195	10
0	6558	1214.179922648668	9
0	6567	1215.964390589122	8
0	6573	1216.322758569648	9
0	6576	1217.460056984635	8
0	6581	1217.911258849109	7
0	6586	1218.288377645672	6
0	6592	1219.567598083113	7
0	6594	1220.504830827313	6
0	6599	1220.52920820712	5
0	6604	1222.096619216518	4
0	6609	1222.495621788	3
0	6617	1224.95144891896	4
0	6619	1225.882769840824	5
0	6621	1225.900936867186	6
0	6630	1227.472136423628	5
0	6635	1227.513257816677	4
0	6641	1228.932950698324	5
0	6643	1229.479397530391	6
0	6644	1229.675507056417	5
0	6649	1234.184543134651	4
0	6654	1234.871339371098	3
0	6659	1236.067865118207	2
0	6668	1237.863510338423	1
0	6676	1239.735745012472	2
0	6677	1239.864054899256	1
0	6682	1241.051245668671	0
0	6698	1242.832669288125	1
0	6704	1245.816656662406	0
0	6716	1246.488806913838	1
0	6717	1247.231258239873	0
0	6723	1247.486503564545	1
0	6725	1248.305424657348	2
0	6727	1248.356729736722	3
0	6730	1248.606711360097	4
0	6733	1249.11117322613	5
0	6736	1249.85816125538	4
0	6742	1250.286844773483	5
0	6743	1250.355270976918	4
0	6748	1250.364819935941	3
0	6753	1250.470882790396	2
0	6759	1251.545242308202	3
0	6761	1251.719342954777	4
0	6763	1252.479443885733	5
0	6764	1252.690536204918	4
0	6768	1254.147058846937	5
0	6776	1255.331378019605	6
0	6778	1256.307643779698	5
0	6784	1256.330596252231	6
0	6785	1257.466324013944	5
0	6794	1260.320361324899	4
0	6800	1260.683626511488	5
0	6804	1261.593722637025	4
0	6809	1261.734928868991	3
0	6815	1262.499925185708	4
0	6818	1263.536956196837	3
0	6826	1264.940785819959	2
0	6832	1265.553522186428	3
0	6833	1265.89439496697	2
0	6839	1269.315248085658	3
0	6840	1269.676293067644	2
0	6846	1270.584221711266	1
0	6853	1270.745074755886	2
0	6854	1271.005007315431	1
0	6862	1271.735339255257	0
0	6879	1274.060896975291	1
0	6882	1276.342143248553	0
0	6890	1277.107621310489	1
0	6891	1277.64880003156	0
0	6895	1278.856411910531	1
0	6898	1279.339680725235	0
0	6921	1280.639403249729	1
0	6923	1281.013532727004	0
0	6950	1288.910599441199	1
0	6953	1289.129419792207	0
0	6962	1290.02910073135	1
0	6964	1290.49574358994	2
0	6972	1292.404078996027	3
0	6980	1295.002491318521	2
0	6985	1295.188820657767	1
0	6994	1295.864399793964	2
0	6995	1295.888791352577	1
0	7001	1296.058291211724	2
0	7004	1296.527779546461	3
0	7005	1296.759660269337	2
0	7012	1298.17573880455	1
0	7016	1298.564029411463	2
0	7020	1300.03698140314	3
0	7024	1300.627765137877	4
0	7031	1301.936590005885	3
0	7036	1303.991835012478	2
0	7044	1305.259673848466	1
0	7048	1305.352393405227	2
0	7056	1306.016794497523	3
0	7057	1306.749739950097	2
0	7063	1307.005118960618	1
0	7069	1307.077478455966	2
0	7071	1307.302834209185	3
0	7074	1308.390039363489	4
0	7075	1308.427592915691	3
0	7080	1308.756837188609	2
0	7086	1310.568283924038	1
0	7092	1311.266419340765	0
0	7098	1311.434291924391	1
0	7102	1312.08281852678	0
0	7144	1318.106111971297	1
0	7145	1318.900624507828	0
0	7151	1318.957818747523	1
0	7154	1319.544333385389	0
0	7161	1321.158853542097	1
0	7163	1321.513756228992	0
0	7170	1322.29245047814	1
0	7171	1322.315011461031	0
0	7189	1325.816538638675	1
0	7193	1326.488663619295	2
0	7199	1327.174231133306	1
0	7204	1327.820136718334	0
0	7216	1329.03494111174	1
0	7218	1329.516484864886	2
0	7221	1329.789491172062	3
0	7224	1330.902564983905	2
0	7229	1331.626927845362	1
0	7234	1331.845327624145	0
0	7248	1332.743008952906	1
0	7252	1333.623171591915	2
0	7257	1336.378822445396	1
0	7263	1336.395702431432	2
0	7264	1336.622067784743	1
0	7269	1336.877714614598	0
0	7297	1339.643030534227	1
0	7299	1340.256155144565	0
0	7320	1341.712857584389	1
0	7322	1341.991769938683	2
0	7326	1342.570351160506	3
0	7327	1342.625767998851	2
0	7335	1343.160891728605	3
0	7336	1343.182332469775	2
0	7340	1344.426776098652	3
0	7344	1345.222388868584	4
0	7346	1345.492573730188	3
0	7352	1347.256132744933	2
0	7361	1349.363977144665	1
0	7367	1349.410328544425	2
0	7368	1350.060536698036	1
0	7375	1350.797484588739	2
0	7377	1352.382708309963	1
0	7382	1354.126728118222	0
0	7393	1356.559829746565	1
0	7395	1356.711563438921	2
0	7396	1356.95254426291	1
0	7400	1357.642511359356	2
0	7405	1360.190902335447	3
0	7407	1360.882301802024	4
0	7409	1360.973655430222	5
0	7410	1361.999926567357	4
0	7415	1363.339885431255	3
0	7421	1364.592025667887	4
0	7424	1365.210547580549	3
0	7430	1367.545033032559	4
0	7433	1368.857429116796	3
0	7440	1370.426666676234	4
0	7442	1371.578015222048	5
0	7443	1371.767592092974	4
0	7448	1371.831258533823	3
0	7453	1372.639818622612	2
0	7457	1373.169011412582	3
0	7460	1374.076232338315	2
0	7464	1374.123919978725	3
0	7466	1374.540230502684	4
0	7470	1376.830294435446	5
0	7473	1377.247362139748	6
0	7474	1377.412750398222	5
0	7480	1378.097942999389	6
0	7481	1378.658438150552	5
0	7485	1378.707066940765	6
0	7488	1380.243369243302	5
0	7492	1382.165451708629	6
0	7494	1383.173111581599	7
0	7497	1383.47782449933	6
0	7502	1384.611238072887	5
0	7507	1386.253390157818	4
0	7515	1388.403706862542	5
0	7516	1390.112494482602	4
0	7522	1391.243093079117	3
0	7529	1392.845938994392	2
0	7535	1393.27556912048	1
0	7540	1393.669768126401	0
0	7566	1395.151694617354	1
0	7570	1396.069462301055	0
0	7574	1396.776008725943	1
0	7578	1398.378208518067	2
0	7580	1398.536455572439	3
0	7582	1398.907509931313	4
0	7585	1399.805231156915	3
0	7589	1400.473965731281	4
0	7593	1400.815690706792	5
0	7594	1400.941429024317	4
0	7600	1401.879254971259	3
0	7605	1401.880552544351	2
0	7612	1404.198051088994	3
0	7615	1404.422005904439	4
0	7616	1405.893812682084	3
0	7622	1406.342694733118	4
0	7623	1406.381619517148	3
0	7629	1407.683096961555	4
0	7634	1409.81924563843	3
0	7639	1411.290243706693	2
0	7644	1411.778946284645	1
0	7650	1412.271962181858	2
0	7652	1412.404309814159	1
0	7661	1413.095797303803	0
0	7667	1413.545013997251	1
0	7668	1413.832637406469	0
0	7672	1414.739603824939	1
0	7675	1415.166956201537	0
0	7709	1420.222647924244	1
0	7710	1420.606355562916	0
0	7718	1421.091014398783	1
0	7719	1421.454651639105	0
0	7730	1422.052904400275	1
0	7732	1422.443494664584	0
0	7740	1423.908375735606	1
0	7742	1423.959018837798	2
0	7748	1427.753012060804	3
0	7749	1427.783559278735	2
0	7755	1427.829236805098	3
0	7760	1429.145490332096	2
0	7766	1429.8993451367	3
0	7768	1430.235073501543	4
0	7769	1430.434386542646	3
0	7774	1430.80246090663	2
0	7779	1431.371866429366	1
0	7785	1431.916594167635	2
0	7786	1433.363337949147	1
0	7791	1433.963814722972	0
0	7807	1436.142120912301	1
0	7811	1437.841941303347	2
0	7812	1438.441997960765	1
0	7817	1438.733144023915	0
0	7845	1443.539427658573	1
0	7846	1444.351264419498	0
0	7862	1447.214604278373	1
0	7864	1448.181011345238	2
0	7866	1449.214619973454	3
0	7871	1451.740738671613	2
0	7876	1451.753834109846	1
0	7882	1451.847863453454	2
0	7889	1453.010036341651	3
0	7891	1454.063044915488	2
0	7896	1454.569717166833	1
0	7906	1457.499848187931	0
0	7920	1459.310289545942	1
0	7921	1459.367004109319	0
0	7942	1460.916411286311	1
0	7943	1461.198982649808	0
0	7952	1462.641893847678	1
0	7956	1463.84640848963	2
0	7962	1466.370312775569	3
0	7964	1467.307620080099	4
0	7968	1468.669721314374	3
0	7976	1468.917169122016	4
0	7978	1469.746359929856	3
0	7984	1470.283657295278	2
0	7992	1470.880976316256	1
0	7997	1470.995789247845	0
0	8004	1471.077322626085	1
0	8006	1471.436086583038	2
0	8007	1471.870968097994	1
0	8012	1472.691057766718	0
0	8032	1473.390348427435	1
0	8038	1474.688948157653	2
0	8040	1474.80142858147	3
0	8042	1475.62049567941	4
0	8044	1476.058624854656	5
0	8048	1476.899343818018	6
0	8051	1477.919155845948	7
0	8055	1480.173978124428	6
0	8065	1481.183668686724	7
0	8067	1482.757133587338	8
0	8069	1482.791006825321	9
0	8070	1483.131020543689	8
0	8075	1483.42008901639	7
0	8081	1483.919347124973	6
0	8086	1484.228144245557	5
0	8092	1484.280043273505	6
0	8094	1484.42345537231	7
0	8096	1484.686981344202	6
0	8101	1486.102550918488	5
0	8105	1486.209213322916	6
0	8110	1488.431742359093	5
0	8115	1489.407392483405	4
0	8123	1491.67169593449	3
0	8128	1492.2861795824	2
0	8135	1492.885951036196	1
0	8141	1493.806822591309	2
0	8144	1494.287691078865	1
0	8148	1495.614821674333	2
0	8153	1496.368733777182	1
0	8159	1497.427870702638	2
0	8160	1497.584584023487	1
0	8165	1497.79629037294	0
0	8185	1501.129050375917	1
0	8188	1502.109702978587	0
0	8194	1503.010682264273	1
0	8196	1503.161712248601	2
0	8199	1503.926975461232	3
0	8201	1504.383689970543	4
0	8203	1506.134100478307	3
0	8208	1506.63862556384	2
0	8216	1507.954338148009	3
0	8217	1508.261524504523	2
0	8223	1510.048351032768	3
0	8225	1510.220133448632	4
0	8226	1510.804860558352	3
0	8230	1510.819596536882	4
0	8232	1512.447825179027	5
0	8239	1515.922564006573	6
0	8240	1516.974860169021	5
0	8245	1517.328637376013	4
0	8249	1517.685564082144	5
0	8253	1519.175677693348	6
0	8254	1519.595525343483	5
0	8259	1520.730234334847	4
0	8264	1521.951512252301	3
0	8271	1525.199930744216	2
0	8276	1525.285045188385	1
0	8281	1525.329246201931	0
0	8305	1529.288109033481	1
0	8306	1529.742596255299	0
0	8315	1530.340108974161	1
0	8317	1530.726082037165	2
0	8318	1531.60525042185	1
0	8323	1531.851403543885	0
0	8329	1531.986815555275	1
0	8333	1533.151348513697	0
0	8355	1535.773563352972	1
0	8357	1538.914854829311	2
0	8360	1539.566496484215	3
0	8362	1540.207685870951	2
0	8368	1540.427744883386	3
0	8371	1541.241248939484	4
0	8373	1541.477890555396	5
0	8374	1542.46175399623	4
0	8379	1544.410196341766	3
0	8385	1544.789533203125	4
0	8387	1544.920280556211	5
0	8388	1545.028976280313	4
0	8393	1545.884184360297	3
0	8397	1545.936446835693	4
0	8399	1547.115536158659	5
0	8409	1550.743338822138	4
0	8414	1552.144784668084	3
0	8419	1553.655813825272	2
0	8424	1554.349864447971	1
0	8429	1555.072841516082	0
0	8435	1555.97102121917	1
0	8436	1556.030915972176	0
0	8440	1556.032127735158	1
0	8442	1557.050662213444	2
0	8446	1558.852498250102	3
0	8449	1559.140267846916	2
0	8453	1559.152084823394	3
0	8456	1560.974845821124	2
0	8462	1561.664738229843	3
0	8464	1561.839570809968	4
0	8466	1561.869251881133	5
0	8472	1562.878770429249	6
0	8473	1563.227084681579	5
0	8478	1563.520868359612	4
0	8482	1564.243573600787	5
0	8484	1564.705822963684	6
0	8487	1566.078806849533	5
0	8491	1566.153863638501	6
0	8494	1566.217861632646	5
0	8500	1567.923278389643	6
0	8503	1568.95783692192	5
0	8508	1570.807330197761	4
0	8520	1572.591344845282	3
0	8525	1572.630856403997	2
0	8529	1573.267962205934	3
0	8532	1574.26905354002	2
0	8537	1577.116796820239	1
0	8542	1580.200780574258	0
0	8553	1582.299595516916	1
0	8554	1582.92830975675	0
0	8567	1584.59646598197	1
0	8569	1585.139666475736	2
0	8570	1585.343380190629	1
0	8575	1586.377149765455	0
0	8601	1592.457812573792	1
0	8607	1595.354355448393	2
0	8608	1595.38410120366	1
0	8616	1596.196805784149	2
0	8619	1597.658557396695	1
0	8626	1598.382309661853	0
0	8665	1603.148578454577	1
0	8670	1606.590083489887	0
0	8685	1608.808689241591	1
0	8690	1609.818650756714	2
0	8691	1610.135025887146	1
0	8697	1610.200396006497	2
0	8700	1610.479492924215	3
0	8701	1610.733699482188	2
0	8707	1611.207636463926	1
0	8714	1612.662420750355	0
0	8729	1613.730814254328	1
0	8731	1614.115200975279	0
0	8760	1617.726369476963	1
0	8764	1618.37144423404	2
0	8765	1619.332255574711	1
0	8770	1619.64420257821	0
0	8820	1628.956133755722	1
0	8823	1629.504270345324	0
0	8833	1632.017005557766	1
0	8835	1632.257416013359	2
0	8837	1632.601688561503	3
0	8842	1637.87361199696	4
0	8844	1637.897190320451	5
0	8846	1638.055426120973	6
0	8850	1638.769822611053	7
0	8852	1638.855347544904	8
0	8854	1639.08702374264	9
0	8856	1639.097202869472	10
0	8861	1640.900513372256	9
0	8866	1641.321340219661	8
0	8872	1641.327249968971	9
0	8873	1641.457261687807	8
0	8878	1641.558326307573	7
0	8882	1641.565768763266	8
0	8885	1643.447305940601	7
0	8891	1643.672299914657	8
0	8892	1643.900082107195	7
0	8899	1645.267159886358	6
0	8904	1646.614366037322	5
0	8908	1646.79075595408	6
0	8910	1649.427266091794	7
0	8916	1651.682722173087	8
0	8923	1652.928461671938	7
0	8930	1654.177352459771	8
0	8932	1654.539147228196	9
0	8934	1655.876267400425	10
0	8936	1657.256540331393	11
0	8938	1657.295086300528	12
0	8940	1657.453135827769	13
0	8942	1657.941701855415	14
0	8944	1658.09850379138	15
0	8945	1658.918534889385	14
0	8949	1660.31053120862	15
0	8953	1661.507791160445	16
0	8955	1661.81615360291	17
0	8957	1662.203148401445	18
0	8959	1662.510314883351	19
0	8961	1665.224147310442	20
0	8966	1665.69017883213	19
0	8971	1666.105776016335	18
0	8977	1666.741297751806	19
0	8979	1666.957574228394	20
0	8980	1667.921220295561	19
0	8987	1669.871259546661	18
0	8994	1671.271242151535	19
0	8995	1671.344233626378	18
0	9000	1671.530757046239	17
0	9005	1672.745232781239	16
0	9010	1673.318132310231	15
0	9014	1673.318170531147	16
0	9016	1674.189823723576	17
0	9020	1674.496229269346	18
0	9026	1676.447415055043	17
0	9031	1677.202670867941	16
0	9036	1678.255125168888	15
0	9046	1680.179123121043	14
0	9051	1681.769055045918	13
0	9057	1682.229180258554	14
0	9058	1682.438880636941	13
0	9062	1682.608735417021	14
0	9067	1683.631143925707	13
0	9072	1684.144297414043	12
0	9079	1685.000597733755	11
0	9083	1685.182916229224	12
0	9086	1686.982960879959	11
0	9090	1687.798325001529	12
0	9094	1689.980817868135	13
0	9096	1690.639035711928	12
0	9104	1691.591472796556	13
0	9105	1691.748211278041	12
0	9110	1691.900505401639	11
0	9116	1691.915353476179	12
0	9118	1692.623468035739	13
0	9119	1693.354065997743	12
0	9124	1693.863631405103	11
0	9128	1694.775194317613	12
0	9130	1694.860946104718	13
0	9133	1695.861019469716	12
0	9138	1696.565225381719	11
0	9146	1697.503712858268	12
0	9149	1698.935360781939	13
0	9150	1699.294645249796	12
0	9156	1699.352447845351	13
0	9159	1699.726544569011	14
0	9161	1699.989678591591	15
0	9162	1700.447399351096	14
0	9167	1701.66568819928	13
0	9172	1701.717768297894	12
0	9179	1702.631956651307	13
0	9180	1703.253294779112	12
0	9186	1704.301955675127	11
0	9191	1704.454608430364	10
0	9196	1704.768209625856	9
0	9200	1705.546704460156	10
0	9206	1707.199752242965	11
0	9207	1707.457635872802	10
0	9211	1707.820584653597	11
0	9216	1709.229996848568	10
0	9222	1709.540535074736	11
0	9225	1710.292236434145	10
0	9229	1710.868897148963	11
0	9233	1713.485014643938	12
0	9234	1713.993036327474	11
0	9239	1714.950876770268	10
0	9244	1715.113871310796	9
0	9248	1716.11611845296	10
0	9251	1717.013276124832	9
0	9256	1717.886257761066	8
0	9263	1718.720632784764	7
0	9268	1720.19978898367	6
0	9272	1720.310055938496	7
0	9276	1720.835727761475	8
0	9277	1721.863113170007	7
0	9282	1722.834210957989	6
0	9286	1723.928158734502	7
0	9290	1725.132149103369	8
0	9293	1726.78945539929	7
0	9297	1728.649869240586	8
0	9301	1728.932865296808	9
0	9305	1730.471707139868	10
0	9309	1732.381150075131	11
0	9310	1732.737202475847	10
0	9314	1733.124591369826	11
0	9318	1733.214001910681	12
0	9319	1733.277682646073	11
0	9324	1734.805925952888	10
0	9328	1735.069219093144	11
0	9332	1735.962956657013	10
0	9337	1736.821706668454	9
0	9344	1738.509574688282	8
0	9349	1739.384042876651	7
0	9354	1741.70757675058	6
0	9358	1741.905388287504	7
0	9363	1744.694761087806	8
0	9364	1744.985775549297	7
0	9369	1745.250343452642	6
0	9374	1745.950596961497	5
0	9383	1747.060051592412	6
0	9384	1747.455321230056	5
0	9390	1750.516442126044	6
0	9391	1750.703807561154	5
0	9396	1751.266845124778	4
0	9401	1753.453966651019	3
0	9406	1754.612005962197	2
0	9410	1754.864169107135	3
0	9412	1754.905897233313	4
0	9416	1756.64010801866	5
0	9417	1756.656304094524	4
0	9422	1756.966851569628	3
0	9427	1757.420726124387	2
0	9432	1757.582276080127	1
0	9438	1760.044735947732	2
0	9439	1760.104654873438	1
0	9443	1761.737092411885	2
0	9447	1762.642167527707	3
0	9451	1764.643441014229	2
0	9457	1764.720813686029	3
0	9458	1765.044315717018	2
0	9468	1767.650216152029	1
0	9474	1767.779189076368	2
0	9475	1767.866633720066	1
0	9481	1769.178128754349	2
0	9483	1769.419612571438	3
0	9484	1770.332195802993	2
0	9488	1770.746190904009	3
0	9491	1772.238934983691	2
0	9497	1773.152581248174	3
0	9499	1773.461506093528	4
0	9501	1773.728373057699	3
0	9507	1774.321274952737	2
0	9512	1774.365635807197	1
0	9516	1775.212688851919	2
0	9519	1775.658748334824	1
0	9525	1777.575981350418	0
0	9531	1777.595601797632	1
0	9533	1778.090610857828	2
0	9534	1779.102489359394	1
0	9541	1780.659541779017	0
0	9553	1783.574274924792	1
0	9556	1784.131559480488	2
0	9557	1784.501244636407	1
0	9563	1786.741610547504	0
0	9575	1789.91855001181	1
0	9577	1790.29682522672	2
0	9578	1790.507814250417	1
0	9585	1790.760810416267	2
0	9586	1791.13197322613	1
0	9591	1791.350756220201	0
0	9595	1792.263205199272	1
0	9599	1794.921505868285	2
0	9601	1795.94319524344	3
0	9603	1796.526676628761	4
0	9606	1797.294523914098	3
0	9611	1798.369927644004	2
0	9617	1799.710981682337	3
0	9621	1801.562295980681	2
0	9627	1801.656967141044	3
0	9628	1801.854885338293	2
0	9634	1802.198786763646	3
0	9635	1802.407338602755	2
0	9641	1803.156470909957	1
0	9646	1803.164404818332	0
0	9660	1804.629610168106	1
0	9661	1805.167856089428	0
0	9669	1806.908997651381	1
0	9671	1808.15162321318	2
0	9673	1808.481304639919	3
0	9675	1809.284465488099	4
0	9676	1809.472742271282	3
0	9681	1809.983535567425	2
0	9687	1810.928798344365	3
0	9688	1810.984967333344	2
0	9696	1813.174827395613	1
0	9701	1813.308458671504	0
0	9707	1814.674659896869	1
0	9710	1815.054885190939	0
0	9714	1815.108996589275	1
0	9716	1815.682674559842	2
0	9718	1817.042142044425	3
0	9720	1817.83476911103	4
0	9723	1818.866065081601	3
0	9727	1819.089420017945	4
0	9733	1819.561065644928	5
0	9734	1819.627991305986	4
0	9739	1820.292935070759	3
0	9745	1820.451301114058	4
0	9746	1823.059898869644	3
0	9754	1825.145653318973	2
0	9760	1825.154947718808	3
0	9761	1825.214612700629	2
0	9767	1825.726335654312	1
0	9773	1826.162266972731	2
0	9775	1826.715236861258	3
0	9777	1827.312034462065	4
0	9779	1827.468111121865	5
0	9780	1828.301800548149	4
0	9784	1828.863504452797	5
0	9789	1829.551030192329	4
0	9794	1829.947482563195	3
0	9800	1831.15261480612	2
0	9805	1831.628072070057	1
0	9810	1832.046902584089	0
0	9814	1832.730551350078	1
0	9817	1833.807688755424	0
0	9836	1838.724057343534	1
0	9838	1839.111471609644	2
0	9839	1839.669269533407	1
0	9844	1840.051490705857	0
0	9850	1842.929459512139	1
0	9852	1842.937624533203	2
0	9854	1842.939799201702	3
0	9855	1842.965602830659	2
0	9860	1843.328360840621	1
0	9864	1843.87713097233	2
0	9866	1843.999514777807	3
0	9870	1844.692377431387	4
0	9873	1844.884825297008	3
0	9877	1845.815100439759	4
0	9881	1847.116001165239	3
0	9886	1847.234363070278	2
0	9890	1848.072588616493	3
0	9895	1848.871618987815	2
0	9899	1849.35537907509	3
0	9901	1850.1618473616	4
0	9906	1852.699936099095	3
0	9910	1854.257153753955	4
0	9912	1854.319730631722	5
0	9916	1854.945341602695	4
0	9923	1855.158081841468	3
0	9929	1855.32300302449	4
0	9930	1855.386851416469	3
0	9935	1855.715122291166	2
0	9939	1855.770855049602	3
0	9942	1857.576094660682	2
0	9948	1859.374868413279	3
0	9949	1859.497269698859	2
0	9953	1860.342640155393	3
0	9957	1861.401292042911	4
0	9960	1862.285505568737	3
0	9967	1863.709963358811	2
0	9974	1866.8539471088	1
0	9979	1866.991340864072	0
0	10002	1870.526607350877	1
0	10004	1870.822127690095	0
0	10010	1870.852670948643	1
0	10011	1870.968811104016	0
0	10046	1874.987618262955	1
0	10048	1875.29779887918	2
0	10050	1875.632580955743	1
0	10057	1875.747523258267	0
0	10064	1876.319367474783	1
0	10065	1876.666246467479	0
0	10079	1877.2599919914	1
0	10080	1877.507828676344	0
0	10086	1877.546966213185	1
0	10087	1877.756062541161	0
0	10127	1882.928672587836	1
0	10128	1883.358035305217	0
0	10145	1884.485049029875	1
0	10147	1886.893994819822	2
0	10151	1889.143401740075	3
0	10153	1889.273296458968	4
0	10157	1892.052350656428	5
0	10158	1892.133109094772	4
0	10163	1892.452298609817	3
0	10170	1893.1059818682	2
0	10175	1893.701635993718	1
0	10181	1894.672348770645	0
0	10190	1896.122749612602	1
0	10192	1896.604472940702	2
0	10193	1897.175597762239	1
0	10199	1897.855417097567	2
0	10210	1901.272123840795	1
0	10215	1901.35658062858	0
0	10251	1905.801410741403	1
0	10255	1906.386023794199	2
0	10256	1906.790533025994	1
0	10266	1908.645462533334	2
0	10268	1909.282135003862	3
0	10270	1910.194276412435	4
0	10271	1910.305038035483	3
0	10276	1910.775791034284	2
0	10284	1911.078314065481	3
0	10285	1911.18729856778	2
0	10290	1911.572038846597	1
0	10296	1911.939586604602	0
0	10308	1911.981598379216	1
0	10309	1912.547637710715	0
0	10320	1912.793933912548	1
0	10321	1913.537683862757	0
0	10339	1914.500218571374	1
0	10340	1914.541636365011	0
0	10346	1916.944282918797	1
0	10348	1917.128233327684	0
0	10377	1923.095464965533	1
0	10380	1924.199629564971	0
0	10391	1925.255927302915	1
0	10393	1925.292354748634	2
0	10394	1925.336315619955	1
0	10400	1925.435223730505	2
0	10402	1925.452723434736	3
0	10404	1925.619467556705	4
0	10406	1925.927305971928	5
0	10407	1926.593930860678	4
0	10413	1926.842545351963	5
0	10414	1927.0612191181	4
0	10419	1928.055352332863	3
0	10423	1929.574100827659	4
0	10427	1930.259308969554	5
0	10431	1930.3317385869	6
0	10442	1933.336363962019	7
0	10444	1933.777147105806	6
0	10450	1933.947332036742	7
0	10451	1934.064623639449	6
0	10456	1934.148434050362	5
0	10463	1936.180822919848	4
0	10474	1938.094627535331	3
0	10482	1938.58993207161	4
0	10484	1939.560737793345	3
0	10489	1939.651485992487	2
0	10495	1940.011237121417	3
0	10497	1940.912197051619	4
0	10498	1942.711283725206	3
0	10503	1942.875018425595	2
0	10508	1943.391045291031	1
0	10512	1943.542889703212	2
0	10514	1943.781661244998	3
0	10517	1944.382760191402	2
0	10521	1944.655880578095	3
0	10525	1946.047203847344	2
0	10530	1946.50000599528	1
0	10536	1946.854020945888	0
0	10548	1948.507291376254	1
0	10550	1949.554233732953	0
0	10566	1951.623249542352	1
0	10569	1952.292429333688	0
0	10580	1952.469676096963	1
0	10586	1953.388291495737	2
0	10589	1954.061044348388	3
0	10591	1954.475483365532	2
0	10596	1955.05994996009	1
0	10601	1955.16692674918	0
0	10611	1956.410838573075	1
0	10612	1957.408651155637	0
0	10616	1957.902492075173	1
0	10618	1958.196348247469	2
0	10621	1958.367179259001	1
0	10627	1960.485724440239	2
0	10631	1960.753042769054	3
0	10634	1960.959324823277	4
0	10637	1962.167902792552	3
0	10643	1963.959300207062	2
0	10649	1964.206058047127	3
0	10651	1965.122524957381	2
0	10656	1965.554015829239	1
0	10662	1966.04518508127	2
0	10663	1966.947683470329	1
0	10668	1967.218571344421	0
0	10672	1967.439488009753	1
0	10675	1969.830543177855	0
0	10679	1970.722123027177	1
0	10684	1971.660944456802	0
0	10688	1972.284086192472	1
0	10692	1972.407225690099	2
0	10695	1974.02711752257	1
0	10701	1975.903775373667	2
0	10704	1976.151509157699	1
0	10711	1977.591090122029	2
0	10712	1977.700257395552	1
0	10717	1978.254796407592	0
0	10721	1978.432338383503	1
0	10727	1979.733805152826	0
0	10733	1979.873631801058	1
0	10736	1980.405637354143	0
0	10744	1981.381470284275	1
0	10745	1981.812165851768	0
0	10763	1984.085853081961	1
0	10765	1984.514188496558	2
0	10769	1985.169300227366	1
0	10774	1985.259431181139	0
0	10784	1990.867686324269	1
0	10785	1991.092497534669	0
0	10789	1992.161457104787	1
0	10791	1992.190256983078	2
0	10795	1992.593330264145	1
0	10802	1992.841065662068	2
0	10805	1993.897263404549	1
0	10810	1994.415490689361	0
0	10814	1994.740878328891	1
0	10818	1995.64741258164	2
0	10823	1996.889560226282	1
0	10828	1997.007745130629	0
0	10871	2001.65250596878	1
0	10873	2002.515424863751	2
0	10875	2003.055122358677	1
0	10881	2003.236557198496	2
0	10882	2003.597240991156	1
0	10888	2004.550775075747	0
0	10899	2005.712693315328	1
0	10906	2007.619076752422	2
0	10908	2008.817442221006	3
0	10909	2009.880549362527	2
0	10914	2010.486529124254	1
0	10920	2011.14054785217	0
0	10978	2023.113607569587	1
0	10981	2024.506351400779	2
0	10988	2026.74990547126	1
0	10993	2027.148129791069	0
0	11001	2029.488654636198	1
0	11003	2029.584016084765	2
0	11004	2029.997113473287	1
0	11010	2030.451992561502	2
0	11011	2032.240855807027	1
0	11016	2032.520001509708	0
0	11032	2033.027102994899	1
0	11035	2033.755597635425	2
0	11038	2034.597772065021	3
0	11041	2034.820045210666	4
0	11046	2035.629751568201	3
0	11055	2037.237763122855	2
0	11061	2037.647362463769	1
0	11066	2037.763624431359	0
0	11083	2039.242563549248	1
0	11084	2039.383012984263	0
0	11090	2039.934701610857	1
0	11092	2040.042753544033	2
0	11094	2040.687762897655	1
0	11099	2041.394504285031	0
0	11103	2042.591824691802	1
0	11105	2042.72975802309	2
0	11107	2044.039571733906	3
0	11109	2044.43527621278	4
0	11111	2046.505408014583	5
0	11114	2048.119062451663	4
0	11119	2049.0201709612	3
0	11123	2049.441391670295	4
0	11125	2050.806446685216	5
0	11130	2052.405787013509	4
0	11137	2052.717343711754	3
0	11143	2054.260703919599	4
0	11145	2054.696741302454	5
0	11147	2055.599891179495	4
0	11154	2056.26820609735	3
0	11159	2058.864195029943	2
0	11167	2060.909739429562	3
0	11168	2061.411265005857	2
0	11172	2063.556728673194	3
0	11174	2063.925655201417	4
0	11179	2064.91687907818	3
0	11185	2066.166658865221	2
0	11192	2066.573263661345	3
0	11193	2066.91787497373	2
0	11198	2067.851383163326	1
0	11206	2070.310321462154	2
0	11207	2070.390820550769	1
0	11211	2071.130534673066	2
0	11216	2071.675662151913	1
0	11221	2072.295916215589	0
0	11228	2074.142534416418	1
0	11230	2074.911276449325	2
0	11231	2075.311898087089	1
0	11237	2075.342903736579	2
0	11240	2075.540635697895	1
0	11245	2077.332602016253	0
0	11251	2081.778010629473	1
0	11260	2084.089460838277	0
0	11271	2084.338532063463	1
0	11273	2084.953707145248	2
0	11275	2085.094843870418	1
0	11280	2085.249856302883	0
0	11284	2085.778421029361	1
0	11287	2086.031143823645	0
0	11298	2088.028048896183	1
0	11300	2088.750090981391	2
0	11302	2089.556691781307	3
0	11307	2089.982168621561	4
0	11311	2092.372819942765	5
0	11314	2093.831058075704	4
0	11320	2094.62247509584	5
0	11321	2094.724252348408	4
0	11326	2094.812301859677	3
0	11333	2096.431243773422	2
0	11338	2097.346932779892	1
0	11342	2098.286076971698	2
0	11344	2098.401999812079	3
0	11346	2099.208825346105	4
0	11348	2099.508323006145	5
0	11352	2099.938814802425	6
0	11354	2100.037409139964	7
0	11357	2100.106748657199	6
0	11364	2101.491579520164	5
0	11369	2101.722213573703	4
0	11373	2103.102420599384	5
0	11375	2103.694996581037	6
0	11377	2105.395054571288	7
0	11380	2108.033799857277	6
0	11389	2109.509103062996	7
0	11390	2109.645588732487	6
0	11396	2109.87192533572	5
0	11401	2110.012649519836	4
0	11405	2110.163875162269	5
0	11410	2110.575261129329	6
0	11411	2110.630681855317	5
0	11416	2112.179434468047	4
0	11421	2113.784848396266	3
0	11425	2113.99590490229	4
0	11427	2115.646197403621	5
0	11429	2116.013916499789	6
0	11432	2116.229131916939	5
0	11437	2117.316418610318	4
0	11443	2117.689064326756	5
0	11444	2118.145492952701	4
0	11449	2118.449253680846	3
0	11454	2119.619814338344	2
0	11460	2123.236404061899	1
0	11466	2123.481632236936	2
0	11467	2127.143751349715	1
0	11472	2127.905119923004	0
0	11501	2132.924931987753	1
0	11503	2133.460881952204	0
0	11518	2135.632869847275	1
0	11527	2137.204145622119	2
0	11528	2137.568227853449	1
0	11535	2138.101795666237	0
0	11541	2138.118536796403	1
0	11545	2139.62079307749	2
0	11546	2139.80570754083	1
0	11553	2139.820407600125	2
0	11554	2140.046353404377	1
0	11560	2140.190349874446	2
0	11561	2141.10173861777	1
0	11566	2141.275900435332	0
0	11579	2143.772803576996	1
0	11581	2146.125273834363	2
0	11582	2146.136177323068	1
0	11588	2147.180289123706	0
0	11592	2148.751607875125	1
0	11596	2150.387130468236	2
0	11598	2150.663958168377	3
0	11599	2152.538351589343	2
0	11604	2152.990738690034	1
0	11608	2154.25725938346	2
0	11611	2154.570596939012	1
0	11619	2154.962101333952	0
0	11648	2158.259102994956	1
0	11654	2159.657166332921	0
0	11682	2163.547505152853	1
0	11683	2163.809601282678	0
0	11702	2169.218671976414	1
0	11703	2169.285371320965	0
0	11725	2172.539798390334	1
0	11728	2175.080229538773	0
0	11746	2177.267616956266	1
0	11747	2178.138974240422	0
0	11781	2183.319056872783	1
0	11783	2183.428335733378	2
0	11785	2183.751143367482	3
0	11788	2186.840549402617	2
0	11795	2188.454005500309	1
0	11801	2188.708347443283	2
0	11802	2189.429546716413	1
0	11807	2189.750230762941	0
0	11818	2190.65773901809	1
0	11820	2191.359421784152	2
0	11821	2191.576209055326	1
0	11825	2192.421375213973	2
0	11828	2194.507502470146	1
0	11832	2195.063604348921	2
0	11834	2195.764686430776	3
0	11836	2196.642549525279	4
0	11839	2196.796372244552	3
0	11845	2197.549553291717	4
0	11848	2198.041701867201	3
0	11852	2199.001958914971	4
0	11855	2199.250097933653	3
0	11865	2201.840606474471	2
0	11873	2202.525924413455	3
0	11875	2202.561341842934	2
0	11880	2203.181843537473	1
0	11886	2203.830811811489	2
0	11887	2205.513633904419	1
0	11891	2205.852485682685	2
0	11896	2207.548492564161	1
0	11900	2208.087655457732	2
0	11903	2208.46770172136	1
0	11907	2208.88535778789	2
0	11911	2209.918362793409	1
0	11916	2210.054038867112	0
0	11937	2214.616000903582	1
0	11939	2215.272437539436	2
0	11940	2215.59342343953	1
0	11945	2216.233786914714	0
0	11964	2216.79890666792	1
0	11965	2216.825289308094	0
0	11998	2221.527456800597	1
0	11999	2221.809358080876	0
0	12008	2222.69498965106	1
0	12012	2223.562433667837	0
0	12021	2224.367975564485	1
0	12035	2227.395272141867	0
0	12042	2228.21879065186	1
0	12043	2228.394879271442	0
0	12056	2229.536073457608	1
0	12059	2230.261463451984	0
0	12066	2230.653510578734	1
0	12068	2230.875921395368	2
0	12070	2232.149318339152	3
0	12071	2232.229564022539	2
0	12077	2233.771825687526	3
0	12078	2234.608569138324	2
0	12083	2234.809325689025	1
0	12087	2234.882595431734	2
0	12089	2235.144018816553	3
0	12092	2236.487648992186	2
0	12097	2237.041149025227	1
0	12102	2237.303493385302	0
0	12120	2240.773863424185	1
0	12122	2240.888657429778	2
0	12124	2241.902499136725	1
0	12129	2242.152451494188	0
0	12133	2243.048754405742	1
0	12135	2243.454967837137	2
0	12137	2243.868944385639	3
0	12141	2244.577634367184	4
0	12142	2244.831268751074	3
0	12147	2245.712150697455	2
0	12154	2247.575495866173	1
0	12158	2247.788787312653	2
0	12161	2248.21764372682	1
0	12165	2248.922413417022	2
0	12167	2249.693137464066	3
0	12172	2251.955091540727	4
0	12173	2252.232545348057	3
0	12179	2252.593222596043	4
0	12184	2253.562105750899	5
0	12185	2253.566948710053	4
0	12190	2253.617698581079	3
0	12196	2255.090385768295	4
0	12200	2256.021128824191	5
0	12201	2256.439490385665	4
0	12206	2256.95697769488	3
0	12212	2257.420890298057	4
0	12213	2257.653608177833	3
0	12218	2258.607919911122	2
0	12225	2259.067287681818	1
0	12233	2262.355596674201	2
0	12235	2265.008297775924	3
0	12236	2265.27194437864	2
0	12240	2265.475241340386	3
0	12245	2267.786777407262	2
0	12259	2270.855279534487	3
0	12260	2270.883903777229	2
0	12264	2271.233103721737	3
0	12270	2273.32316955497	2
0	12275	2273.489897556192	1
0	12281	2274.101292509322	2
0	12282	2274.198386550426	1
0	12286	2274.290412170699	2
0	12294	2276.844710590971	3
0	12297	2277.993808504123	4
0	12300	2278.635256035881	3
0	12309	2279.134543959346	4
0	12310	2279.388810617871	3
0	12315	2279.931939085248	2
0	12321	2280.463719727493	3
0	12323	2280.792573480322	4
0	12328	2283.155446014813	3
0	12333	2283.211892217626	2
0	12338	2284.869318709518	1
0	12343	2285.919095957515	0
0	12347	2286.260188030625	1
0	12349	2286.272539317043	2
0	12352	2287.557467640271	1
0	12359	2288.656587338376	0
0	12370	2288.919585255279	1
0	12375	2289.302440925554	2
0	12378	2290.941691823815	1
0	12384	2291.156449783346	2
0	12387	2291.758055888569	3
0	12388	2292.909637184294	2
0	12394	2293.233708125037	3
0	12396	2293.497887756882	4
0	12397	2294.253782286104	3
0	12403	2294.26119983107	4
0	12406	2294.962325648638	5
0	12408	2296.554475007203	6
0	12413	2297.320741690738	5
0	12419	2297.987410577693	4
0	12425	2298.343879353502	5
0	12428	2298.574601644615	6
0	12432	2299.394928452459	7
0	12433	2299.520122587327	6
0	12439	2300.569205518004	7
0	12440	2301.007026580383	6
0	12447	2304.249685728847	5
0	12451	2305.409601481991	6
0	12456	2306.59501079981	7
0	12458	2306.772062914662	8
0	12463	2308.834884463734	7
0	12469	2309.112062114214	8
0	12470	2309.696193410488	7
0	12475	2310.329235634889	6
0	12483	2311.216391207762	7
0	12484	2311.643089185496	6
0	12491	2312.359014252828	5
0	12496	2312.905521224401	4
0	12502	2315.162335908803	5
0	12503	2316.162156376193	4
0	12509	2317.043647172005	5
0	12510	2317.116548268486	4
0	12516	2318.550512781928	5
0	12519	2318.700215265914	4
0	12525	2320.677661836232	5
0	12528	2321.556031846288	6
0	12530	2321.881382565717	7
0	12531	2322.221368082119	6
0	12537	2323.10339238889	5
0	12542	2323.147478911322	4
0	12550	2323.785569051884	3
0	12558	2325.440633979846	2
0	12564	2325.560600924846	3
0	12565	2325.573413144269	2
0	12570	2326.310758949231	1
0	12577	2327.932632779579	0
0	12585	2328.994157527921	1
0	12589	2330.460312415718	2
0	12592	2331.283546531965	1
0	12598	2332.279993882076	2
0	12599	2333.220522972403	1
0	12604	2333.948141838407	0
0	12608	2334.413836566416	1
0	12612	2335.844365502294	2
0	12616	2337.391254869531	1
0	12622	2337.683465042624	2
0	12627	2338.455187220387	1
0	12631	2339.237443460275	2
0	12634	2339.814399005903	1
0	12640	2340.097090424601	2
0	12641	2340.464358975333	1
0	12646	2341.207269985069	0
0	12652	2341.242988978185	1
0	12654	2341.44853679747	2
0	12655	2341.557778145255	1
0	12660	2343.108292768418	0
0	12666	2345.944912848466	1
0	12668	2347.104695513293	0
0	12680	2347.678419702225	1
0	12682	2348.061872658834	2
0	12684	2348.168620001113	3
0	12685	2348.256862843116	2
0	12690	2348.537879861886	1
0	12696	2351.49188543749	2
0	12697	2351.650221164635	1
0	12702	2351.83419948231	0
0	12727	2354.603485284545	1
0	12730	2355.828965076059	0
0	12740	2358.100121551523	1
0	12741	2358.136508553541	0
0	12757	2361.946112580605	1
0	12758	2362.422355890446	0
0	12764	2363.312426095195	1
0	12766	2364.137067653749	2
0	12767	2365.610874498234	1
0	12774	2366.263600342328	0
0	12785	2366.872818269351	1
0	12787	2366.949289776614	0
0	12795	2367.056841643709	1
0	12798	2367.597764690968	0
0	12814	2368.068093682471	1
0	12815	2368.118072630276	0
0	12825	2369.528110087237	1
0	12826	2370.380328489502	0
0	12834	2373.464459045754	1
0	12840	2374.811164431711	0
0	12870	2378.086694390611	1
0	12871	2378.729781367072	0
0	12880	2378.746922595006	1
0	12882	2378.755123100774	0
0	12888	2379.274044036091	1
0	12893	2379.397144367285	0
0	12921	2383.535673115437	1
0	12923	2384.786283209645	0
0	12929	2385.14038763838	1
0	12930	2385.766534684666	0
0	12944	2387.461327824542	1
0	12948	2388.587522513491	2
0	12953	2389.615028037759	1
0	12959	2389.812784739506	2
0	12960	2390.793132250309	1
0	12967	2392.10576392827	0
0	12982	2393.424298368858	1
0	12986	2397.457834799161	2
0	12987	2397.727840445384	1
0	12994	2398.927448037926	0
0	13000	2399.335596312927	1
0	13002	2399.654778873642	2
0	13003	2400.060368942648	1
0	13007	2400.064516357279	2
0	13012	2401.320468823987	3
0	13019	2401.599682532687	4
0	13023	2402.815399223235	3
0	13028	2403.253301847806	2
0	13033	2403.27243437184	1
0	13038	2403.355208417296	0
0	13042	2404.135941706106	1
0	13049	2404.899262625923	0
0	13055	2405.237227763175	1
0	13056	2405.848004250525	0
0	13060	2406.087120355761	1
0	13064	2406.23018964272	2
0	13065	2406.483833833806	1
0	13069	2408.078569230966	2
0	13071	2408.083203205117	3
0	13075	2408.829986700271	4
0	13079	2409.505993593307	5
0	13081	2409.805384722322	6
0	13082	2409.988351112759	5
0	13086	2411.100812694551	6
0	13090	2414.794862028315	5
0	13097	2416.739808114484	4
0	13106	2418.419580278053	3
0	13112	2418.637823286935	4
0	13113	2419.272914555895	3
0	13119	2420.283839232459	2
0	13125	2420.462482119414	3
0	13128	2420.929830713441	4
0	13132	2422.120942353863	3
0	13138	2422.429254583328	4
0	13140	2422.69490160436	5
0	13141	2422.849489320848	4
0	13147	2423.126698907278	5
0	13148	2423.12686338369	4
0	13152	2423.310062634613	5
0	13154	2423.51145701426	6
0	13158	2423.787154588643	7
0	13159	2424.170162423343	6
0	13165	2424.998966403857	5
0	13172	2425.709070369072	6
0	13173	2426.046452987581	5
0	13178	2426.472992211252	4
0	13184	2427.259865968224	5
0	13186	2427.507185155456	6
0	13187	2427.703952244315	5
0	13192	2429.135781220932	4
0	13196	2429.137173322413	5
0	13199	2429.501919715754	4
0	13207	2432.337336661368	3
0	13212	2432.480774241348	2
0	13216	2433.653527853207	3
0	13219	2433.916765533719	2
0	13225	2434.003990583409	3
0	13226	2434.409898674167	2
0	13230	2434.56343405573	3
0	13233	2434.757225363005	2
0	13237	2435.823513648886	3
0	13240	2437.176888096864	2
0	13245	2440.293298314555	1
0	13257	2443.189191705493	2
0	13259	2443.949582577755	3
0	13261	2444.612517831856	4
0	13262	2445.309090666741	3
0	13267	2446.053896991339	2
0	13273	2448.376328084532	1
0	13279	2449.101724821995	0
0	13343	2460.558671291866	1
0	13345	2461.159015886153	2
0	13349	2462.514564365522	3
0	13351	2462.901049545071	4
0	13352	2463.196735451124	3
0	13358	2464.416036722731	2
0	13363	2464.615631174074	1
0	13369	2464.73396158268	0
0	13397	2467.359818269633	1
0	13398	2467.880076704215	0
0	13404	2468.161397810514	1
0	13406	2468.363127064872	2
0	13407	2468.519985957187	1
0	13413	2470.141074787612	2
0	13415	2470.347716625513	3
0	13416	2470.773298054841	2
0	13423	2472.333990345597	3
0	13424	2473.038893255353	2
0	13430	2473.132325188893	3
0	13431	2473.339075717537	2
0	13437	2473.810164367225	3
0	13441	2475.265278938048	2
0	13447	2476.869816844527	3
0	13448	2477.098337323419	2
0	13455	2479.327891686148	1
0	13460	2479.921131260547	0
0	13472	2480.788927714447	1
0	13473	2481.073476358266	0
0	13477	2481.151598255378	1
0	13479	2481.26464323533	2
0	13484	2482.593543553178	1
0	13488	2482.961078377762	2
0	13494	2484.381749625016	1
0	13500	2484.779275975984	2
0	13501	2485.37752330606	1
0	13505	2487.023397501732	2
0	13507	2489.102442449266	3
0	13513	2490.134451637177	4
0	13515	2491.149651586702	3
0	13520	2491.188585860405	2
0	13526	2491.631970561779	3
0	13528	2492.406736119634	4
0	13529	2492.793108529625	3
0	13538	2494.270955508673	2
0	13544	2496.915049874881	3
0	13549	2498.630102264819	4
0	13551	2498.664646583636	5
0	13552	2499.322845293736	4
0	13557	2499.508654142188	3
0	13561	2499.645710909953	4
0	13564	2499.890017375481	3
0	13568	2500.290794209318	4
0	13573	2503.619718676239	3
0	13578	2503.670389935376	2
0	13583	2503.710622792159	1
0	13589	2504.054530094317	2
0	13590	2504.085319481095	1
0	13594	2505.616663371465	2
0	13596	2505.656105549723	3
0	13599	2506.203105196865	2
0	13604	2507.448163965558	1
0	13610	2507.636212639969	2
0	13612	2507.7378411926	3
0	13614	2507.970471867227	4
0	13615	2508.169553765652	3
0	13619	2508.607389463211	4
0	13623	2509.553164567198	5
0	13627	2511.46958660614	6
0	13629	2511.707583953924	7
0	13631	2511.942959473558	6
0	13636	2512.007098562937	5
0	13641	2513.387960529935	4
0	13646	2514.301560313336	3
0	13658	2518.763988986634	2
0	13664	2519.110279036235	3
0	13669	2519.938509981526	4
0	13670	2520.054989589768	3
0	13675	2520.508691179248	2
0	13682	2521.029798182366	1
0	13688	2521.431040813741	2
0	13689	2521.903140253572	1
0	13700	2525.257156088504	0
0	13743	2529.204192417116	1
0	13744	2529.880504618553	0
0	13755	2531.677733648627	1
0	13757	2532.206993876197	2
0	13759	2533.714971648316	3
0	13761	2534.028863935822	4
0	13766	2536.96617131186	3
0	13772	2537.04548126182	4
0	13773	2537.657975361126	3
0	13780	2538.090182488682	4
0	13783	2538.403343546888	5
0	13785	2539.154296396716	4
0	13790	2539.422251589189	3
0	13796	2540.081190053144	4
0	13798	2540.879864104398	3
0	13803	2542.02059937419	2
0	13808	2542.540236234786	1
0	13815	2544.675877085715	2
0	13817	2545.327307834302	1
0	13822	2545.609482189896	0
0	13828	2545.856585265514	1
0	13831	2546.54075471749	0
0	13837	2546.820917996601	1
0	13840	2547.071024189785	2
0	13841	2547.291084255826	1
0	13846	2547.381865960507	0
0	13865	2552.389037772926	1
0	13867	2553.372085217347	2
0	13870	2553.81859982056	3
0	13872	2553.935678716208	4
0	13874	2554.563445567409	5
0	13875	2555.061755807573	4
0	13880	2555.711047355494	3
0	13885	2557.515743651848	2
0	13892	2560.011610574368	1
0	13897	2560.881212456785	0
0	13901	2561.247638846975	1
0	13904	2562.091720060843	0
0	13910	2562.78574610275	1
0	13911	2563.211792077959	0
0	13926	2566.396249237674	1
0	13929	2569.601137524317	0
0	13953	2571.084344543867	1
0	13958	2571.775685350053	2
0	13959	2572.102519606079	1
0	13966	2572.469616075518	0
0	13980	2575.14118241636	1
0	13981	2575.711734086271	0
0	13987	2575.938411170325	1
0	13989	2575.979398516756	2
0	13990	2576.557864940453	1
0	13997	2577.959281056038	2
0	13998	2578.704007634174	1
0	14003	2579.034740167297	0
0	14031	2583.529240295212	1
0	14034	2583.834830352564	0
0	14044	2584.998345156655	1
0	14048	2586.091808679927	0
0	14059	2586.888409350492	1
0	14061	2587.033043777033	2
0	14067	2588.350065469086	1
0	14072	2589.128589609091	0
0	14092	2591.091494609426	1
0	14096	2591.646531903988	0
0	14110	2593.166003828584	1
0	14113	2593.547933165208	0
0	14121	2594.853160054564	1
0	14122	2595.451611753189	0
0	14128	2595.597569058434	1
0	14129	2596.208946670207	0
0	14135	2597.088295047014	1
0	14138	2597.247389576192	0
0	14142	2597.51556642928	1
0	14147	2598.250215923436	2
0	14148	2598.888775599781	1
0	14156	2600.318486155334	0
0	14162	2601.474515388793	1
0	14163	2601.981362697319	0
0	14180	2605.446049207475	1
0	14182	2605.878493112873	2
0	14186	2606.250139293332	1
0	14193	2607.759758496419	0
0	14199	2607.942801508806	1
0	14201	2608.387449482576	2
0	14202	2609.333570424077	1
0	14208	2609.824317325462	2
0	14209	2609.848098365345	1
0	14213	2609.854973833939	2
0	14216	2610.627285362457	1
0	14223	2612.56645109184	0
0	14229	2613.338084332997	1
0	14231	2615.615435676376	2
0	14233	2615.625372985274	3
0	14239	2619.521392405475	2
0	14244	2619.774260363896	1
0	14250	2620.043199616465	2
0	14255	2621.182237465073	1
0	14262	2624.669887913312	0
0	14284	2626.487836624277	1
0	14286	2626.721630758093	0
0	14294	2627.880961893102	1
0	14295	2627.920582637524	0
0	14311	2630.766317031995	1
0	14317	2632.090756664172	0
0	14344	2635.915365726656	1
0	14349	2638.040241527778	0
0	14365	2638.790707984308	1
0	14366	2640.221591056341	0
0	14377	2640.547389909508	1
0	14378	2640.700980281941	0
0	14385	2641.228374857024	1
0	14388	2642.297881870953	0
0	14397	2642.681073099456	1
0	14401	2642.803827878196	2
0	14402	2642.904714672288	1
0	14408	2642.937438831488	2
0	14409	2643.229884994107	1
0	14416	2643.534152197053	2
0	14418	2643.935728706632	1
0	14423	2644.557821043309	0
0	14446	2649.185787714113	1
0	14447	2649.187548193675	0
0	14470	2651.875648638038	1
0	14473	2652.381929517617	0
0	14481	2652.880453827039	1
0	14485	2653.405081612692	2
0	14488	2654.749052461462	1
0	14494	2655.495531629099	0
0	14520	2658.222133328811	1
0	14522	2658.76740586816	2
0	14527	2658.981089355002	1
0	14535	2660.191724613861	0
0	14571	2668.164694906207	1
0	14572	2668.80124494388	0
0	14581	2669.799681143583	1
0	14584	2669.975384690949	0
0	14603	2672.211618884994	1
0	14604	2672.252238513599	0
0	14617	2673.676074360245	1
0	14621	2676.491651274748	0
0	14630	2677.505724034598	1
0	14633	2678.771034191938	0
0	14652	2680.379103081867	1
0	14657	2682.54031953345	0
0	14690	2687.371584557385	1
0	14692	2688.255443709631	2
0	14693	2688.355361002571	1
0	14701	2689.302100265861	2
0	14702	2689.463469535728	1
0	14708	2689.827321435979	2
0	14710	2689.950974537798	3
0	14712	2691.542345927406	4
0	14713	2691.836002690802	3
0	14719	2693.393912346549	4
0	14720	2693.723989429725	3
0	14725	2693.869896711844	2
0	14729	2694.224146404311	3
0	14731	2695.032044881313	4
0	14736	2695.519610517583	5
0	14737	2695.582765878002	4
0	14742	2696.097170202483	3
0	14746	2697.362284986935	4
0	14750	2697.831353651538	5
0	14757	2698.88038872908	6
0	14758	2699.208358865685	5
0	14763	2699.294203709941	4
0	14770	2699.637064816462	3
0	14778	2699.773989282606	4
0	14779	2701.378664026599	3
0	14785	2701.44956484014	4
0	14787	2701.505298876421	3
0	14793	2701.57347878491	4
0	14794	2701.671480202259	3
0	14802	2705.36805383225	2
0	14807	2706.211430966312	1
0	14812	2707.189898191364	0
0	14825	2707.777618086723	1
0	14827	2708.757732032659	0
0	14852	2711.748770610844	1
0	14854	2712.278174115021	2
0	14855	2712.775261427207	1
0	14860	2713.209902471852	0
0	14874	2714.685231915233	1
0	14875	2714.930086744912	0
0	14898	2720.687406929402	1
0	14899	2720.720516671022	0
0	14926	2724.94745143848	1
0	14927	2725.246660431701	0
0	14953	2729.216704979702	1
0	14954	2729.518793782429	0
0	14999	2738.197670562118	1
0	15004	2740.934647326966	0
0	15026	2743.472804480779	1
0	15028	2743.576912386603	2
0	15029	2743.827905932948	1
0	15034	2743.852575146849	0
0	15047	2745.460964272039	1
0	15048	2745.636189331692	0
0	15059	2747.36044191909	1
0	15060	2748.183539211174	0
0	15076	2749.952568233422	1
0	15079	2751.142199779083	2
0	15080	2751.271648523447	1
0	15085	2751.375977110875	0
0	15096	2752.359380265567	1
0	15097	2753.980539410963	0
0	15148	2761.374574528912	1
0	15149	2762.249562179088	0
0	15173	2763.85908052892	1
0	15177	2765.822630635719	2
0	15179	2765.899045455891	3
0	15186	2768.976600565361	2
0	15191	2769.35456655883	1
0	15197	2769.729379706736	0
0	15203	2770.035515497985	1
0	15204	2770.140825385155	0
0	15211	2770.49102831449	1
0	15213	2770.708805050008	2
0	15214	2771.668332359578	1
0	15218	2772.805343432874	2
0	15221	2775.352555831002	1
0	15227	2776.925569495549	0
0	15253	2779.383354607695	1
0	15255	2779.844939103095	2
0	15258	2780.555300626108	1
0	15265	2782.95626861474	0
0	15276	2784.552476421872	1
0	15281	2786.042527414518	2
0	15282	2786.208139039429	1
0	15287	2786.356946947758	0
0	15302	2787.31629942058	1
0	15307	2789.170670997178	0
0	15330	2791.105639644296	1
0	15332	2791.191674284058	2
0	15336	2791.615673637614	1
0	15343	2791.692299733437	0
0	15349	2793.601946453333	1
0	15350	2793.905509044449	0
0	15357	2794.899157272273	1
0	15359	2795.252043141198	0
0	15370	2795.932398698533	1
0	15373	2797.260558365571	0
0	15385	2797.985422986558	1
0	15387	2798.428933700509	0
0	15401	2799.773481733647	1
0	15404	2801.850794923751	0
0	15430	2805.720216412428	1
0	15431	2805.993351587372	0
0	15458	2809.401572017788	1
0	15462	2810.68835889451	2
0	15465	2810.997941407681	1
0	15470	2811.12932485972	0
0	15518	2820.613011912723	1
0	15520	2821.573522690777	2
0	15521	2822.155005966865	1
0	15526	2822.496380064742	0
0	15552	2824.635313839595	1
0	15553	2824.716958594899	0
0	15564	2826.058721676499	1
0	15567	2827.807977658227	0
0	15585	2831.145145131653	1
0	15589	2832.183118190354	0
0	15613	2833.620922317987	1
0	15615	2834.240086958456	2
0	15617	2834.556643305697	3
0	15620	2834.951960906059	2
0	15627	2835.162214922978	3
0	15628	2835.268964623926	2
0	15635	2836.127499697277	1
0	15644	2837.541001560662	0
0	15665	2839.989993874829	1
0	15667	2839.996942271977	2
0	15673	2841.959836545438	3
0	15675	2842.039913715576	4
0	15678	2842.366006263492	5
0	15679	2842.465673155778	4
0	15690	2844.601824807409	5
0	15691	2844.741924447804	4
0	15697	2844.944358025684	3
0	15702	2844.972151169321	2
0	15708	2845.417250602751	3
0	15710	2845.994842579734	4
0	15713	2847.075193033091	5
0	15714	2847.347950517595	4
0	15720	2847.687667126902	5
0	15721	2848.025993085922	4
0	15729	2849.511063962826	5
0	15730	2851.092647304498	4
0	15736	2851.862994045779	5
0	15738	2852.428019646482	6
0	15739	2852.48200129017	5
0	15748	2853.925538720649	4
0	15753	2854.0423406577	3
0	15760	2854.419684111769	2
0	15765	2854.481249191967	1
0	15773	2856.299968500791	2
0	15775	2857.950537543789	3
0	15778	2859.239093465819	2
0	15784	2860.167009547095	3
0	15790	2861.284473381528	4
0	15791	2861.341119597613	3
0	15798	2862.209744560534	2
0	15807	2863.983836081665	1
0	15814	2865.588780062396	0
0	15818	2866.532151656955	1
0	15821	2867.393265510186	0
0	15825	2868.552307376336	1
0	15828	2868.669890971652	0
0	15832	2869.078777817222	1
0	15834	2869.186325084786	2
0	15839	2871.156923357394	3
0	15840	2871.349418172057	2
0	15845	2871.731781979321	1
0	15849	2872.936467029218	2
0	15853	2873.325616132021	3
0	15855	2873.457208838962	4
0	15857	2874.530719263919	5
0	15859	2876.728744975424	6
0	15862	2877.074608540382	5
0	15866	2878.748055229018	6
0	15869	2878.911173902205	5
0	15875	2879.285933089331	6
0	15876	2881.534692251518	5
[...]
4	155815	28202.324164788091	3035.7196390529
4	155820	28202.367447986844	3031.5068899248
4	155826	28203.714815102614	3032.8016340674
4	155839	28208.847162928643	3035.4454906009
4	155872	28216.058892830342	3038.0239289403
4	155880	28216.903043311537	3028.5724110803
4	155894	28221.756124582784	3028.4318412759
4	155907	28223.136330880932	3024.8200328722
4	155914	28223.551984782056	3018.9330280247
4	155924	28224.231852340804	3019.1897644545
4	155933	28228.213880430448	2998.4535986527
4	155959	28234.956627939152	3001.9562366898
4	155979	28236.595168145968	3001.9067713561
4	155984	28237.4518374273	2999.9046148516
4	155989	28237.671805384352	2998.1955774327
4	155996	28238.841113876326	2997.2265572028
4	156010	28243.147726842924	2998.4932690256
4	156026	28244.440549545265	2992.6756076331
4	156036	28246.951891394039	2994.7328938856
4	156041	28247.624787413828	2992.284873994
4	156050	28251.183315807779	2995.6487080594
4	156065	28254.310518090479	2997.7596210056
4	156081	28257.66355230887	2999.7771744094
4	156286	28293.624847221655	3031.5552122492
4	156291	28293.902975854493	3031.154630949
4	156296	28294.45443532512	3030.9953123963
4	156303	28294.881886303943	3030.8838140054
4	156310	28295.504271984586	3028.7250083841
4	156481	28331.409358809394	3055.6072804572
4	156488	28331.909494441435	3051.8467652378
4	156494	28332.559656822449	3051.7872626061
4	156505	28333.965700610143	3046.1891885839
4	156517	28335.806176562037	3042.2015507506
4	156547	28339.778431980839	3044.8206507681
4	156744	28377.195041315161	3075.185669466
4	156749	28377.470357845146	3073.5951078896
4	156760	28380.826734853645	3068.7272334069
4	156774	28382.475946870468	3066.279497976
4	156785	28382.578971887279	3066.0467698047
4	156791	28383.586602153215	3059.2677262662
4	156800	28384.889830064209	3056.9235707758
4	156814	28385.908441219149	3056.004524577
4	156821	28387.520808838468	3048.413094222
4	156847	28392.281242472698	3052.9962008667
4	156869	28393.780517944234	3053.7436728354
4	156881	28394.670306270186	3038.7154448215
4	156886	28394.699569312824	3034.2771846501
4	156897	28398.600401201173	3036.1298896603
4	156917	28401.785289803374	3039.246471649
4	156928	28406.011226833154	3040.1604315627
4	156935	28406.981580997996	3040.0902980755
4	156955	28410.64214777011	3042.8241154938
4	156973	28412.442658003973	3041.7645212485
4	157026	28421.80361075049	3049.6969903253
4	157040	28423.622743197571	3047.157216303
4	157051	28424.366910275727	3046.8682598337
4	157068	28428.761413162853	3051.0216309708
4	157144	28437.552992940474	3057.9447097392
4	157149	28438.138910917451	3057.6119561673
4	157157	28438.752390916227	3058.0066826613
4	157169	28439.10371570712	3056.4629603102
4	157214	28445.942920459084	3062.5044740631
4	157235	28450.250193342208	3047.4884539147
4	157322	28466.831201550523	3053.0857482832
4	157330	28467.340658371799	3051.7237075959
4	157350	28468.786003782997	3046.5791789642
4	157358	28469.542558881057	3047.1107623685
4	157370	28470.43597007751	3041.9321803837
4	157481	28487.049478843051	3055.2352201735
4	157490	28488.190573876674	3052.6488190564
4	157495	28488.611278937308	3050.0186442302
4	157501	28489.386339620945	3050.2510724132
4	157506	28489.56443977465	3047.87262257
4	157513	28489.712556484696	3047.7158211008
4	157523	28492.294396376708	3044.8204721189
4	157532	28494.279565182407	3039.5286012205
4	157537	28494.491416380826	3033.1521526736
4	157558	28501.368018610285	3037.3516635058
4	157605	28507.192387545115	3033.9212799542
4	157613	28507.538758139233	3034.1492034421
4	157623	28509.366639669866	3035.8432683698
4	157629	28509.422060496399	3029.4634146414
4	157636	28511.238021060355	3027.2173972673
4	157655	28513.028002400446	3013.535475755
4	157711	28520.786651605987	3012.3801571293
4	157716	28520.884038417646	3008.1384865398
4	157721	28521.244555596652	3002.5993962768
4	157730	28523.964686687614	3001.5998913259
4	157745	28526.5214728325	3003.9828192202
4	157754	28528.242099171619	3002.17393045
4	157759	28528.247585600623	2993.788213561
4	157766	28529.89631449911	2994.0874406186
4	157771	28531.577030689677	2995.4649232451
4	157782	28533.6374523459	2996.1639699262
4	157813	28537.691667665477	2996.8704783613
4	157941	28557.803269922943	3004.9659442944
4	157948	28558.719010220302	3000.3285220655
4	157954	28560.288387669573	2996.7186868012
4	157967	28565.079316279774	3001.0759207318
4	157984	28566.193156447498	2995.9248695734
4	157989	28567.463496514373	2981.704374516
4	157996	28567.937624863462	2979.9251261833
4	158018	28574.259009479277	2980.4394913928
4	158235	28621.832976042788	3027.1410790861
4	158241	28622.934312294179	3025.7432353108
4	158247	28623.648329676518	3024.6935861668
4	158253	28624.931939036742	3025.8550908934
4	158258	28625.40052328653	3012.640697064
4	158268	28628.808632836742	3010.7763333209
4	158273	28629.170469566438	3007.9416475409
4	158284	28631.323899166992	3005.2522191927
4	158300	28631.646893297823	3004.0615262568
4	158309	28633.330436717644	2995.84039316
4	158327	28634.607554343836	2995.1258092946
4	158408	28650.003117689186	3008.9412783584
4	158462	28664.353280619849	3022.0757581457
4	158491	28669.651909885138	3027.1515598743
4	158496	28670.062413747819	3026.9106525582
4	158501	28670.453849195283	3026.3150865865
4	158514	28672.679131699032	3025.4902138822
4	158526	28674.503893751553	3022.9311194361
4	158537	28676.437597914241	3015.2821286334
4	158545	28678.889024822649	3017.6293544659
4	158550	28679.056938236326	3015.1219207413
4	158555	28680.06570233182	3015.5633658954
4	158562	28681.039803739949	3003.8370650599
4	158571	28684.643071537198	3004.0641643661
4	158583	28687.411313961131	2993.7478531463
4	158635	28697.184346821718	2997.2449568639
4	158642	28697.716392249659	2995.2429375175
4	158652	28698.859403837947	2989.5877295959
4	158657	28699.303044539237	2985.367833643
4	158666	28703.677696967709	2982.5361399189
4	158740	28715.863711775261	2991.3912830179
4	158746	28716.248104615933	2976.3440907696
4	158753	28718.27958636223	2972.7192446762
4	158769	28721.813250131179	2970.8204626174
4	158788	28723.686724945361	2966.823067461
4	158809	28726.282561666202	2964.6145400213
4	159082	28774.24959626227	3010.983931426
4	159087	28774.356695490924	3010.6691214388
4	159092	28774.709672160805	3006.3073101755
4	159125	28786.609270351922	3017.7682771673
4	159507	28866.631792078041	3094.9364092006
4	159516	28868.007577213928	3079.6227400458
4	159521	28868.353334839333	3072.1529699646
4	159526	28869.434287800369	3073.1989030284
4	159533	28872.217413765528	3073.8959667531
4	159542	28875.524597198914	3069.4859739804
4	159560	28878.744974983047	3072.0684606653
4	159647	28891.516406253901	3083.7033751473
4	159652	28892.142946477943	3083.5941219545
4	159658	28892.493927326612	3074.8823481378
4	159663	28892.505037316451	3071.72366669
4	159679	28894.306800935949	3073.113078504
4	159754	28904.396727423699	3082.4223204825
4	159766	28907.051615146195	3084.9389434317
4	159815	28913.701280342599	3090.9222140252
4	159824	28914.895332152923	3079.8155510063
4	159844	28916.43227196373	3081.0309068281
4	159849	28916.500730445836	3079.7745996687
4	159869	28921.917147657558	3083.1268761344
4	159990	28941.239301522453	3089.7053805044
4	159996	28941.609528972577	3081.1453513408
4	160010	28944.663172313071	3073.7173547076
4	160028	28946.683238542685	3073.3837366207
4	160038	28947.559421419806	3073.233126105
4	160054	28950.361360112543	3072.5434918376
4	160062	28952.462433399484	3070.1168281831
4	160091	28955.576262497068	3073.1814102463
4	160098	28958.032025887358	3073.6001304126
4	160106	28959.14147264266	3072.8355031631
4	160133	28963.503645551377	3076.6011968145
4	160144	28965.955890681184	3078.8423190148
4	160155	28968.001151175041	3072.5327367261
4	160163	28969.201460964775	3070.8370000504
4	160176	28970.226595184215	3070.5720989557
4	160252	28985.362929271093	3081.3398376355
4	160257	28985.619731298802	3081.2123505299
4	160262	28985.907358688902	3080.630673841
4	160267	28987.391043571683	3078.8687489791
4	160279	28989.645359495324	3071.0294040415
4	160297	28991.718652012135	3071.5498379345
4	160308	28993.435480476615	3071.2720529662
4	160324	28995.42905488563	3073.1868355779
4	160476	29026.707488479183	3104.265013349
4	160481	29026.761226572798	3099.0538164514
4	160488	29028.605796084965	3100.4254629329
4	160495	29030.448598988475	3098.2217182397
4	160508	29033.079385573011	3087.9409871788
4	160515	29033.900483059594	3086.4916603918
4	160525	29035.579857886206	3084.1459097844
4	160542	29037.962114794199	3080.5559596845
4	160547	29038.072467949751	3077.1752082101
4	160552	29038.641212900254	3076.7196572834
4	160557	29038.769352931751	3070.6011892845
4	160562	29039.668542660738	3070.0643512668
4	160567	29040.403322767699	3066.3145218996
4	160590	29048.158144772518	3072.9833923603
4	160714	29068.379545026661	3081.2311434388
4	160722	29068.851728323255	3078.3697109695
4	160738	29072.280724882196	3079.5838945914
4	160751	29072.986787774447	3073.9591607198
4	160756	29074.08409064305	3073.1035498754
4	160769	29076.512544738977	3071.2255087936
4	160778	29082.281609712886	3075.4163652642
4	160797	29084.77967361843	3077.6526424623
4	160807	29085.640151381212	3076.2496626944
4	160822	29087.923537755808	3077.2133738467
4	160845	29091.425597899413	3080.6365166095
4	160859	29094.779504035514	3083.4096579114
4	160871	29096.006997481165	3084.3935379552
4	160878	29096.591674902487	3079.8959280253
4	160991	29110.001079421586	3087.9181477597
4	160999	29111.297449652587	3087.8499418865
4	161007	29113.179501139636	3087.0960796874
4	161020	29118.271501539425	3089.3097507602
4	161026	29119.262268798684	3088.8655197848
4	161031	29119.587546964669	3084.5939086113
4	161036	29120.446190788731	3079.180315127
4	161051	29126.826762739854	3085.0825673652
4	161180	29146.369132861184	3104.4171414653
4	161263	29169.135460637339	3114.9272791258
4	161268	29169.141178315705	3092.5474438064
4	161275	29169.39646529189	3088.686942654
4	161285	29170.205991570653	3082.3753234272
4	161296	29175.058335375643	3085.4584272729
4	161313	29178.093875530707	3084.3596880328
4	161320	29180.767461355816	3084.807122771
4	161340	29185.402516011683	3085.5540981232
4	161367	29191.721087142618	3090.342949821
4	161401	29195.564331314338	3085.6905513306
4	161407	29195.972325622628	3080.163407181
4	161412	29196.248468583271	3079.2646166228
4	161419	29198.424965008406	3076.1061646233
4	161452	29201.538401963246	3073.1364273229
4	161468	29206.102534106098	3075.3283716193
4	161492	29209.267320649176	3077.3688575482
4	161497	29209.551057548399	3077.1211762773
4	161505	29212.365170962118	3079.377594515
4	161517	29214.060872251603	3079.8477972564
4	161524	29216.611345718236	3079.6656554427
4	161529	29216.770739126962	3079.0889012509
4	161536	29217.175210464061	3077.1318948794
4	161547	29218.068228794706	3076.9778785572
4	161554	29223.195081414156	3080.3945724663
4	161561	29225.015163013626	3077.8235512226
4	161571	29226.217620543527	3079.0046937105
4	161581	29226.817238737862	3076.6294650908
4	161587	29227.017252385265	3074.0480860508
4	161595	29227.768184854963	3070.4100489951
4	161608	29230.877170563894	3073.3373359479
4	161616	29231.060206892623	3071.3306813859
4	161622	29232.066870519616	3071.4335673153
4	161628	29232.469830852157	3066.9676965995
4	161634	29233.006491028062	3064.5911578437
4	161640	29233.258703628797	3064.5451819334
4	161649	29234.223234318345	3064.6076681732
4	161685	29237.682933461986	3065.2890366249
4	161692	29239.378675306109	3066.4668610503
4	161697	29239.445562810273	3039.6880292327
4	161711	29242.33776904104	3040.9388110603
4	161728	29244.601802641875	3038.8341439797
4	161733	29244.788420169144	3022.9309274247
4	161738	29244.934974766834	3022.9947371174
4	161752	29247.828474782651	3024.3461246918
4	161778	29251.345314427357	3026.7519484887
4	161783	29252.248860294267	3022.3755196818
4	161792	29253.695316039194	3021.6179679971
4	161797	29254.175490509635	3008.8318938001
4	161817	29258.559564584429	3004.6753348856
4	161905	29270.190266425155	3014.410939048
4	161917	29271.013967167802	3014.0632927381
4	161929	29271.714957519439	3004.2698611052
4	161936	29272.072081338221	3003.9514081949
4	161943	29273.432234828274	3001.6996588501
4	161950	29275.988980659302	3001.6091031678
4	161962	29279.543789864617	3004.1808402408
4	161987	29283.70282463481	3000.6224401306
4	161996	29286.074535891145	3000.7653744202
4	162013	29288.919102262586	2997.423455002
4	162033	29292.064030774446	2992.7443840223
4	162072	29295.050803022327	2992.6863196782
4	162081	29295.888875696184	2992.5257405353
4	162099	29299.377458549965	2995.7387074388
4	162116	29300.165943818057	2993.7666754842
4	162130	29304.406789098026	2991.6794250042
4	162149	29306.595887000743	2993.0084186127
4	162160	29307.128037144868	2991.0382692158
4	162173	29310.929995108698	2992.866559893
4	162197	29313.917894586663	2992.501821186
4	162203	29316.994852649995	2993.8052142156
4	162211	29317.414697975994	2987.0279602805
4	162216	29317.437094914285	2985.0252831965
4	162221	29317.470174771966	2980.0641474168
4	162228	29317.897468481663	2980.0117888264
4	162262	29322.643594377139	2980.3485552783
4	162267	29322.775513625185	2979.1876738881
4	162277	29324.589894542995	2973.7349667261
4	162303	29326.4727813407	2974.4683699926
4	162316	29328.816843434002	2965.1356878337
4	162321	29329.000733815838	2960.0551647405
4	162326	29329.374714391854	2956.9352144727
4	162331	29329.975752029989	2954.5612562107
4	162346	29333.258526005839	2952.6940577382
4	162386	29336.536805303049	2955.7490542788
4	162397	29337.440051937578	2955.6850205289
4	162414	29338.669741577543	2952.2416173783
4	162419	29338.802362045068	2949.467796948
4	162424	29338.812110657714	2948.9340327463
4	162435	29341.081002372415	2946.5880292525
4	162455	29342.64071121814	2947.8886597945
4	162483	29346.065398479403	2950.0158712177
4	162519	29354.709836997855	2953.3101816948
4	162580	29368.455929368359	2962.9327396542
4	162590	29370.792424163612	2965.0978902806
4	162613	29375.917799866615	2965.2022700343
4	162669	29381.47344567406	2952.5652210369
4	162688	29383.537097010748	2953.4211339087
4	162711	29384.833258077423	2951.7249746812
4	162718	29385.434332038524	2945.3549567224
4	162735	29389.199473683739	2948.6070460989
4	163098	29458.98590580221	3018.0201004315
4	163105	29459.652055025562	2999.4847609779
4	163117	29461.503399331459	3000.3340865242
4	163122	29462.099191478003	2996.7863023552
4	163129	29462.96420130794	2994.417115534
4	163144	29465.688303383442	2984.5797392915
4	163172	29470.54449212903	2989.1646005001
4	163215	29476.596368076695	2990.9180059569
4	163276	29486.73346854038	3000.5326671121
4	163332	29496.229303874487	3006.5632913558
4	163343	29497.598024278219	2980.441364029
4	163366	29502.544720199293	2962.0670757394
4	163402	29505.27338623389	2962.8976570295
4	163484	29525.705031982912	2979.0000118964
4	163495	29527.834768135759	2977.9011413654
4	163500	29527.854749432599	2976.8253808332
4	163509	29529.499523343554	2977.3655132198
4	163564	29545.006566559662	2968.871994491
4	163591	29551.657848662972	2965.0881749053
4	163605	29553.45461024552	2966.3751918036
4	163610	29553.930442922081	2959.8794553413
4	163615	29554.666029339606	2958.3268119504
4	163620	29555.439494263592	2951.5417157294
4	163626	29557.171040158532	2946.5929012908
4	163636	29559.599655064303	2947.7886346104
4	163655	29563.975453869525	2951.2298793153
4	163685	29567.657014514456	2944.699943014
4	163695	29568.766981996134	2943.320236484
4	163700	29569.889420596821	2942.9223526427
4	163710	29571.945924245554	2941.7563553045
4	163730	29574.532913496457	2943.6719760873
4	163737	29574.699837314997	2942.8045713969
4	163771	29582.637353272395	2948.3244244626
4	163818	29593.380803827307	2956.5669278644
4	163830	29595.869158800035	2953.7079211006
4	163853	29598.168271727794	2946.8250775057
4	163877	29604.150611512371	2950.2205884071
4	163922	29614.062747440778	2959.680040971
4	163930	29614.950647210585	2958.221280452
4	163938	29615.393524121705	2957.1903419623
4	163948	29615.83988201948	2956.9432681437
4	163960	29617.687823987224	2954.9275025168
4	163977	29621.864026228704	2947.946143676
4	163988	29624.163018449293	2948.4554498272
4	164040	29633.863060811821	2954.423859388
4	164048	29634.371124481209	2953.5067489996
4	164053	29635.357811873325	2954.0368860783
4	164067	29643.418797764602	2960.7348613298
4	164168	29665.332947785935	2981.0701221267
4	164173	29665.512149396992	2978.0814529173
4	164178	29665.542135060386	2974.6203492583
4	164183	29666.67727870685	2971.4884173859
4	164188	29666.968725736571	2965.9791035081
4	164194	29668.650189008002	2959.421400221
4	164200	29668.886413026356	2955.5350656312
4	164209	29669.757352833962	2952.182124795
4	164229	29671.787863645759	2949.585987147
4	164249	29676.712646888401	2953.8894146974
4	164409	29706.616636845763	2983.7809095063
4	164415	29706.711441672062	2982.3088265163
4	164420	29707.339246018316	2976.6926880918
4	164426	29707.709995021663	2962.3830615636
4	164431	29707.758975948261	2961.4555454426
4	164440	29709.595561770856	2961.6023795364
4	164468	29712.262675549669	2960.8627120615
4	164492	29717.960513333952	2964.5610795007
4	164497	29718.173294929489	2958.2214092005
4	164502	29718.199219094442	2956.3444504224
4	164517	29723.926923260387	2958.0143663949
4	164538	29725.327009980986	2956.3529395368
4	164549	29727.632746773041	2952.2239932286
4	164575	29732.723939365977	2956.9694148194
4	164580	29733.095546267394	2956.1560510773
4	164590	29736.426949120482	2954.6819010978
4	164596	29736.862234802834	2952.9849273824
4	164601	29737.168600922307	2951.3013924605
4	164612	29741.376351994179	2946.2971796512
4	164623	29743.173940374776	2943.6194996915
4	164633	29744.774258948222	2944.7260318506
4	164674	29749.813309120387	2948.1022499939
4	164685	29750.974310183328	2948.4788202536
4	164708	29754.890340055871	2946.1325872111
4	164715	29755.98975565506	2932.425369456
4	164725	29757.490175500218	2933.4354154052
4	164835	29771.410668312562	2944.4759529787
4	164842	29772.057704564478	2944.6802390728
4	164853	29774.891251059924	2934.5823651641
4	164868	29776.271532917851	2935.94930555
4	164879	29777.809720677563	2935.3930951034
4	164885	29777.882985860476	2927.3459521889
4	164890	29779.447218838067	2925.5309844422
4	164897	29780.886261994458	2926.0934247226
4	164919	29789.519633538109	2932.7737972904
4	164976	29796.961586051926	2937.4229749678
4	164983	29797.370449890289	2937.3398765515
4	164990	29798.079081709202	2937.8413369586
4	164995	29798.239010228171	2935.9185437061
4	165004	29801.049630589663	2937.7250776281
4	165016	29801.468165471048	2929.7974237762
4	165021	29802.399690458785	2914.0108130023
4	165032	29804.51432610379	2916.0891492466
4	165053	29805.777725973401	2915.8423530291
4	165066	29807.870285305485	2915.1207155638
4	165078	29808.681063498169	2914.8601822732
4	165089	29809.179428347598	2910.6959719509
4	165098	29809.995302959722	2910.5581082338
4	165111	29813.813384103664	2912.9451402633
4	165116	29814.011933142929	2911.0441571903
4	165122	29814.555483319259	2906.4232437477
4	165131	29815.377763355852	2901.8980704511
4	165157	29820.431590115034	2904.3389145214
4	165164	29821.566081977639	2902.6064644447
4	165169	29823.474729242325	2902.9199503519
4	165174	29824.385450997741	2903.1409826318
4	165181	29824.843694001028	2899.8925759508
4	165199	29826.906942201347	2894.256934645
4	165230	29831.321391165725	2892.2821100171
4	165238	29835.041627067418	2894.0727434198
4	165248	29837.231364802289	2882.70244024
4	165431	29871.21007611532	2909.4030146846
4	165436	29872.072527349608	2905.8815639765
4	165441	29872.302680268834	2906.0957757722
4	165446	29872.55204353375	2902.1483828055
4	165451	29875.496082486523	2901.1961461801
4	165464	29883.591443980618	2900.388205559
4	165489	29886.651103931812	2900.7448977907
4	165519	29890.115994656604	2902.23282187
4	165527	29893.299152718634	2903.0801128602
4	165532	29893.630695546383	2900.7582480651
4	165540	29894.393315818512	2898.9705861902
4	165549	29896.178018340106	2894.3737438829
4	165572	29899.640020671953	2897.0779002355
4	165657	29923.023633378531	2917.3126165477
4	165682	29928.225549345951	2919.3955827042

