version 2
run First-n4-13-20191016-17:03:50-10788
attr configname First-n4
attr datetime 20191016-17:03:50
attr experiment First-n4
attr inifile omnetpp.ini
attr iterationvars ""
attr iterationvarsf ""
attr measurement ""
attr network org.omnetpp.queueing.Pizza
attr processid 10788
attr repetition 13
attr replication ""
attr resultdir results
attr runnumber 13
attr seedset 13
param **.PS.maxInventoriedPS 4
param **.U1.interArrivalTime exponential(2s)
param **.U2.interArrivalTime exponential(4s)
param **.PS.serviceTimeForInventoryU1 exponential(0.8s)
param **.PS.serviceTimeForInventoryU2 exponential(1.0s)
param **.PS.serviceTimeDirectU1 exponential(1.2s)
param **.PS.serviceTimeDirectU2 exponential(1.4s)
param **.PS.probabilityProducing 0.5
param **.CS.serviceTimeU1 exponential(0.8s)
param **.CS.serviceTimeU2 exponential(1.0s)

vector 0 Pizza.EntryQueueU1 queueLength:vector ETV
attr interpolationmode sample-hold
attr title "queue length, vector"
vector 1 Pizza.CS queueLength:vector ETV
attr interpolationmode sample-hold
attr title "queue length, vector"
vector 2 Pizza.EntryQueueU2 queueLength:vector ETV
attr interpolationmode sample-hold
attr title "queue length, vector"
vector 3 Pizza.sink lifeTime:vector ETV
attr interpolationmode none
attr title "lifetime of arrived jobs, vector"
attr unit s
vector 4 Pizza.sink lifeTimeU1:vector ETV
attr interpolationmode none
attr title "lifetime of arrived jobs, vector"
attr unit s
vector 5 Pizza.sink lifeTimeU2:vector ETV
attr interpolationmode none
attr title "lifetime of arrived jobs, vector"
attr unit s
0	0	0	0
0	5	3.549890252068	1
0	13	7.02760041119	2
0	15	8.239772737911	1
0	19	8.897239814039	2
0	22	9.499676164168	1
0	26	9.879426269775	2
0	28	10.588350967696	3
0	33	12.357285146252	2
0	43	12.962283266721	1
0	51	15.307673713546	2
0	52	15.344505705046	1
0	58	16.077209369926	2
0	63	17.343116959574	1
0	69	17.347486218277	2
0	71	18.028993887302	3
0	72	18.138149135907	2
0	77	19.301446417457	1
0	82	20.372261441754	0
0	111	22.168981711778	1
0	112	22.485885116337	0
0	116	22.803768018701	1
0	124	24.729030179353	2
0	126	24.881324206283	1
0	131	24.936572464379	0
0	142	25.312390787002	1
0	143	25.776395891949	0
0	147	26.901688195126	1
0	152	27.198655843786	2
0	155	27.527902035998	3
0	157	27.919249800181	4
0	158	27.957523383427	3
0	167	28.567728014482	2
0	174	29.046447744845	1
0	180	29.878027178805	0
0	186	30.198774781242	1
0	192	31.135831845883	0
0	290	45.964586235749	1
0	292	46.472339429016	2
0	294	47.239479027638	1
0	299	47.421600123537	0
0	306	47.482440322426	1
0	310	47.879535866263	2
0	313	49.391670262477	1
0	319	49.440925296242	2
0	320	49.626522200327	1
0	325	49.67429735806	0
0	338	51.895378000593	1
0	340	52.514752664507	0
0	357	57.69867777478	1
0	358	58.329625751939	0
0	379	61.090429710209	1
0	380	61.687677105357	0
0	386	62.455090305048	1
0	389	62.790501035586	0
0	427	70.783066735162	1
0	432	71.438151567499	0
0	438	71.787283557226	1
0	440	72.183522452394	2
0	442	72.356190119608	3
0	443	72.421178450653	2
0	448	72.685671083362	1
0	453	73.055397073935	0
0	457	73.769430593902	1
0	462	74.625951976846	0
0	466	75.173923147024	1
0	471	77.89921959888	0
0	475	78.89503963979	1
0	479	81.092469191498	0
0	486	82.125741073666	1
0	488	83.859191969777	0
0	511	87.016372419251	1
0	512	87.178579156609	0
0	526	89.647058756923	1
0	527	89.902263555032	0
0	613	106.436466210981	1
0	615	107.325774193758	2
0	616	107.386212683278	1
0	620	107.811223968701	2
0	624	109.992188806291	1
0	629	110.75257628572	0
0	662	120.429904083664	1
0	664	120.976469999901	0
0	678	122.962488620365	1
0	679	123.282982386856	0
0	715	127.075261628448	1
0	716	127.374701273259	0
0	720	127.782203902261	1
0	722	127.841255342324	2
0	725	128.333557604436	1
0	729	129.330348003437	2
0	733	130.616662049457	3
0	737	130.905769178786	2
0	742	131.170710540139	1
0	747	131.277877899157	0
0	776	137.963541423218	1
0	778	138.051605350457	2
0	781	138.308152085158	1
0	787	138.383142314095	2
0	789	139.263821008111	1
0	794	139.455560922103	0
0	815	143.262889593432	1
0	817	143.356093270893	2
0	819	143.753123364516	1
0	825	143.930364796088	2
0	827	143.962946837948	3
0	828	144.047576201082	2
0	832	144.210568411496	3
0	834	144.297207449173	4
0	839	145.658673407787	5
0	841	146.067412381773	6
0	843	146.070561173723	7
0	844	146.081568269865	6
0	849	146.680430943904	5
0	859	149.03801962786	6
0	863	149.28942382112	5
0	868	149.350618675966	4
0	874	150.94742896586	5
0	877	151.913877813329	4
0	883	152.311606072419	5
0	884	152.611794140507	4
0	888	152.648629862211	5
0	891	154.266129519907	4
0	896	155.555534947491	3
0	905	156.66812836458	4
0	906	156.907134301906	3
0	912	156.95153638885	2
0	919	157.746591682342	1
0	923	158.355939853894	2
0	926	160.339774270618	1
0	930	164.792152582849	2
0	933	166.236219290568	1
0	938	166.95005363023	0
0	942	167.058892092789	1
0	944	168.689309660406	2
0	950	169.478312118076	1
0	955	169.958439379898	0
0	983	173.59375470653	1
0	987	174.255149123809	2
0	988	176.128661970461	1
0	995	176.495826783125	2
0	999	176.962563154969	3
0	1001	177.921066046023	4
0	1002	178.143859245793	3
0	1007	178.193226991369	2
0	1012	179.648240495468	1
0	1017	179.743665227745	0
0	1048	181.91835786194	1
0	1050	182.370684690937	0
0	1061	183.053114277003	1
0	1063	183.313353426439	0
0	1088	186.209181806955	1
0	1089	186.465021392345	0
0	1099	186.841704911057	1
0	1101	187.340899614753	2
0	1104	188.156940550342	1
0	1109	188.619328296089	0
0	1118	190.450390662561	1
0	1122	190.642763966546	0
0	1186	211.904222782221	1
0	1187	211.947185313866	0
0	1195	212.760517083165	1
0	1199	213.31230925866	2
0	1201	213.900788253244	3
0	1203	213.94227107634	4
0	1204	214.027805364454	3
0	1211	214.944498255123	2
0	1218	216.20562050935	1
0	1224	216.211453545979	2
0	1225	217.097195508358	1
0	1232	219.474688333166	0
0	1245	222.957451639214	1
0	1246	223.047117805739	0
0	1263	225.796882890225	1
0	1269	229.633574250186	2
0	1270	230.160815416755	1
0	1274	230.423987891192	2
0	1277	231.539999881709	1
0	1281	232.354240700537	2
0	1285	233.1808335961	3
0	1286	234.505113879996	2
0	1291	236.361850841375	1
0	1296	236.935807347535	0
0	1307	237.217020513143	1
0	1311	238.975277263366	2
0	1315	239.319392193461	1
0	1320	240.743859597247	0
0	1341	242.296370258503	1
0	1344	242.484139071716	2
0	1345	242.63100565803	1
0	1351	242.86511899405	2
0	1353	243.426800371563	1
0	1358	244.122262943292	0
0	1378	248.281095418245	1
0	1381	251.152201948869	0
0	1402	253.437374421404	1
0	1403	253.877812427787	0
0	1460	264.131575440878	1
0	1462	266.274569419889	2
0	1463	266.276903826959	1
0	1468	266.537159710448	0
0	1482	267.673761210403	1
0	1483	268.903807509297	0
0	1489	269.059607402262	1
0	1491	269.475530000794	0
0	1500	270.867820410521	1
0	1501	271.175373422084	0
0	1535	274.578567323741	1
0	1538	274.839430599269	2
0	1539	274.871202034454	1
0	1544	275.076927772243	0
0	1593	283.771912659673	1
0	1595	284.566705037995	2
0	1597	284.758873363112	3
0	1598	285.06509021474	2
0	1603	286.340543201867	1
0	1607	286.628581971804	2
0	1611	287.243234774426	1
0	1616	287.255662930934	0
0	1637	291.253244100105	1
0	1639	291.467477055362	2
0	1642	291.913381745075	3
0	1645	292.05139253507	2
0	1649	292.491629781982	3
0	1654	294.914947969427	2
0	1660	295.967879547251	3
0	1662	296.575416110415	2
0	1667	297.074943360388	1
0	1672	297.631020706163	0
0	1743	312.838560758685	1
0	1747	314.456544391474	2
0	1749	315.820099440388	1
0	1754	316.120151617103	0
0	1760	316.921452528989	1
0	1761	316.964652710779	0
0	1852	333.286004048116	1
0	1855	333.751229322662	2
0	1856	333.869784614142	1
0	1862	334.755267378961	2
0	1864	335.161973998811	3
0	1867	336.026820595917	2
0	1875	337.122311303723	1
0	1880	337.664741719155	0
0	1884	339.044982040519	1
0	1889	340.262125563241	0
0	1895	341.317984487331	1
0	1900	342.335139723063	2
0	1901	342.34417790942	1
0	1906	342.459057469753	0
0	1910	342.627105946307	1
0	1913	343.185212777681	0
0	1917	343.274760743562	1
0	1922	345.073342618044	2
0	1926	345.650912538307	1
0	1931	345.75974361849	0
0	1937	347.656405125723	1
0	1940	349.115454630474	0
0	1944	349.300646896476	1
0	1946	349.93504384432	2
0	1949	351.218094843289	1
0	1954	352.707435588199	0
0	1958	352.764115862265	1
0	1961	353.840807695206	0
0	1994	357.376179847528	1
0	1995	357.66183533032	0
0	2010	359.229245607336	1
0	2012	359.35481358521	2
0	2014	359.436588070945	3
0	2016	359.498130180965	4
0	2018	359.936946867366	5
0	2021	360.914898414664	4
0	2027	361.020834740246	5
0	2029	361.144640035063	4
0	2038	361.608025127309	5
0	2042	363.12975049652	6
0	2043	363.757191792884	5
0	2050	364.370301685047	4
0	2056	364.617361558806	3
0	2063	365.754268674891	4
0	2064	366.138474787214	3
0	2069	366.388827378387	2
0	2074	366.525563345305	1
0	2079	366.629806597908	0
0	2083	366.631870295311	1
0	2086	366.79290469777	0
0	2163	379.866893899282	1
0	2164	381.399740934236	0
0	2187	386.626127891759	1
0	2188	387.204475620714	0
0	2201	387.876655419072	1
0	2202	387.93248626008	0
0	2218	390.522053061854	1
0	2219	390.718796058361	0
0	2230	393.816139773303	1
0	2235	394.992957042773	0
0	2249	396.799454306826	1
0	2251	397.106498974109	0
0	2264	397.800075751825	1
0	2272	401.595268310811	2
0	2273	401.742566670025	1
0	2278	401.844691861787	0
0	2282	403.218182885834	1
0	2284	403.309841927787	2
0	2287	404.181890284307	1
0	2293	404.429488468373	2
0	2297	404.603659157069	3
0	2299	406.019066020479	2
0	2304	406.304658689795	1
0	2310	409.947072817924	2
0	2312	410.103043121892	3
0	2313	410.143334870239	2
0	2320	410.594596725236	1
0	2324	412.803857574933	2
0	2328	413.283147357965	3
0	2330	413.583797621942	4
0	2333	414.998379000226	3
0	2338	415.577682640371	2
0	2342	416.667276175972	3
0	2344	417.245585833858	4
0	2346	417.291183633579	5
0	2349	420.406020492519	4
0	2354	421.004170722269	3
0	2362	422.599661568161	4
0	2363	423.322268319026	3
0	2371	424.870261914819	4
0	2373	425.159787883083	5
0	2375	425.76636340173	6
0	2377	426.337849348064	7
0	2378	426.845381515035	6
0	2384	427.533774368445	7
0	2387	427.752903927522	8
0	2391	430.586975534079	9
0	2393	430.698704828841	10
0	2394	431.379718842973	9
0	2401	431.893568576048	8
0	2409	434.634551604333	7
0	2414	435.246526532001	6
0	2420	435.774098344637	7
0	2421	435.877636613546	6
0	2426	436.212804811703	5
0	2430	437.114875557883	6
0	2432	437.455105479528	7
0	2434	438.578236569361	8
0	2438	439.32849961573	7
0	2444	439.503206780265	8
0	2446	439.902617053847	9
0	2447	440.165969138877	8
0	2451	442.391389568758	9
0	2458	444.001840344593	8
0	2467	444.714132247591	9
0	2471	445.769779292841	10
0	2472	446.081770893796	9
0	2478	446.741223937681	8
0	2483	447.219398143962	7
0	2487	448.425443813623	8
0	2490	449.721500688773	7
0	2495	449.940578911296	6
0	2501	451.028106350703	7
0	2503	451.281425954586	8
0	2505	451.990775890516	9
0	2508	453.748799528206	8
0	2516	454.282839579386	9
0	2518	454.474390595918	10
0	2523	456.183975302097	9
0	2530	456.688426015995	10
0	2533	457.167014679421	11
0	2535	457.257660212549	12
0	2537	457.576549469704	13
0	2538	458.530656630004	12
0	2544	458.678979665194	13
0	2546	459.101812454376	14
0	2549	460.396776862926	13
0	2554	460.917959432803	12
0	2560	461.356364084365	13
0	2565	462.175251039806	12
0	2570	464.010228628273	11
0	2575	464.094894779848	10
0	2579	464.774092459496	11
0	2582	465.159921486283	10
0	2591	466.203582279913	11
0	2594	467.329363952988	10
0	2599	467.530087741765	9
0	2603	467.858441682527	10
0	2605	468.869894165661	11
0	2608	469.267797114684	10
0	2617	471.876242215141	9
0	2622	472.715955135706	8
0	2628	475.523725329029	9
0	2630	475.900372172925	10
0	2631	476.618580159835	9
0	2635	476.934230643869	10
0	2638	477.205009480668	9
0	2647	482.447854018644	8
0	2657	485.454938442115	7
0	2662	485.782395165359	6
0	2668	487.297164722703	5
0	2675	488.535647565142	4
0	2681	488.819116667276	5
0	2683	488.957001522088	6
0	2687	489.839407624446	5
0	2693	489.957541518486	4
0	2698	490.37007596018	3
0	2706	492.447064434733	2
0	2711	493.912632556575	1
0	2716	495.91285547382	0
0	2720	496.006862097358	1
0	2723	496.631256602015	0
0	2811	512.128205757189	1
0	2813	514.021769338723	2
0	2814	514.617498712607	1
0	2820	514.744315168246	2
0	2821	515.642224170068	1
0	2829	516.59591448309	2
0	2831	516.888140359501	3
0	2835	519.176194486142	2
0	2841	519.801320238123	1
0	2846	520.422824906761	0
0	2859	521.747206855813	1
0	2860	521.778839794467	0
0	2877	525.827187931896	1
0	2878	525.920875651604	0
0	2898	528.055539081356	1
0	2899	528.227822293574	0
0	2942	533.038489076435	1
0	2946	533.851749985005	2
0	2949	533.976567728087	1
0	2956	534.059160160776	0
0	2967	536.601694804181	1
0	2970	536.945271710789	0
0	2986	540.21898411026	1
0	2988	540.591020903766	2
0	2990	540.602091471558	3
0	2996	543.321615860851	4
0	2999	544.159434290434	3
0	3004	544.507486311181	2
0	3010	545.440611558115	1
0	3014	545.749270740105	2
0	3020	546.920454565503	3
0	3022	548.871822797786	4
0	3029	550.891421548507	3
0	3037	552.113305810724	4
0	3039	552.33051653431	5
0	3041	552.38453084564	6
0	3042	552.416666119389	5
0	3048	553.447088253819	6
0	3052	554.188523044927	5
0	3057	554.21815975342	4
0	3062	554.875873750042	3
0	3067	555.140572669049	2
0	3074	556.376203166478	1
0	3078	556.406553656133	2
0	3083	556.652271074901	1
0	3093	558.497780229675	0
0	3104	560.523496168698	1
0	3105	560.645330793406	0
0	3109	562.474168630089	1
0	3111	563.241632395829	2
0	3115	564.902793680571	1
0	3120	565.307225177895	0
0	3146	567.729775228224	1
0	3147	568.456850977102	0
0	3164	570.558766954004	1
0	3167	571.762776246749	0
0	3185	574.61490237911	1
0	3189	574.765603913096	2
0	3193	576.559782669044	1
0	3198	576.843469695057	0
0	3207	577.693136811035	1
0	3209	578.017538435011	2
0	3212	578.749812354934	1
0	3216	578.923882265004	2
0	3218	579.5455997706	3
0	3220	579.558881962368	4
0	3224	580.213579244471	5
0	3228	580.388508300536	6
0	3231	582.122176148605	5
0	3239	583.410431178089	4
0	3245	584.355642732722	5
0	3248	584.534443595812	6
0	3249	585.479297998295	5
0	3254	585.719282692871	4
0	3259	585.967495791352	3
0	3264	586.922447751224	2
0	3268	587.557647807233	3
0	3271	588.085350572685	2
0	3276	590.697163701683	1
0	3281	591.312467752246	0
0	3323	597.014380126283	1
0	3325	597.260369819379	2
0	3331	599.30081721806	3
0	3334	600.255551987891	4
0	3335	600.36226283844	3
0	3340	600.45467250402	2
0	3347	601.718763915208	1
0	3357	603.084264588225	0
0	3393	607.404632434332	1
0	3396	608.957457579007	2
0	3402	609.643540310968	3
0	3403	610.458830442391	2
0	3409	611.243905734471	1
0	3414	611.309901432202	0
0	3488	620.517706414526	1
0	3489	621.06641926664	0
0	3512	623.977771976156	1
0	3514	627.01456841852	2
0	3516	629.102073413456	3
0	3519	630.158002874501	2
0	3525	632.844321588381	1
0	3530	633.255591391847	0
0	3541	635.498504350712	1
0	3544	636.00326493753	0
0	3581	643.759895185669	1
0	3582	644.059317392153	0
0	3596	645.349656156554	1
0	3605	646.967654880025	2
0	3608	647.921111024188	1
0	3614	648.975861265576	2
0	3615	649.209229600461	1
0	3620	649.328257970431	0
0	3639	650.651165962162	1
0	3641	652.194232031673	0
0	3667	658.899312980509	1
0	3669	658.946703832193	2
0	3673	659.592540346412	3
0	3674	660.447483114373	2
0	3681	661.265446447557	1
0	3686	661.482800647291	0
0	3697	662.019411417116	1
0	3699	662.231389554374	0
0	3705	662.629047377419	1
0	3713	663.402566923238	2
0	3715	663.966020589198	1
0	3721	664.357836725276	0
0	3739	667.340347544626	1
0	3740	667.785450822878	0
0	3746	667.892047208125	1
0	3748	668.274813236945	2
0	3749	669.449943837129	1
0	3754	670.329006419484	0
0	3767	671.447766005926	1
0	3768	672.375012029273	0
0	3780	672.800319077137	1
0	3782	673.857972598262	0
0	3827	677.869167970852	1
0	3829	677.898863732154	2
0	3831	678.721967496766	1
0	3836	678.790973432939	0
0	3847	679.020685696858	1
0	3849	679.849577975025	2
0	3851	680.852690999643	1
0	3857	681.343261610282	0
0	3879	683.938775214264	1
0	3883	685.295793781095	2
0	3884	685.950065475498	1
0	3889	686.40963267081	0
0	3897	688.063339602336	1
0	3905	689.875758285071	0
0	3909	691.354596315102	1
0	3913	692.207963781687	0
0	3919	692.31659618634	1
0	3922	694.42648317661	2
0	3923	694.705637452043	1
0	3929	695.539681235784	2
0	3930	696.463489727027	1
0	3934	696.79974945173	2
0	3939	698.517059657944	3
0	3940	698.729156949177	2
0	3945	698.894735474511	1
0	3949	698.905135523551	2
0	3953	699.238806593153	3
0	3954	699.522457220787	2
0	3960	700.218252053554	3
0	3962	700.591577837553	4
0	3966	703.055426679369	5
0	3967	703.634099790789	4
0	3972	703.872318522556	3
0	3978	705.337768159066	2
0	3985	706.272791662323	1
0	3990	706.460535742992	0
0	4001	706.560024049316	1
0	4003	707.045326966383	0
0	4022	708.741818517552	1
0	4024	708.755127671406	2
0	4027	711.331023734591	1
0	4032	712.026109355231	0
0	4044	713.430906003658	1
0	4047	715.135309487456	0
0	4093	719.960319065568	1
0	4097	720.712333152586	2
0	4101	721.335429803352	3
0	4102	721.680856161811	2
0	4107	721.748395570896	1
0	4116	722.711093602694	0
0	4141	726.686279683731	1
0	4147	727.750222638338	2
0	4149	728.386308772301	3
0	4150	728.470289429039	2
0	4156	728.661906358065	1
0	4161	729.331000997545	0
0	4182	734.542390389504	1
0	4188	736.658057225914	0
0	4217	739.402390615809	1
0	4222	740.445489500634	0
0	4242	746.857913220304	1
0	4244	746.972130119842	2
0	4247	747.155153007826	1
0	4255	747.378212612036	0
0	4273	750.458206484763	1
0	4276	751.217371825738	0
0	4289	752.140009312126	1
0	4291	752.856633146238	2
0	4292	753.148091530262	1
0	4300	753.454172599859	2
0	4305	754.446166090086	3
0	4308	755.988551106888	2
0	4316	756.520537357663	3
0	4317	756.791464614914	2
0	4322	756.800233206941	1
0	4327	757.325739669017	0
0	4340	759.116184957572	1
0	4343	759.388708214999	0
0	4357	760.248514898333	1
0	4358	760.720690443778	0
0	4382	763.539655271174	1
0	4384	763.576894381462	0
0	4397	766.897951980357	1
0	4398	767.931611850166	0
0	4415	768.983844999135	1
0	4420	770.156564697599	0
0	4429	771.64218906784	1
0	4430	771.792890658327	0
0	4446	773.216312614124	1
0	4447	773.586649032478	0
0	4451	773.723562194024	1
0	4455	774.595480223925	2
0	4456	775.088025181131	1
0	4462	775.439249199785	2
0	4464	775.543534901418	3
0	4466	777.032328893198	2
0	4470	777.295561274593	3
0	4475	777.813288217565	4
0	4476	778.098698515235	3
0	4481	778.131603708316	2
0	4489	778.615866268246	3
0	4492	779.055070162098	2
0	4498	780.181464101391	1
0	4504	780.438165499429	2
0	4506	780.798708394969	1
0	4513	781.182789859494	2
0	4515	781.856853735815	3
0	4516	782.832295579627	2
0	4521	783.196324139618	1
0	4527	783.791275028484	2
0	4529	784.199604995727	3
0	4531	785.013821360538	4
0	4534	785.492629498362	3
0	4538	785.847057212833	4
0	4544	787.098671684526	3
0	4550	787.46753347563	4
0	4551	787.651179261946	3
0	4556	788.569551425807	2
0	4564	789.141780389591	3
0	4568	789.464598529919	4
0	4571	789.93582989938	3
0	4576	794.617450754682	2
0	4582	795.182343628421	3
0	4584	795.229420880729	4
0	4589	798.050343040408	3
0	4595	798.899810019472	4
0	4599	799.542951811327	3
0	4605	800.384760793195	4
0	4606	800.778018335472	3
0	4611	801.301227773407	2
0	4617	803.019540877374	3
0	4618	803.592597381975	2
0	4622	803.606825846264	3
0	4624	803.832978271034	4
0	4630	805.334062458128	5
0	4632	806.651220907315	6
0	4633	806.697642170505	5
0	4637	808.860464751365	6
0	4645	811.178822428576	7
0	4646	812.576143544945	6
0	4651	813.977640274422	5
0	4656	815.95905430897	4
0	4661	816.264622565985	3
0	4668	816.890416375482	2
0	4673	818.481181974148	1
0	4677	818.944755973184	2
0	4679	819.254069916043	3
0	4681	819.447606504815	4
0	4686	822.067087464733	3
0	4690	822.497742916529	4
0	4692	822.75173758085	5
0	4697	824.121061995388	4
0	4701	825.03412332581	5
0	4706	826.359775046755	4
0	4712	827.486889822098	3
0	4717	827.556114784342	2
0	4722	828.024887456296	1
0	4727	829.366798438772	0
0	4731	829.466937881205	1
0	4734	829.590561269867	0
0	4745	830.418004514661	1
0	4748	831.454089222758	0
0	4781	834.298540359583	1
0	4783	834.37357643023	0
0	4789	834.86426468761	1
0	4792	836.264065360381	0
0	4806	837.983769755695	1
0	4807	838.068446478131	0
0	4853	844.09035648869	1
0	4855	846.266086625859	2
0	4858	846.758303217628	1
0	4865	847.281046852358	2
0	4867	847.601725718902	3
0	4868	847.978546056361	2
0	4873	848.224939698124	1
0	4879	848.324029177056	0
0	4890	849.207970566757	1
0	4891	850.246003710355	0
0	4936	858.250652296351	1
0	4938	858.5659715296	2
0	4939	858.945708213088	1
0	4945	859.281227571517	2
0	4946	859.697177793116	1
0	4952	860.735910517645	0
0	4968	861.685628742493	1
0	4970	861.940582535683	0
0	4981	863.475405759122	1
0	4986	864.733599156078	2
0	4989	866.494154666711	1
0	4994	866.863091295962	0
0	5034	873.35087877567	1
0	5038	875.736006264557	0
0	5045	876.381235099843	1
0	5046	877.390575227659	0
0	5050	879.200209035081	1
0	5055	881.635517056979	0
0	5061	883.049191082105	1
0	5063	883.402566566903	2
0	5064	884.419016596934	1
0	5068	884.498559007672	2
0	5070	884.994673243134	3
0	5072	885.891124805995	4
0	5075	886.164864067177	3
0	5083	886.797932625874	4
0	5085	888.859412067499	5
0	5090	890.613074712615	6
0	5093	891.82122036101	7
0	5097	893.866387681133	6
0	5102	894.091179793583	5
0	5107	897.082231031329	4
0	5111	897.821473568066	5
0	5113	898.396258958627	6
0	5117	899.536138492601	5
0	5122	899.659839158738	4
0	5126	899.906919579508	5
0	5129	901.144606909319	4
0	5134	902.607461139675	3
0	5141	904.868340835566	2
0	5146	906.081627654271	1
0	5150	906.185041986449	2
0	5156	908.456577736034	3
0	5161	911.405128556438	2
0	5170	912.444057010644	3
0	5171	914.411120372938	2
0	5176	914.632211991701	1
0	5181	915.114986222071	0
0	5215	921.506506973486	1
0	5219	922.952181418586	0
0	5235	923.9409975618	1
0	5236	924.848136073019	0
0	5246	925.864839987242	1
0	5247	926.191234097957	0
0	5253	927.049598032871	1
0	5255	927.092412166255	2
0	5256	927.780605633976	1
0	5263	928.671131345503	2
0	5267	930.075108288667	3
0	5268	930.239352771096	2
0	5273	930.2440289551	1
0	5281	931.595102358233	0
0	5287	931.679619308699	1
0	5289	932.15527328227	2
0	5290	932.185621693248	1
0	5296	932.454410620626	0
0	5302	932.543343678973	1
0	5303	932.545862082766	0
0	5310	933.316607028664	1
0	5312	933.724113943206	0
0	5325	935.639436869004	1
0	5327	936.657509236969	0
0	5357	938.310985761121	1
0	5360	938.695895640279	0
0	5401	946.237516133689	1
0	5403	946.357328013472	2
0	5406	948.154680841892	1
0	5411	948.198880121822	0
0	5424	949.080335027656	1
0	5428	950.992249088786	2
0	5430	952.227194119469	3
0	5432	955.036192712896	4
0	5433	957.066277725997	3
0	5440	960.389661723146	2
0	5448	960.857551838759	1
0	5456	962.925759618623	0
0	5472	964.084304056175	1
0	5473	964.253919115995	0
0	5527	975.011791221675	1
0	5528	975.064755834853	0
0	5564	979.299982140811	1
0	5566	980.604475445127	0
0	5577	981.132986145195	1
0	5582	981.471554620779	0
0	5594	984.502111350352	1
0	5595	984.776386046513	0
0	5599	986.031531517988	1
0	5601	986.800431805547	2
0	5604	987.489978710976	1
0	5610	987.961160885273	0
0	5614	988.723615021368	1
0	5616	989.229468213438	2
0	5624	990.85814892107	1
0	5631	991.192784433165	0
0	5635	992.155658865454	1
0	5640	992.716542226487	0
0	5651	993.0466567639	1
0	5652	994.040040502011	0
0	5663	994.818688069326	1
0	5665	996.659139706384	0
0	5669	996.697626908081	1
0	5672	996.992426395856	0
0	5676	997.219322108444	1
0	5679	997.297558316972	0
0	5683	998.159964161765	1
0	5685	999.098286870392	2
0	5691	1000.113659243838	3
0	5693	1000.227723044039	2
0	5700	1001.066425992182	1
0	5705	1001.174423170384	0
0	5711	1002.070498435837	1
0	5713	1002.089437954215	2
0	5716	1002.255072286584	3
0	5718	1002.490389869579	4
0	5719	1002.522896260013	3
0	5727	1003.821291469216	2
0	5732	1003.835422921356	1
0	5736	1004.225502501068	2
0	5740	1006.591920515334	3
0	5744	1007.201949297771	4
0	5750	1007.546907182511	5
0	5752	1009.182608476958	4
0	5758	1009.655670357103	3
0	5763	1010.019736524352	2
0	5769	1010.323324131804	3
0	5771	1010.475116088331	2
0	5776	1010.578452131917	1
0	5780	1010.988763471673	2
0	5782	1012.163037804815	3
0	5787	1012.699683101716	2
0	5792	1013.00047654745	1
0	5797	1013.123159581032	0
0	5804	1013.538727701711	1
0	5805	1013.556256892433	0
0	5819	1014.706382049959	1
0	5821	1015.334894068631	0
0	5833	1016.936607034744	1
0	5835	1017.325277673725	2
0	5836	1017.53361718075	1
0	5840	1019.1932753419	2
0	5844	1022.04325298505	3
0	5848	1022.976737849547	2
0	5854	1023.122183267223	3
0	5855	1023.146121242562	2
0	5861	1023.494015637684	3
0	5863	1024.136760882635	2
0	5868	1024.515694090923	1
0	5873	1024.78534888787	0
0	5880	1025.46143932864	1
0	5883	1025.941935051611	2
0	5884	1026.110262598483	1
0	5894	1026.806427894695	0
0	5915	1027.904788572958	1
0	5917	1028.751275541051	0
0	5923	1028.981881790626	1
0	5926	1032.242676526104	0
0	5982	1042.783413187076	1
0	5983	1042.884465132559	0
0	5989	1042.980893412321	1
0	5991	1044.084317244638	0
0	5997	1044.107657075693	1
0	5998	1044.370942620274	0
0	6020	1047.042068148224	1
0	6021	1047.981936407835	0
0	6049	1052.196544435972	1
0	6056	1054.576828230823	2
0	6060	1055.794698568891	3
0	6061	1057.18683020307	2
0	6066	1057.91579141472	1
0	6071	1058.107442755648	0
0	6077	1058.169898257239	1
0	6079	1058.357092278839	2
0	6080	1058.879802887313	1
0	6091	1060.942557598099	0
0	6097	1061.293106982559	1
0	6099	1061.375934820032	2
0	6103	1061.90133242806	3
0	6104	1062.003369081686	2
0	6110	1062.558881270508	3
0	6111	1063.605983851794	2
0	6115	1064.431569327183	3
0	6120	1065.049630685531	4
0	6122	1065.112134771353	5
0	6123	1065.216029881923	4
0	6128	1065.294792462107	3
0	6132	1065.510412400073	4
0	6137	1066.232078333937	5
0	6138	1066.503484752979	4
0	6143	1068.674754874031	3
0	6147	1069.195761224709	4
0	6153	1071.646938083167	5
0	6156	1071.951285582588	4
0	6167	1076.346438618196	3
0	6171	1077.077752828096	4
0	6176	1081.90097651304	3
0	6181	1084.055338354665	2
0	6186	1084.301226653733	1
0	6190	1084.786233627471	2
0	6201	1085.927863148097	1
0	6207	1086.084774224258	2
0	6208	1086.855228546522	1
0	6212	1087.118155910477	2
0	6215	1089.178769193321	1
0	6221	1090.057658653764	2
0	6222	1090.281685425704	1
0	6228	1091.088807284602	2
0	6230	1091.23941805161	3
0	6231	1091.282998307909	2
0	6236	1092.710239002749	1
0	6240	1093.935967063343	2
0	6242	1093.989620253575	3
0	6248	1095.730678934824	2
0	6254	1096.402977378562	1
0	6262	1097.142380034781	2
0	6263	1097.269845186661	1
0	6271	1099.226552091616	2
0	6275	1100.746179246439	3
0	6278	1100.908498721576	2
0	6286	1102.96499556335	3
0	6287	1103.229954813186	2
0	6292	1103.338840372987	1
0	6298	1104.428327457681	2
0	6300	1104.628000921926	1
0	6306	1105.36047799804	0
0	6368	1115.63945869078	1
0	6372	1117.507499031902	0
0	6392	1119.544901562345	1
0	6394	1119.754493102684	2
0	6395	1120.995672640344	1
0	6400	1121.104822817425	0
0	6433	1124.605028878919	1
0	6434	1124.777033397582	0
0	6443	1125.873661868458	1
0	6448	1128.415960843454	0
0	6454	1128.553511585198	1
0	6456	1128.679016915345	2
0	6462	1130.961635481207	1
0	6467	1131.01879207557	0
0	6489	1132.613111795684	1
0	6490	1132.817948265814	0
0	6503	1134.906881039641	1
0	6511	1136.253270700697	0
0	6555	1141.339812468725	1
0	6558	1141.868487718528	0
0	6581	1143.57159381807	1
0	6582	1143.829116223495	0
0	6609	1151.670236302051	1
0	6613	1154.047852332691	2
0	6614	1154.191757228414	1
0	6619	1154.422161247418	0
0	6627	1154.807675038513	1
0	6629	1155.838133295201	2
0	6630	1156.38256354548	1
0	6635	1157.013171779077	0
0	6642	1157.5229356437	1
0	6646	1158.846104823716	0
0	6669	1162.607100522519	1
0	6670	1162.900902332649	0
0	6687	1164.912637520393	1
0	6689	1165.247870821436	2
0	6690	1166.106085468067	1
0	6695	1166.766188366178	0
0	6731	1175.389759078019	1
0	6735	1176.924856687179	2
0	6737	1177.045567720528	3
0	6738	1177.532967252606	2
0	6743	1177.537255671623	1
0	6748	1177.853679796101	0
0	6779	1185.408293467154	1
0	6780	1186.450993643138	0
0	6852	1205.905401903874	1
0	6853	1206.002735809594	0
0	6884	1211.565111924585	1
0	6887	1212.437516761366	0
0	6961	1223.04775366398	1
0	6967	1225.312410291266	2
0	6969	1225.666585439592	3
0	6973	1226.932419053164	4
0	6974	1227.444664610245	3
0	6980	1228.079714293615	4
0	6989	1229.179702780015	3
0	6995	1229.247556485727	4
0	6996	1229.458249097158	3
0	7001	1230.142972449449	2
0	7008	1231.646409113354	1
0	7013	1232.139238285722	0
0	7047	1236.142015130101	1
0	7051	1237.458901537707	0
0	7075	1240.446088233427	1
0	7077	1240.699897391247	2
0	7081	1241.015877624118	3
0	7083	1241.475398440693	4
0	7085	1243.203854483059	5
0	7086	1243.477896583208	4
0	7092	1243.622385027166	5
0	7095	1243.915497900904	4
0	7102	1244.272831502018	3
0	7107	1245.020423483434	2
0	7115	1245.591292409408	3
0	7118	1246.802170448551	2
0	7124	1247.940053896647	3
0	7127	1248.549430432229	2
0	7134	1251.153642477177	1
0	7139	1252.84944736648	0
0	7161	1255.761838675918	1
0	7163	1256.368961647748	2
0	7164	1256.402776948367	1
0	7173	1257.330897119425	0
0	7189	1260.568843192526	1
0	7191	1260.714670279408	0
0	7211	1262.339923547603	1
0	7214	1262.915989946085	0
0	7228	1263.685146685312	1
0	7231	1265.318959330065	0
0	7237	1265.34591270397	1
0	7241	1265.594766620647	2
0	7243	1266.225528299998	3
0	7246	1266.766801830463	2
0	7254	1267.32823448782	3
0	7255	1268.103837150047	2
0	7261	1269.072570016497	1
0	7265	1269.121367521146	2
0	7267	1269.23821785842	3
0	7269	1269.637841443386	4
0	7271	1270.192366243248	5
0	7274	1270.925354572885	4
0	7279	1271.145814442892	3
0	7285	1272.467057276363	4
0	7287	1273.152136691107	5
0	7291	1273.691333850214	6
0	7293	1274.11058845879	7
0	7294	1274.931218021563	6
0	7298	1275.152312231451	7
0	7300	1275.574524083596	8
0	7304	1276.685363495871	9
0	7305	1276.736471974183	8
0	7310	1278.097579804691	7
0	7316	1279.357537511364	8
0	7317	1279.592550973865	7
0	7324	1282.024764788369	8
0	7325	1282.115366232021	7
0	7331	1282.272169330157	8
0	7332	1282.293846068869	7
0	7338	1282.655454949445	8
0	7339	1283.260101736604	7
0	7344	1283.903522647084	6
0	7348	1284.715028162895	7
0	7350	1287.285926206229	8
0	7354	1288.399191110243	9
0	7358	1290.983934495481	10
0	7361	1291.310937219297	9
0	7368	1295.676197551409	8
0	7373	1295.951625474425	7
0	7378	1296.531158148104	6
0	7385	1298.880523356649	5
0	7392	1304.420116156992	4
0	7397	1307.641577344894	3
0	7403	1312.639605897673	4
0	7404	1312.976014837422	3
0	7408	1314.272996253382	4
0	7412	1314.71203421225	3
0	7418	1314.781735793574	4
0	7420	1315.173165353659	5
0	7422	1315.607119824586	6
0	7424	1316.399094663399	7
0	7425	1316.753328079554	6
0	7433	1319.728130512769	7
0	7434	1320.114281695796	6
0	7440	1320.557643996418	7
0	7443	1320.793410110573	8
0	7444	1321.431219529298	7
0	7449	1321.544924140319	6
0	7455	1321.843742728616	5
0	7460	1322.210682425704	4
0	7464	1322.427637433001	5
0	7466	1322.561566481355	6
0	7468	1323.000398558533	7
0	7475	1325.737751801938	6
0	7482	1326.219327337818	5
0	7487	1326.34156049046	4
0	7494	1326.745493670754	5
0	7495	1327.015423399025	4
0	7502	1329.229511846949	3
0	7507	1329.925199523259	2
0	7511	1332.513134503203	3
0	7513	1332.70290784194	4
0	7515	1333.400643283046	5
0	7519	1334.177575443896	6
0	7521	1334.574999642678	5
0	7526	1334.598514920156	4
0	7530	1334.639603408877	5
0	7533	1335.233054396215	4
0	7537	1335.407471206692	5
0	7541	1337.079484639212	6
0	7542	1338.958324708716	5
0	7546	1339.182472472121	6
0	7550	1339.256211431757	7
0	7556	1342.575375241783	8
0	7559	1343.324439779202	7
0	7564	1343.876645468819	6
0	7569	1344.179643775741	5
0	7575	1344.54757901242	6
0	7577	1344.879611424701	7
0	7580	1346.396787336393	6
0	7586	1347.042807125604	7
0	7587	1347.542841081541	6
0	7591	1348.272604124522	7
0	7594	1348.548801973771	6
0	7599	1351.419857428412	5
0	7605	1352.811291728806	6
0	7606	1354.259273236536	5
0	7610	1354.904230114494	6
0	7612	1355.096459205961	7
0	7619	1356.391782957778	6
0	7625	1357.473777943601	5
0	7632	1357.658036389133	4
0	7640	1358.607574180403	5
0	7642	1359.009560915374	6
0	7644	1360.381344522724	5
0	7650	1360.780338617937	4
0	7656	1361.659155855012	3
0	7662	1363.415627046656	2
0	7667	1363.438407321625	1
0	7674	1365.855703931322	2
0	7676	1366.128185042184	3
0	7677	1366.416368403659	2
0	7682	1366.935886112828	1
0	7691	1368.772621985788	0
0	7704	1369.518052678097	1
0	7707	1371.77489688335	2
0	7709	1372.211473948966	3
0	7711	1372.407098454027	4
0	7712	1373.158325392973	3
0	7717	1373.405545021425	2
0	7721	1375.564997224432	3
0	7724	1375.9030384325	2
0	7729	1376.258298458858	1
0	7734	1377.261532454285	0
0	7747	1379.126157652378	1
0	7748	1379.152640194034	0
0	7759	1380.511268634976	1
0	7760	1380.779376640189	0
0	7766	1381.01895902457	1
0	7770	1382.953677474995	0
0	7777	1383.547605945592	1
0	7778	1383.942457836428	0
0	7797	1385.472747994591	1
0	7798	1385.852031629916	0
0	7814	1387.082484774435	1
0	7815	1387.092137657579	0
0	7831	1389.623245526684	1
0	7834	1391.176557422678	2
0	7835	1391.646568042345	1
0	7843	1392.111446160038	0
0	7856	1393.150267957224	1
0	7858	1395.368135186218	2
0	7862	1396.104521039468	3
0	7867	1398.29134370228	2
0	7872	1398.445009271954	1
0	7878	1398.617048179028	2
0	7879	1398.7861445523	1
0	7888	1399.319764720945	0
0	7932	1404.461130508043	1
0	7935	1405.389737718606	2
0	7936	1405.586589888962	1
0	7941	1405.842460150103	0
0	7961	1407.776421084756	1
0	7962	1408.515953933359	0
0	7976	1410.700762907785	1
0	7978	1412.346753186859	0
0	7984	1412.433288462262	1
0	7986	1412.849531803481	2
0	7987	1412.997147563395	1
0	7992	1413.09472107048	0
0	7998	1414.467342737577	1
0	8000	1414.622259732652	2
0	8001	1414.849802764212	1
0	8007	1415.328818703223	0
0	8023	1415.946454667467	1
0	8024	1415.957573480589	0
0	8033	1416.929249409007	1
0	8041	1420.112376048109	0
0	8045	1421.826736483446	1
0	8047	1422.312689974849	2
0	8049	1422.404537815025	3
0	8051	1422.555724453833	4
0	8054	1424.838318471237	3
0	8059	1426.479671914222	2
0	8064	1427.188535012459	1
0	8070	1428.46606805144	2
0	8072	1430.039015258547	1
0	8078	1432.186870610768	2
0	8080	1433.543209834171	1
0	8086	1433.734814154286	2
0	8087	1433.775750605785	1
0	8092	1434.136982948016	0
0	8121	1438.5977669449	1
0	8123	1439.103451295267	2
0	8125	1439.693888308719	1
0	8130	1440.118731106261	0
0	8144	1441.549067254286	1
0	8145	1441.790652159053	0
0	8174	1444.05446634381	1
0	8176	1445.324262145087	2
0	8178	1445.733566161736	3
0	8180	1447.003627277446	4
0	8186	1449.233413074445	5
0	8187	1449.387294407223	4
0	8195	1450.948125385683	3
0	8201	1451.373271776626	2
0	8209	1452.060101938793	3
0	8213	1455.458694759294	4
0	8214	1455.757098323118	3
0	8220	1456.50862474447	4
0	8224	1456.954773914716	5
0	8226	1457.589494388122	6
0	8229	1459.038015221151	7
0	8231	1459.380092169525	6
0	8236	1460.662727380211	5
0	8240	1460.740919940389	6
0	8242	1460.975597279315	7
0	8245	1461.805350666273	6
0	8252	1463.467440704011	5
0	8257	1465.363541097039	4
0	8263	1465.774852664088	5
0	8266	1466.220824652889	4
0	8272	1467.01145943863	5
0	8275	1469.183401179169	4
0	8279	1469.683450428923	5
0	8281	1469.843127415656	6
0	8283	1473.152778828343	7
0	8288	1474.926228180633	6
0	8292	1474.987195226008	7
0	8298	1477.232297437906	8
0	8300	1477.24501500945	9
0	8302	1477.483335877824	10
0	8304	1477.63512690827	9
0	8310	1477.750577588254	10
0	8312	1478.071311670987	11
0	8313	1478.857036085149	10
0	8320	1479.041859915045	9
0	8326	1480.726836070248	10
0	8328	1482.213658264731	9
0	8334	1483.206078420587	8
0	8340	1483.261866327631	9
0	8341	1484.882336366354	8
0	8347	1487.71111277922	9
0	8351	1488.833329528843	10
0	8352	1488.843658464921	9
0	8356	1488.855920577828	10
0	8359	1489.653262223126	9
0	8363	1489.69273317253	10
0	8365	1491.352442891081	11
0	8369	1493.863273313846	10
0	8374	1494.542822463619	9
0	8379	1495.71918850055	8
0	8384	1496.020853095368	7
0	8388	1496.82151096929	8
0	8391	1497.136210960719	7
0	8396	1499.42932553828	6
0	8403	1500.773197056331	5
0	8407	1501.963620831106	6
0	8412	1504.509131599958	5
0	8417	1505.769522457325	4
0	8422	1506.404282646644	3
0	8429	1509.212285840019	2
0	8433	1509.437643599743	3
0	8435	1509.895666358657	4
0	8438	1509.946761831756	3
0	8442	1510.162763910214	4
0	8446	1511.527115677571	3
0	8452	1511.616230480421	4
0	8455	1513.324004794375	3
0	8461	1514.468216265139	2
0	8467	1515.483128717109	1
0	8473	1516.422072209429	0
0	8479	1516.508176150329	1
0	8480	1516.923268973799	0
0	8508	1518.350616104168	1
0	8509	1518.390294372669	0
0	8533	1521.875812995955	1
0	8537	1523.441936473491	0
0	8556	1527.340102094919	1
0	8560	1528.862107296157	2
0	8564	1529.139864345325	1
0	8572	1529.835406494822	0
0	8585	1530.89710727644	1
0	8586	1531.013338176499	0
0	8599	1531.891724879099	1
0	8600	1532.209480473879	0
0	8607	1533.08213741368	1
0	8610	1533.281911343903	2
0	8611	1533.373298094454	1
0	8616	1535.208518818886	0
0	8622	1535.505740840688	1
0	8624	1535.735867780519	0
0	8630	1536.77868840572	1
0	8633	1537.078802546369	0
0	8644	1537.927858886785	1
0	8647	1539.443448384716	0
0	8665	1541.680169483886	1
0	8669	1541.870701775722	0
0	8675	1541.871668554481	1
0	8679	1543.438598403804	0
0	8713	1545.872172400555	1
0	8715	1546.108951781131	2
0	8720	1547.239003705795	1
0	8725	1547.29883766624	0
0	8753	1552.620627294912	1
0	8754	1552.718482235278	0
0	8789	1558.685586467131	1
0	8792	1559.579508935381	0
0	8803	1560.960632255452	1
0	8804	1561.733878439155	0
0	8824	1568.257729044512	1
0	8828	1568.543099603402	2
0	8831	1570.148422391214	3
0	8832	1572.654234949908	2
0	8839	1573.543827090163	3
0	8842	1574.660129136705	2
0	8848	1574.907169713783	3
0	8849	1574.989417811724	2
0	8854	1575.017522695131	1
0	8861	1575.712268495092	2
0	8862	1576.412291670035	1
0	8867	1576.922891985303	0
0	8879	1578.083768389435	1
0	8881	1578.280511907898	2
0	8884	1578.578687187798	1
0	8889	1578.708844841833	0
0	8901	1579.116374041704	1
0	8903	1579.692457727946	2
0	8905	1579.7790003801	3
0	8907	1579.985751438746	4
0	8909	1581.678085294576	5
0	8914	1582.845231187964	4
0	8919	1583.195597684224	3
0	8925	1583.463314125851	2
0	8931	1584.159878453098	1
0	8937	1585.538894433094	0
0	8960	1587.651073840376	1
0	8961	1588.411763922917	0
0	8967	1588.594437350435	1
0	8969	1588.79574794794	2
0	8971	1589.103084326549	1
0	8976	1589.545912947369	0
0	8996	1592.026628978499	1
0	9001	1594.264754650105	0
0	9007	1594.360925515898	1
0	9010	1595.314036721802	0
0	9019	1596.447398337451	1
0	9025	1597.826086767742	0
0	9037	1598.561802002137	1
0	9040	1599.09787041584	0
0	9052	1599.874724993583	1
0	9054	1599.977050957542	2
0	9057	1600.362160132478	3
0	9058	1600.44330568278	2
0	9062	1600.695731076868	3
0	9067	1604.520918031537	4
0	9068	1604.985893248174	3
0	9073	1605.177292983538	2
0	9078	1605.850749828251	1
0	9083	1607.045130536408	0
0	9094	1607.812773021809	1
0	9095	1608.789054211288	0
0	9120	1610.62906175686	1
0	9129	1612.454716367929	0
0	9135	1612.862169460328	1
0	9136	1613.112887443212	0
0	9158	1617.146258492397	1
0	9164	1618.393369725011	2
0	9166	1619.313348514471	1
0	9174	1621.092680200325	0
0	9197	1625.623622086851	1
0	9199	1626.476385261785	2
0	9200	1626.738450040778	1
0	9205	1626.895978883341	0
0	9211	1627.52900261536	1
0	9212	1627.737349700457	0
0	9219	1628.10831869313	1
0	9222	1628.910021489442	0
0	9237	1630.694953284214	1
0	9238	1631.194754228137	0
0	9251	1632.800123861656	1
0	9252	1633.513016967118	0
0	9285	1639.882714517139	1
0	9289	1640.5961171819	2
0	9295	1643.868785800762	3
0	9297	1644.463853573628	4
0	9301	1644.911760351112	5
0	9302	1645.366025362612	4
0	9313	1646.682848030503	5
0	9314	1647.68666138834	4
0	9320	1648.677991473649	5
0	9321	1648.984795912091	4
0	9329	1650.057494317197	5
0	9330	1650.120738883312	4
0	9336	1650.807237061522	3
0	9342	1650.986333375921	4
0	9343	1651.983604316314	3
0	9351	1653.706752747879	2
0	9360	1654.038418716207	3
0	9362	1654.679549054154	2
0	9367	1654.72863198289	1
0	9372	1654.983494153175	0
0	9396	1659.030402320907	1
0	9398	1659.346205239571	2
0	9402	1659.575512873187	3
0	9407	1661.782986602584	4
0	9408	1662.048967665357	3
0	9413	1662.379061432353	2
0	9419	1662.94706375112	1
0	9426	1664.52201445573	0
0	9435	1664.872707775091	1
0	9437	1665.090077750871	2
0	9440	1665.496984811916	1
0	9447	1665.673020441922	2
0	9449	1667.316637632759	1
0	9459	1668.625716528398	0
0	9463	1669.573639746266	1
0	9465	1669.97765539816	2
0	9468	1670.752140887842	1
0	9472	1671.447556436379	2
0	9476	1671.658790753541	1
0	9485	1673.483360968132	0
0	9491	1673.958643804204	1
0	9492	1674.631732314839	0
0	9498	1674.928289171619	1
0	9499	1676.303987750179	0
0	9512	1678.135903187536	1
0	9513	1678.646097410428	0
0	9525	1680.606994689933	1
0	9528	1681.782443414242	2
0	9529	1681.868692557595	1
0	9534	1682.528910242292	0
0	9538	1682.647184948868	1
0	9543	1683.960556266897	0
0	9549	1685.500619051482	1
0	9550	1687.103312443635	0
0	9563	1689.245799009342	1
0	9564	1689.675527322663	0
0	9572	1690.013908806553	1
0	9573	1690.130553073144	0
0	9585	1691.099973282087	1
0	9588	1691.550349045668	0
0	9612	1692.705976898454	1
0	9614	1693.625370961311	2
0	9620	1696.057089240502	3
0	9622	1696.527296040069	4
0	9623	1696.782062097254	3
0	9628	1697.762996101891	2
0	9635	1698.32542660171	3
0	9640	1698.676959875762	2
0	9649	1699.152868277409	3
0	9651	1699.736986406664	2
0	9656	1700.380859313109	1
0	9667	1702.313863909668	2
0	9669	1703.292558120946	3
0	9670	1703.467172084303	2
0	9674	1704.75484838543	3
0	9677	1705.206601333336	2
0	9682	1706.336990402359	1
0	9689	1708.494720681949	0
0	9695	1708.783885077845	1
0	9696	1708.82567604121	0
0	9702	1709.646367324582	1
0	9703	1709.907265412643	0
0	9731	1712.703586781932	1
0	9733	1713.227159683216	2
0	9739	1715.08212143129	3
0	9741	1716.345172572842	2
0	9746	1716.580979755317	1
0	9751	1716.699512127167	0
0	9765	1717.966949046206	1
0	9769	1718.323298877314	2
0	9776	1721.268753121489	3
0	9777	1721.730621523549	2
0	9783	1721.828177144386	3
0	9787	1722.060463783872	4
0	9788	1723.106636105303	3
0	9796	1724.56727155416	2
0	9801	1724.823817349779	1
0	9806	1725.230515719739	0
0	9865	1730.343978107001	1
0	9866	1731.970919014496	0
0	9904	1735.430026478619	1
0	9905	1736.862204106708	0
0	9912	1737.343540407082	1
0	9913	1737.464423220222	0
0	9926	1738.677197716475	1
0	9927	1738.780538857768	0
0	9933	1739.842282014244	1
0	9934	1739.981768333538	0
0	9950	1740.359042709097	1
0	9952	1741.908362459398	0
0	9961	1742.528269554391	1
0	9965	1743.940765609804	0
0	9979	1745.567543904351	1
0	9981	1746.212707657438	2
0	9984	1747.100820929408	1
0	9992	1751.10822143383	0
0	10016	1752.453479457904	1
0	10018	1752.600203839856	0
0	10050	1758.865949733618	1
0	10052	1759.011644871622	0
0	10058	1759.161318327652	1
0	10060	1759.671638357649	2
0	10063	1760.529931530882	3
0	10064	1762.519646006746	2
0	10072	1764.420802333604	1
0	10077	1764.671381190142	0
0	10099	1766.159302025155	1
0	10101	1766.9807975611	2
0	10103	1768.479617163343	3
0	10104	1768.553526543434	2
0	10110	1770.757515248744	3
0	10111	1770.774952293984	2
0	10119	1771.523291595109	1
0	10127	1772.289342972096	0
0	10148	1774.708710563245	1
0	10151	1775.52697775617	0
0	10165	1778.419221000912	1
0	10168	1780.417728212949	0
0	10204	1783.918107865076	1
0	10208	1784.295084790081	2
0	10211	1786.088967797961	3
0	10214	1787.279688949386	2
0	10220	1787.30438433375	3
0	10221	1787.321400710588	2
0	10229	1787.848943405009	1
0	10234	1787.97236752799	0
0	10240	1788.643004149494	1
0	10241	1790.034114012555	0
0	10264	1793.141583257066	1
0	10266	1793.206817814266	2
0	10267	1793.61436579183	1
0	10273	1794.23902268395	0
0	10279	1794.330766328955	1
0	10280	1794.653058875898	0
0	10305	1797.58477487863	1
0	10307	1797.909225446165	2
0	10309	1799.247400540301	3
0	10310	1799.580752413285	2
0	10316	1799.806124272815	3
0	10318	1800.078679089578	2
0	10323	1800.415564654241	1
0	10328	1800.550388059191	0
0	10371	1810.443492510936	1
0	10372	1811.210555095982	0
0	10425	1828.018496288514	1
0	10427	1829.208478641145	2
0	10429	1830.688983432542	1
0	10435	1830.865580589616	2
0	10436	1830.928742079827	1
0	10442	1832.138622516735	2
0	10443	1832.182761523246	1
0	10450	1834.967490909054	0
0	10470	1838.275469412416	1
0	10471	1838.467592883719	0
0	10482	1841.722942475766	1
0	10485	1843.639452514506	0
0	10489	1843.827248955909	1
0	10491	1846.061454486907	2
0	10495	1846.452890507106	3
0	10497	1848.102749202939	4
0	10498	1848.313765827178	3
0	10503	1849.058593323741	2
0	10509	1853.331724143417	3
0	10510	1853.58887173053	2
0	10514	1854.015058766826	3
0	10516	1855.093395507215	4
0	10519	1856.835019535916	3
0	10523	1857.115832231527	4
0	10525	1857.163178821749	5
0	10529	1857.453644161918	6
0	10530	1858.558164803899	5
0	10534	1860.387111655737	6
0	10536	1860.474611290903	7
0	10538	1860.641460815557	8
0	10540	1861.023391624318	9
0	10546	1862.921883088882	8
0	10551	1863.673961310967	7
0	10556	1865.531271369617	6
0	10560	1866.498779181159	7
0	10562	1867.351111404164	8
0	10571	1871.869638925645	7
0	10575	1872.234965521278	8
0	10577	1872.394740850698	9
0	10579	1872.869224844602	10
0	10582	1873.926986676326	9
0	10586	1874.339841050995	10
0	10588	1874.608278751396	11
0	10592	1875.007952589992	12
0	10594	1875.925263667481	11
0	10599	1877.244121285096	10
0	10605	1877.573825695844	11
0	10607	1877.82467227839	12
0	10611	1878.301014551524	13
0	10616	1882.389146095066	12
0	10621	1883.030999444384	11
0	10628	1884.368234839342	10
0	10632	1885.629845024767	11
0	10634	1887.467012982554	12
0	10636	1888.422734272238	13
0	10639	1890.381617382712	12
0	10645	1891.450486567249	13
0	10649	1891.630536763492	14
0	10651	1891.877227059508	15
0	10653	1892.254241583101	16
0	10656	1893.502843944143	15
0	10660	1893.791767299293	16
0	10664	1894.354559425255	17
0	10667	1894.445789064287	16
0	10671	1894.471108718559	17
0	10676	1896.303891356634	16
0	10680	1896.725577641924	17
0	10683	1897.607079294843	16
0	10688	1898.02185383482	15
0	10696	1898.676753982748	16
0	10697	1899.005501304528	15
0	10702	1899.637856845301	14
0	10709	1900.651246499501	13
0	10714	1902.929270473944	12
0	10722	1905.975541159241	13
0	10724	1906.084669612447	14
0	10725	1906.224216429855	13
0	10732	1907.105887467008	12
0	10739	1907.23813258086	11
0	10744	1907.475667284905	10
0	10752	1908.670328410057	11
0	10754	1909.001620710509	12
0	10757	1910.003376386205	11
0	10761	1911.040943216795	12
0	10763	1914.210295005807	13
0	10767	1914.314488393969	14
0	10768	1914.580269533571	13
0	10774	1917.030208369211	12
0	10779	1917.160918147619	11
0	10783	1917.414085621555	12
0	10786	1917.798999179304	11
0	10791	1920.098066262021	10
0	10797	1920.598242753422	11
0	10799	1920.809176964143	12
0	10803	1921.090429735082	13
0	10804	1921.26735072909	12
0	10810	1925.952350207669	13
0	10812	1926.374587961866	14
0	10814	1926.389612765845	15
0	10819	1927.368966803758	16
0	10820	1927.392897134644	15
0	10826	1927.55346105921	16
0	10827	1927.69886167959	15
0	10833	1927.932298182957	16
0	10835	1928.193586455479	17
0	10839	1929.071996018433	18
0	10843	1929.326898982286	19
0	10844	1929.41837370907	18
0	10848	1929.924080618927	19
0	10850	1929.979534918042	20
0	10852	1930.649550912663	21
0	10856	1931.656995991512	22
0	10861	1932.837865920812	21
0	10869	1933.506903563699	22
0	10871	1934.050255608637	23
0	10873	1934.093279039277	24
0	10874	1934.442921122281	23
0	10880	1935.495331402324	24
0	10882	1935.869636152416	25
0	10884	1936.288364190098	26
0	10886	1936.299231545703	27
0	10887	1936.40189770568	26
0	10892	1937.394378761739	25
0	10896	1937.635601824852	26
0	10899	1938.418540554678	25
0	10905	1938.933440154535	26
0	10906	1939.791188932847	25
0	10910	1940.106561222426	26
0	10912	1941.329635372421	27
0	10915	1942.944182645997	26
0	10923	1943.750131940815	27
0	10927	1945.196201375112	26
0	10933	1945.225869233581	27
0	10934	1945.486705136739	26
0	10938	1946.619796336254	27
0	10942	1948.15816509	28
0	10944	1948.422601355664	29
0	10946	1948.438604119414	30
0	10948	1950.253884074721	31
0	10951	1950.549506848923	30
0	10956	1951.183176537933	29
0	10962	1952.718359546703	30
0	10964	1953.437036472791	31
0	10967	1953.880381771683	30
0	10975	1954.743736182446	31
0	10979	1955.774614993086	32
0	10984	1956.65519393775	33
0	10986	1956.798465896	34
0	10990	1957.10926241757	35
0	10992	1957.980922505685	36
0	10994	1958.021385446985	37
0	10995	1958.075499283031	36
0	11001	1958.533804286396	35
0	11006	1958.58892790909	34
0	11011	1959.129183628461	33
0	11016	1960.2627180133	32
0	11020	1961.343554136742	33
0	11024	1961.638820493426	34
0	11025	1961.858969625536	33
0	11030	1964.157373136376	32
0	11037	1965.36988049364	31
0	11043	1966.558160917309	30
0	11048	1967.151057595057	29
0	11052	1967.3568175602	30
0	11055	1968.014137216169	29
0	11059	1968.612102827402	30
0	11061	1968.931569231563	31
0	11066	1970.256592081916	30
0	11071	1971.573210537641	29
0	11075	1971.811508224164	30
0	11077	1971.889860905333	31
0	11079	1973.031224322922	32
0	11081	1973.572786024051	33
0	11084	1974.791255651051	32
0	11089	1975.277091667104	31
0	11094	1975.698651476277	30
0	11100	1977.066255914327	29
0	11105	1977.122783168465	28
0	11111	1979.087650921902	29
0	11114	1979.611269502074	28
0	11120	1982.651946556211	27
0	11127	1983.321896152621	26
0	11134	1984.399936945064	25
0	11142	1989.353561143087	24
0	11148	1989.615734189016	23
0	11153	1989.710060294544	22
0	11157	1990.841224035409	23
0	11160	1991.450825163065	22
0	11167	1994.373682082429	21
0	11172	1994.941410918703	20
0	11178	1998.159333450584	21
0	11180	1998.349094638836	22
0	11182	1998.705803031251	23
0	11186	1999.241313596126	24
0	11188	2001.565990260678	25
0	11192	2001.659150247897	26
0	11193	2002.786546459354	25
0	11198	2003.784673114628	24
0	11202	2004.693103404588	25
0	11205	2005.033490080102	24
0	11212	2008.358346433983	23
0	11217	2008.543128092954	22
0	11222	2010.364035683402	21
0	11226	2013.726967920346	22
0	11229	2015.631382367609	21
0	11233	2016.267855108958	22
0	11237	2018.518254300417	23
0	11240	2020.023092339506	22
0	11244	2020.031889228837	23
0	11247	2020.984450556706	22
0	11251	2021.555939832095	23
0	11255	2023.769025737452	24
0	11256	2024.226047650894	23
0	11261	2026.385412898868	22
0	11266	2027.333209207365	21
0	11271	2028.510346504576	20
0	11275	2030.917904699903	21
0	11277	2030.932127514045	22
0	11279	2031.994860653367	23
0	11281	2032.173710704634	24
0	11289	2034.316238659828	25
0	11290	2036.138194188936	24
0	11297	2036.990148693896	23
0	11303	2037.866602872504	22
0	11308	2037.928771076378	21
0	11315	2039.226147861054	20
0	11321	2040.393265722283	19
0	11326	2040.530220018582	18
0	11332	2042.12109589154	19
0	11333	2042.270159508811	18
0	11337	2042.560396995956	19
0	11341	2043.774057767404	20
0	11342	2044.207799183569	19
0	11348	2044.72807122525	20
0	11350	2046.034457923634	21
0	11353	2046.606665515404	20
0	11358	2047.674887712301	19
0	11365	2048.987358393006	20
0	11367	2050.342869852972	19
0	11373	2051.392569589848	20
0	11377	2052.15647972384	21
0	11378	2052.199240428517	20
0	11392	2056.508315728595	21
0	11393	2057.166229776702	20
0	11399	2058.094307075382	19
0	11404	2058.315198535076	18
0	11410	2060.173862537611	17
0	11416	2060.707293777237	18
0	11417	2064.101302872146	17
0	11425	2064.574612535809	16
0	11430	2065.036928528358	15
0	11435	2065.063734232752	14
0	11440	2066.196593895364	13
0	11445	2067.073674649239	12
0	11450	2067.694395216757	11
0	11455	2068.738041827206	10
0	11465	2071.592514652559	11
0	11466	2071.648473244267	10
0	11473	2071.917727359119	9
0	11478	2072.884498263132	8
0	11483	2074.90899951414	7
0	11489	2076.847839704966	6
0	11499	2077.959664230684	7
0	11501	2078.547547480962	8
0	11502	2079.312163555249	7
0	11507	2079.511700265878	6
0	11514	2079.831660209422	7
0	11515	2080.558966855968	6
0	11522	2080.633333340704	7
0	11523	2081.002545202591	6
0	11528	2081.377229025693	5
0	11533	2081.608626668354	4
0	11537	2081.977972272258	5
0	11539	2084.388642219322	6
0	11542	2085.848119132045	5
0	11547	2086.884158010162	4
0	11554	2088.741458103737	5
0	11555	2089.155667493118	4
0	11560	2089.741144267741	3
0	11564	2090.303217114253	4
0	11567	2090.620849538691	3
0	11573	2091.467668622593	4
0	11574	2092.093278419866	3
0	11578	2092.582005426631	4
0	11582	2094.888128880432	5
0	11584	2094.936652500989	6
0	11589	2096.016421508139	5
0	11595	2096.754217738397	6
0	11598	2098.276019278062	5
0	11603	2098.557050585801	4
0	11609	2098.867921969142	5
0	11614	2099.880297301897	4
0	11622	2102.412697891069	5
0	11624	2103.186641897742	6
0	11626	2103.642520421143	7
0	11628	2103.902104271903	8
0	11632	2104.571881526404	9
0	11633	2105.199809785479	8
0	11640	2107.549902936196	7
0	11645	2108.375649896545	6
0	11650	2110.684569792288	5
0	11654	2112.099604001378	6
0	11659	2112.605765802245	5
0	11666	2113.528815769683	4
0	11670	2113.689042374607	5
0	11677	2114.920006026686	4
0	11681	2115.203669002677	5
0	11683	2117.613563251985	6
0	11686	2119.3232009536	5
0	11694	2121.708478492446	6
0	11695	2121.829333095561	5
0	11699	2121.86140714973	6
0	11703	2122.970772463159	7
0	11705	2123.160820908852	6
0	11710	2123.163748930064	5
0	11715	2124.553756806405	4
0	11720	2125.271381796068	3
0	11725	2125.723125097481	2
0	11730	2126.472789412156	1
0	11735	2127.175260825888	0
0	11744	2128.698491500863	1
0	11745	2128.898973527402	0
0	11766	2130.2768715451	1
0	11770	2130.793553632607	0
0	11776	2132.410698906233	1
0	11777	2132.562601492072	0
0	11788	2132.821670101291	1
0	11790	2132.974799618294	2
0	11791	2133.310078618841	1
0	11798	2134.949979466673	0
0	11802	2142.434551856323	1
0	11808	2144.414713529483	0
0	11829	2146.105972312219	1
0	11830	2146.449050274709	0
0	11847	2148.0433960674	1
0	11848	2148.169477109165	0
0	11862	2149.699426900728	1
0	11863	2150.822523166368	0
0	11874	2151.755345918718	1
0	11875	2152.024150260455	0
0	11881	2152.385269070216	1
0	11882	2152.556767772523	0
0	11898	2154.705662631071	1
0	11900	2154.904617470773	2
0	11901	2155.107012623841	1
0	11906	2155.255439695907	0
0	11919	2156.132481701644	1
0	11920	2157.048695109328	0
0	11931	2157.537428705551	1
0	11933	2157.615028871532	2
0	11936	2158.634590260713	1
0	11941	2159.201951464092	0
0	11966	2161.364669863592	1
0	11968	2161.81299897403	0
0	11974	2161.839389798284	1
0	11975	2162.250542467006	0
0	11981	2162.264662784903	1
0	11983	2162.447715770275	0
0	11994	2162.998258162413	1
0	11996	2163.422968011701	2
0	12000	2164.187912348185	3
0	12002	2164.61440280197	2
0	12007	2165.000707004718	1
0	12015	2165.660402077843	2
0	12024	2168.79137261594	1
0	12031	2169.701460376459	0
0	12078	2175.36471737216	1
0	12082	2176.620698046408	2
0	12083	2177.111488020615	1
0	12089	2177.43280898468	2
0	12090	2177.97694112902	1
0	12097	2178.689769945382	0
0	12110	2179.464072863496	1
0	12111	2179.497584646294	0
0	12130	2182.283906896013	1
0	12131	2182.845321354963	0
0	12153	2184.59685129041	1
0	12162	2187.434631778651	0
0	12203	2194.304113480036	1
0	12204	2194.397369947286	0
0	12217	2194.907587272275	1
0	12218	2194.955036434784	0
0	12233	2196.300124135635	1
0	12234	2196.323042363677	0
0	12271	2203.364630145962	1
0	12275	2205.166141144464	2
0	12276	2205.185824050835	1
0	12282	2205.69553940428	2
0	12285	2206.803474074778	3
0	12292	2208.093997904804	2
0	12299	2211.099955353425	1
0	12306	2211.898698879379	2
0	12307	2212.313756985812	1
0	12316	2212.781336055228	0
0	12347	2219.331908465434	1
0	12349	2219.958107133076	2
0	12350	2220.843894980234	1
0	12356	2222.73017180109	0
0	12367	2223.038717636264	1
0	12368	2223.07242501504	0
0	12380	2224.780020339596	1
0	12383	2226.256794403354	0
0	12405	2227.861507617866	1
0	12406	2227.886980473013	0
0	12423	2228.894354347486	1
0	12426	2229.09970674669	2
0	12427	2229.589591133287	1
0	12434	2230.884794788176	0
0	12460	2235.627893477519	1
0	12462	2235.789499917362	0
0	12474	2236.820195956837	1
0	12475	2236.889197976391	0
0	12499	2239.056639823714	1
0	12500	2239.612914013517	0
0	12506	2239.680228328148	1
0	12507	2239.755262624551	0
0	12517	2240.508760065825	1
0	12524	2241.912283852123	0
0	12539	2243.136647521205	1
0	12542	2244.391949377831	0
0	12560	2247.716746737514	1
0	12563	2248.488687919409	0
0	12583	2251.611170570487	1
0	12584	2252.569138284004	0
0	12594	2253.116298032281	1
0	12597	2254.704594995106	0
0	12606	2255.085797733311	1
0	12610	2256.205030761886	0
0	12627	2258.869113998406	1
0	12630	2259.593908389014	2
0	12632	2259.594244879485	3
0	12633	2260.214596379284	2
0	12638	2260.409675119204	1
0	12644	2260.996623054889	0
0	12658	2261.723778265066	1
0	12661	2262.105307305065	0
0	12682	2264.979986015419	1
0	12684	2266.519179093342	2
0	12687	2267.345771700428	1
0	12693	2268.043549590012	0
0	12711	2270.308052313424	1
0	12714	2270.639840695065	2
0	12718	2273.348237842156	1
0	12723	2273.508729990159	0
0	12731	2274.820044349985	1
0	12732	2275.457661863855	0
0	12738	2275.632811459556	1
0	12742	2275.748797933693	2
0	12744	2275.804929133754	3
0	12746	2275.904472241169	4
0	12747	2276.431283529709	3
0	12757	2277.7719556338	2
0	12762	2278.320973402172	1
0	12766	2278.784677519716	2
0	12770	2278.910573157587	3
0	12771	2279.496210011977	2
0	12777	2282.165265183649	3
0	12779	2282.24682859801	4
0	12781	2283.249602496805	5
0	12790	2284.378184206916	6
0	12793	2284.695172974651	5
0	12799	2284.906323648193	6
0	12801	2285.412642763576	5
0	12806	2286.262327281765	4
0	12812	2287.222982451043	5
0	12813	2287.793463524361	4
0	12818	2288.278391555322	3
0	12825	2289.317715355571	4
0	12829	2289.99020845088	3
0	12835	2290.076664865332	4
0	12837	2290.118617161485	5
0	12839	2290.758231897022	4
0	12844	2291.128233678691	3
0	12850	2291.319791650971	4
0	12851	2291.469510970218	3
0	12857	2292.718292081714	4
0	12859	2293.390963590595	3
0	12864	2293.466497776499	2
0	12868	2293.674703179131	3
0	12877	2297.475629073614	2
0	12883	2297.612895298179	3
0	12885	2298.199462033602	4
0	12887	2299.372518426312	3
0	12893	2300.208890773387	2
0	12899	2300.296882283432	3
0	12900	2300.402125713759	2
0	12905	2300.499334036218	1
0	12911	2300.703398387191	2
0	12915	2302.093290028229	1
0	12922	2302.725245203812	2
0	12923	2302.922601517111	1
0	12928	2303.744134338463	0
0	12962	2307.228563538768	1
0	12966	2308.780434138862	0
0	12979	2309.265523889802	1
0	12981	2309.376084670108	2
0	12982	2309.546606715928	1
0	12989	2310.081417563376	2
0	12995	2311.718219141595	3
0	12996	2312.082932647715	2
0	13001	2312.246938509209	1
0	13006	2312.699029035163	0
0	13022	2313.276265071919	1
0	13025	2314.66424001157	0
0	13055	2320.019777261054	1
0	13058	2322.188536492206	0
0	13064	2322.821830025715	1
0	13067	2324.234754099912	2
0	13069	2325.050649355123	1
0	13076	2326.4473381216	0
0	13137	2333.750894131815	1
0	13138	2334.678301214136	0
0	13147	2335.165583797426	1
0	13151	2335.511825914226	2
0	13154	2335.693762940595	1
0	13160	2335.952295947147	2
0	13164	2336.37347871036	1
0	13170	2338.270685266989	0
0	13185	2339.317574648965	1
0	13187	2339.406422588637	2
0	13191	2339.849118000289	1
0	13196	2340.042831324749	0
0	13211	2342.207011797872	1
0	13214	2342.753909989177	0
0	13226	2344.019974162217	1
0	13233	2346.225525207048	0
0	13241	2347.337278304536	1
0	13242	2347.452475350017	0
0	13248	2347.488896763892	1
0	13249	2347.656213321258	0
0	13272	2349.62684311215	1
0	13274	2349.870509951087	2
0	13276	2350.331460923103	3
0	13282	2353.354789848865	4
0	13284	2353.538375693764	3
0	13289	2353.776147105584	2
0	13294	2353.987569550311	1
0	13300	2354.330997507777	0
0	13360	2366.274538821391	1
0	13363	2366.476075232332	0
0	13370	2367.200567684921	1
0	13372	2367.486392008245	2
0	13373	2367.837256594772	1
0	13380	2369.389830128455	2
0	13381	2370.103340354215	1
0	13387	2370.875750829181	0
0	13401	2372.233152250797	1
0	13403	2372.972849613724	0
0	13417	2376.923570777986	1
0	13420	2377.747783546798	0
0	13434	2379.587545403105	1
0	13435	2379.804145125102	0
0	13444	2380.514930390226	1
0	13446	2380.704510600237	2
0	13449	2381.65212748028	1
0	13457	2383.004927622577	0
0	13480	2386.644573620762	1
0	13482	2387.622185953351	0
0	13488	2387.922921780256	1
0	13490	2388.83495355893	0
0	13533	2396.642263395855	1
0	13536	2397.335569527042	2
0	13538	2399.200477053901	3
0	13539	2400.746664238039	2
0	13544	2400.760269694597	1
0	13552	2401.475049849395	0
0	13558	2401.583644895317	1
0	13559	2402.605714232115	0
0	13570	2402.726428036227	1
0	13573	2404.071895309591	0
0	13579	2404.990954635077	1
0	13580	2405.647342335888	0
0	13584	2407.138523300699	1
0	13586	2407.503679454421	2
0	13590	2407.589176462562	3
0	13591	2408.036690128713	2
0	13596	2408.881970641711	1
0	13606	2412.563969970809	2
0	13609	2412.870103390905	1
0	13614	2413.01100572841	0
0	13643	2415.9933586983	1
0	13645	2417.158343197459	0
0	13660	2419.715243172347	1
0	13662	2420.18586224195	2
0	13664	2420.280610098009	3
0	13667	2421.32903398467	2
0	13672	2421.350328503747	1
0	13677	2422.331651194018	0
0	13692	2425.678644958687	1
0	13694	2425.800499891448	2
0	13695	2427.155268112582	1
0	13700	2427.232095221929	0
0	13706	2427.236638824725	1
0	13707	2427.658360775428	0
0	13713	2428.401882469987	1
0	13724	2430.057240116065	2
0	13725	2430.696772241421	1
0	13729	2430.813948188049	2
0	13733	2431.205419836937	3
0	13735	2431.241229558003	4
0	13736	2431.290295196596	3
0	13742	2434.136712790237	4
0	13744	2434.139859970793	5
0	13746	2434.555336587243	6
0	13747	2435.243433923888	5
0	13751	2436.001147616575	6
0	13754	2437.490855798734	5
0	13761	2440.374234631572	4
0	13766	2443.151227891488	3
0	13773	2443.705333190102	2
0	13779	2446.765769979691	3
0	13781	2447.405423911066	4
0	13784	2447.929189965059	3
0	13790	2448.201278440298	4
0	13798	2450.592671981942	3
0	13803	2451.001006878807	2
0	13811	2451.347911607731	3
0	13813	2452.604423201093	2
0	13820	2453.233651974618	3
0	13821	2453.4718148775	2
0	13826	2453.958334206904	1
0	13832	2454.099176358402	2
0	13833	2457.55927832359	1
0	13839	2459.266873073433	0
0	13850	2459.607435571847	1
0	13853	2459.694048152836	2
0	13854	2459.959398729249	1
0	13860	2460.686508604808	2
0	13862	2460.788829092821	3
0	13866	2461.996444898232	2
0	13871	2462.007090405059	1
0	13876	2462.998940928145	0
0	13908	2465.500613528589	1
0	13909	2465.508309431587	0
0	13918	2468.164413877165	1
0	13920	2468.255445274538	2
0	13922	2468.9446236941	3
0	13926	2470.097145724507	2
0	13934	2475.363304876674	1
0	13942	2476.688427776781	0
0	13949	2476.930335681121	1
0	13950	2476.966272587234	0
0	13954	2477.113496836144	1
0	13958	2477.704664094395	2
0	13962	2479.182613711696	1
0	13967	2479.467292866633	0
0	13971	2480.083102453864	1
0	13976	2481.306517967229	0
0	14003	2485.011736510256	1
0	14008	2486.634905814022	2
0	14010	2486.986252960007	3
0	14013	2488.277299241897	2
0	14018	2489.038192241058	1
0	14024	2489.888773375293	0
0	14035	2490.686578712562	1
0	14036	2490.920631249964	0
0	14084	2494.31342218851	1
0	14087	2497.099675651529	2
0	14088	2498.216492176236	1
0	14093	2498.809702162752	0
0	14100	2500.175275304723	1
0	14102	2500.522329277427	2
0	14110	2502.472224442355	3
0	14112	2502.826067362611	2
0	14117	2503.433559782184	1
0	14123	2503.6151926157	2
0	14124	2503.750775329456	1
0	14132	2504.485290121472	0
0	14151	2505.633331809117	1
0	14152	2505.718722594365	0
0	14160	2506.358212728229	1
0	14162	2506.678682163971	2
0	14163	2508.263186642062	1
0	14175	2509.88084359883	2
0	14178	2511.166511615378	1
0	14183	2512.154501507341	0
0	14229	2518.661350995673	1
0	14234	2520.194087664955	2
0	14237	2520.732352275035	1
0	14243	2521.312751754506	0
0	14262	2523.923654283773	1
0	14264	2525.261506672921	0
0	14270	2525.482981332101	1
0	14272	2526.070524125438	2
0	14273	2526.146210973401	1
0	14278	2527.048273437898	0
0	14312	2530.485142335491	1
0	14313	2531.345601265304	0
0	14319	2531.499107380348	1
0	14320	2531.92377100081	0
0	14326	2532.125172326712	1
0	14327	2532.344279555545	0
0	14335	2533.231692925571	1
0	14336	2533.237395208167	0
0	14340	2533.340401341188	1
0	14353	2536.20757950544	2
0	14355	2537.692864458317	1
0	14360	2538.573037809504	0
0	14436	2552.058702841029	1
0	14437	2552.621876592924	0
0	14444	2553.404158535517	1
0	14446	2555.091011198718	0
0	14469	2557.281002991145	1
0	14470	2557.750372256658	0
0	14476	2557.805132461682	1
0	14479	2558.457573717772	2
0	14482	2558.653659055423	1
0	14491	2561.130686743635	2
0	14495	2562.298896584373	1
0	14501	2563.212154609169	0
0	14547	2568.493584399915	1
0	14550	2569.352095545305	0
0	14591	2579.223374725807	1
0	14594	2579.887163731632	0
0	14609	2581.319419896092	1
0	14610	2581.989177379766	0
0	14621	2582.144464388069	1
0	14625	2583.2435715223	2
0	14629	2584.353340985503	1
0	14635	2584.386135297716	2
0	14637	2584.603568703714	3
0	14640	2585.040686919294	2
0	14645	2585.255839859793	1
0	14650	2585.877600628293	0
0	14657	2586.204473572036	1
0	14660	2587.470772124108	0
0	14671	2587.642558921265	1
0	14673	2588.503376042394	0
0	14684	2588.9790048412	1
0	14685	2589.00462527986	0
0	14701	2590.44793848446	1
0	14705	2593.978875515096	0
0	14718	2597.044950435399	1
0	14720	2599.77737601908	2
0	14724	2602.008164584755	3
0	14726	2602.574638882217	2
0	14732	2603.646067462958	1
0	14737	2603.817674631794	0
0	14752	2606.574502184642	1
0	14753	2607.322794328027	0
0	14761	2607.534522207748	1
0	14763	2608.43236881013	2
0	14764	2609.001349257594	1
0	14770	2609.210441375965	2
0	14772	2609.719117157191	1
0	14777	2610.027740401504	0
0	14781	2611.038993383546	1
0	14784	2611.861449562423	0
0	14806	2618.913125086797	1
0	14808	2618.96098991166	2
0	14809	2619.707532755869	1
0	14816	2620.798441770635	0
0	14839	2622.848430851185	1
0	14842	2623.143184875675	2
0	14847	2624.893182787286	3
0	14848	2625.136871008775	2
0	14853	2625.189012707002	1
0	14858	2625.699222827368	0
0	14867	2626.519106540786	1
0	14868	2626.562425299522	0
0	14897	2630.600248959555	1
0	14898	2630.831711330516	0
0	14912	2631.753026293548	1
0	14914	2632.092223769868	0
0	14936	2633.613498215944	1
0	14937	2633.615339580077	0
0	14955	2635.772659712526	1
0	14956	2635.778328873404	0
0	14960	2636.198838396989	1
0	14964	2637.737054484179	2
0	14967	2639.374222487928	1
0	14971	2640.583422587792	2
0	14975	2641.698598123662	1
0	14980	2641.939569364624	0
0	14999	2644.601643705945	1
0	15004	2645.761720692027	0
0	15008	2646.113311860229	1
0	15012	2646.725034129879	2
0	15015	2649.288522535127	1
0	15025	2650.091701466535	2
0	15026	2650.144711956058	1
0	15030	2650.558849321827	2
0	15037	2652.604971515632	3
0	15039	2652.615175823968	4
0	15040	2654.389390762252	3
0	15048	2655.727853449476	2
0	15055	2656.509152291722	3
0	15057	2656.637589433986	4
0	15059	2657.012981961908	3
0	15064	2657.543761943495	2
0	15071	2658.203456021121	1
0	15075	2658.756137541445	2
0	15080	2659.558438695616	1
0	15088	2661.691050573289	2
0	15089	2662.453619837371	1
0	15095	2662.900742856075	2
0	15099	2665.521819213333	1
0	15107	2666.385496421456	2
0	15109	2667.069459787045	1
0	15114	2669.536595743727	0
0	15120	2669.72231148906	1
0	15121	2669.825389196349	0
0	15144	2671.18338222591	1
0	15149	2672.973915315426	2
0	15150	2673.069511074567	1
0	15155	2673.32127330279	0
0	15204	2680.362035032581	1
0	15207	2680.927323499348	0
0	15244	2684.613246489363	1
0	15246	2685.148162301072	2
0	15249	2685.56744642349	3
0	15254	2687.1046949245	4
0	15258	2687.428466759028	5
0	15259	2687.960479732502	4
0	15264	2688.012543563193	3
0	15269	2688.304075223076	2
0	15273	2688.498121792116	3
0	15278	2690.349471533428	2
0	15289	2695.279195811057	1
0	15300	2697.102978874556	2
0	15301	2697.254087368606	1
0	15308	2697.89044584027	0
0	15345	2706.3492898103	1
0	15346	2706.812807709562	0
0	15357	2707.639890551302	1
0	15360	2708.911027483991	2
0	15361	2709.103970534382	1
0	15366	2709.432374628136	0
0	15387	2711.764554394853	1
0	15390	2712.915552977278	0
0	15425	2716.49827815423	1
0	15427	2716.526831117235	2
0	15429	2716.937358088912	1
0	15434	2716.956659473894	0
0	15450	2718.570286464421	1
0	15454	2720.147649878909	0
0	15462	2721.178859286445	1
0	15463	2722.111042001141	0
0	15506	2727.287386392967	1
0	15508	2727.373328518518	2
0	15509	2727.936489056652	1
0	15514	2727.961853923711	0
0	15523	2728.742936118469	1
0	15531	2730.198503980352	2
0	15532	2730.438068102042	1
0	15537	2730.486063966278	0
0	15543	2731.935215299654	1
0	15544	2731.997844824611	0
0	15582	2743.817165687363	1
0	15584	2743.971280781508	2
0	15585	2744.048995891124	1
0	15590	2745.441213409568	0
0	15594	2746.716402522449	1
0	15596	2746.886143684405	2
0	15599	2748.097832876831	1
0	15603	2748.156778533545	2
0	15606	2748.671943766198	1
0	15610	2748.811119804294	2
0	15612	2750.105032405205	3
0	15617	2751.1447954668	4
0	15622	2753.029960774865	3
0	15627	2753.290719519874	2
0	15632	2753.827685373394	1
0	15636	2754.073334906172	2
0	15639	2755.36537135745	1
0	15648	2756.789055296724	0
0	15664	2759.872718037594	1
0	15665	2760.13274862167	0
0	15672	2760.402978604023	1
0	15676	2760.882247741792	2
0	15677	2761.451706090221	1
0	15682	2761.66747950073	0
0	15748	2768.683712089166	1
0	15751	2770.5421673919	0
0	15759	2770.977075408255	1
0	15760	2771.469567416886	0
0	15764	2772.405935738907	1
0	15766	2773.081212284795	2
0	15770	2773.437903460564	3
0	15772	2774.689654247629	2
0	15777	2774.882894733165	1
0	15783	2776.273311451235	2
0	15785	2780.821311166351	3
0	15787	2781.784790984092	4
0	15796	2785.351288719674	5
0	15798	2785.976832378211	6
0	15799	2786.047495127831	5
0	15808	2787.931845390973	6
0	15809	2788.710653688835	5
0	15815	2788.837776615425	6
0	15817	2789.607151161854	5
0	15822	2789.642389396348	4
0	15827	2789.920707232322	3
0	15835	2791.662791682703	2
0	15841	2792.259813818881	1
0	15848	2792.644808110052	0
0	15854	2793.53947643155	1
0	15856	2793.589009628512	2
0	15859	2794.081588914536	3
0	15861	2794.179248534503	4
0	15862	2794.433493408811	3
0	15867	2794.764274598418	2
0	15873	2795.335950992477	3
0	15874	2795.597568219444	2
0	15879	2797.743589675069	1
0	15885	2798.479630057479	2
0	15888	2799.157316055764	1
0	15894	2799.37920715145	2
0	15895	2799.595111656568	1
0	15904	2800.822601867644	2
0	15908	2802.922588973931	1
0	15914	2803.580581318366	2
0	15915	2803.630052841186	1
0	15920	2803.86982948971	0
0	15951	2806.942862949048	1
0	15954	2807.502873264576	2
0	15955	2807.774881206926	1
0	15962	2808.686059360095	0
0	15968	2809.63382593192	1
0	15969	2810.273147387008	0
0	15994	2812.886972890993	1
0	15998	2814.330606812933	2
0	16001	2816.149217588428	1
0	16007	2816.553405927501	0
0	16016	2820.09422610418	1
0	16018	2820.282274515906	2
0	16024	2820.552524477704	1
0	16032	2821.609565942833	2
0	16034	2822.289658911302	1
0	16042	2822.760894596979	2
0	16044	2823.042944212802	3
0	16046	2823.17015931051	4
0	16050	2824.589824904583	3
0	16056	2824.739911243825	4
0	16057	2824.896902029964	3
0	16067	2826.294167003606	2
0	16072	2826.651157743822	1
0	16077	2826.792367520676	0
0	16096	2829.193298540339	1
0	16098	2829.703888513638	2
0	16100	2829.967379226901	3
0	16104	2830.786264361229	2
0	16109	2830.867784812571	1
0	16114	2833.673329730765	0
0	16149	2836.780423091592	1
0	16151	2837.070721573014	0
0	16176	2840.179259888804	1
0	16179	2840.81622074376	0
0	16196	2846.460391424389	1
0	16200	2849.544473464023	2
0	16203	2850.342682398903	1
0	16209	2850.725550653505	0
0	16219	2851.617350076317	1
0	16224	2852.195241979526	0
0	16235	2853.236544602893	1
0	16241	2854.926018507396	0
0	16254	2857.051150847159	1
0	16260	2857.34266811556	0
0	16272	2859.37120899902	1
0	16273	2859.939099070677	0
0	16357	2874.894413018176	1
0	16359	2875.781586477181	0
0	16366	2876.575017784107	1
0	16369	2877.089491324287	0
0	16391	2882.110044314254	1
0	16392	2882.136199287837	0
0	16406	2884.778898504175	1
0	16408	2884.947650512959	2
0	16412	2886.295838896119	1
0	16419	2888.938260661915	2
0	16420	2890.13885787268	1
0	16428	2893.535887183295	0
0	16434	2893.799849759703	1
0	16435	2893.865268518587	0
0	16441	2895.112571368702	1
0	16442	2895.120868851165	0
0	16487	2900.786891600375	1
0	16489	2901.859684620523	0
0	16503	2905.118363410384	1
0	16504	2905.97172297935	0
0	16510	2907.777951971376	1
0	16511	2907.828517030248	0
0	16524	2909.359653354655	1
0	16525	2909.494502563715	0
0	16529	2910.304328417752	1
0	16533	2911.384729352752	2
0	16535	2911.675812056529	3
0	16536	2911.862237067895	2
0	16540	2913.238347734426	3
0	16544	2913.72930881739	2
0	16551	2914.932236015613	3
0	16552	2914.984127474624	2
0	16558	2917.391333280332	3
0	16561	2920.012811020988	2
0	16565	2921.490140657299	3
0	16569	2922.899872899797	2
0	16574	2923.380410505487	1
0	16582	2926.76700351722	2
0	16584	2926.779663583319	3
0	16587	2928.500459324194	2
0	16591	2928.868147222436	3
0	16595	2928.997447013868	2
0	16602	2929.552961737608	1
0	16610	2931.134893425334	0
0	16621	2931.376933315845	1
0	16626	2932.983617896067	0
0	16638	2933.669648172234	1
0	16640	2934.304058507861	0
0	16669	2937.978123259218	1
0	16670	2938.402802952325	0
0	16686	2940.290956847629	1
0	16687	2940.342898520976	0
0	16721	2949.526319179572	1
0	16723	2949.669520579255	2
0	16729	2956.048996016269	3
0	16730	2956.194519823774	2
0	16736	2957.089025615961	3
0	16740	2958.900343225171	2
0	16747	2960.31054803524	1
0	16754	2960.571521651488	0
0	16838	2977.18668728202	1
0	16840	2977.262324760605	2
0	16842	2977.833394903532	1
0	16847	2978.253006480991	0
0	16872	2984.904285131218	1
0	16874	2985.377387345426	2
0	16877	2985.676780185171	3
0	16880	2987.442042500446	2
0	16885	2987.92920118673	1
0	16891	2988.016522114113	2
0	16892	2989.103897181519	1
0	16898	2989.827728101695	2
0	16899	2990.321069091339	1
0	16904	2991.655754064539	0
0	16912	2994.510356956053	1
0	16916	2996.229009679845	0
0	16922	2998.362930363021	1
0	16923	2999.16617559104	0
0	16931	3001.071240833683	1
0	16932	3001.900491772812	0
0	16936	3002.717904685475	1
0	16939	3005.131227146165	0
0	16943	3006.229448518457	1
0	16946	3007.29315506101	0
0	16974	3009.685786287087	1
0	16977	3010.302052416804	0
0	16991	3011.387339680733	1
0	16993	3011.709690648665	2
0	16998	3012.058442196589	3
0	17003	3013.419360795748	2
0	17009	3014.020205522685	1
0	17014	3014.671937911508	0
0	17020	3015.112411017029	1
0	17023	3016.238481006827	0
0	17034	3016.318826940357	1
0	17036	3016.579050102499	0
0	17047	3017.241680427204	1
0	17049	3017.297537533029	2
0	17052	3019.273332760378	1
0	17059	3020.599409334765	0
0	17063	3022.056629353882	1
0	17067	3023.366773523972	2
0	17071	3024.132719227106	3
0	17072	3024.440742480555	2
0	17076	3025.127722560271	3
0	17082	3026.783709716833	4
0	17085	3027.091871105529	3
0	17089	3027.821485027504	4
0	17091	3029.301926202579	5
0	17093	3029.482563719447	6
0	17098	3030.127981364197	5
0	17102	3031.14440682084	6
0	17106	3031.632283889274	7
0	17109	3032.726461554161	6
0	17114	3033.927772302166	5
0	17120	3035.552489382204	4
0	17125	3036.195473789897	3
0	17131	3037.867143656207	4
0	17135	3038.180173911222	5
0	17136	3038.720250509386	4
0	17142	3039.499065594456	3
0	17148	3039.514629593779	4
0	17149	3039.957867416153	3
0	17155	3040.787201949309	4
0	17159	3041.186490692822	5
0	17161	3041.498706991228	6
0	17164	3042.008539680448	5
0	17168	3042.668278329787	6
0	17173	3043.907417523841	5
0	17178	3043.912849846803	4
0	17183	3044.625283424956	3
0	17189	3046.580016037848	4
0	17190	3046.712330830426	3
0	17194	3047.881097739354	4
0	17196	3047.979371830284	5
0	17198	3048.214485476976	6
0	17200	3048.620424473316	7
0	17203	3049.907655059553	6
0	17209	3050.914761489441	7
0	17211	3051.413412254984	8
0	17212	3051.436589083406	7
0	17218	3052.351910621256	8
0	17220	3053.490664618539	9
0	17223	3054.834320190596	8
0	17229	3055.786392737957	9
0	17233	3056.271375176094	10
0	17234	3058.01382025841	9
0	17238	3058.353008404496	10
0	17243	3060.25001220862	9
0	17250	3064.192523829757	8
0	17254	3064.888581895965	9
0	17258	3065.60173829444	10
0	17259	3065.618660451804	9
0	17264	3067.924598323374	8
0	17268	3068.726825757905	9
0	17271	3069.405386027446	8
0	17279	3070.619039993837	7
0	17284	3071.05466166057	6
0	17288	3071.311312390176	7
0	17292	3072.027722634072	8
0	17294	3072.1038457182	9
0	17295	3072.203433159265	8
0	17302	3072.903178802292	9
0	17304	3073.558434711846	10
0	17305	3073.97432920719	9
0	17311	3074.926779136328	10
0	17312	3075.355332184809	9
0	17316	3075.905123962675	10
0	17318	3077.425680667752	11
0	17320	3077.893487708736	12
0	17324	3078.66783028284	13
0	17328	3081.133235220067	14
0	17329	3081.273759416347	13
0	17335	3083.261993902789	12
0	17340	3083.488602207406	11
0	17348	3085.270566074526	10
0	17354	3086.056569238553	11
0	17355	3086.924370834135	10
0	17359	3086.985051712439	11
0	17364	3088.948673769367	10
0	17370	3089.163721920112	11
0	17374	3089.991374040615	10
0	17381	3091.030309035938	9
0	17387	3091.112977223697	10
0	17388	3093.045453715608	9
0	17394	3093.198037656951	10
0	17395	3093.422960313627	9
0	17399	3094.562040294589	10
0	17401	3094.625563211783	11
0	17403	3095.599998413938	12
0	17405	3096.209674351939	13
0	17410	3097.871022595099	14
0	17411	3097.996952210775	13
0	17417	3098.04485534527	14
0	17418	3098.400399419949	13
0	17426	3099.715936031245	12
0	17431	3100.162356679759	11
0	17438	3101.249971253093	10
0	17443	3101.874497970391	9
0	17449	3104.8877383363	8
0	17456	3105.021283878287	9
0	17458	3105.079849223094	10
0	17459	3105.167700827842	9
0	17465	3105.359955387509	10
0	17466	3105.712845180795	9
0	17470	3106.274825848567	10
0	17473	3106.408953843674	9
0	17478	3107.858708320762	8
0	17486	3110.031575711003	7
0	17491	3110.290942829458	6
0	17496	3111.855434690607	5
0	17501	3112.106519108339	4
0	17505	3113.281128651097	5
0	17510	3114.891986744732	6
0	17512	3115.227689835864	7
0	17516	3115.637181255865	8
0	17517	3115.83552939023	7
0	17523	3116.071808336732	8
0	17525	3116.790503080594	9
0	17526	3117.351709240979	8
0	17531	3118.339562940506	7
0	17539	3121.604737331906	8
0	17540	3122.002238170544	7
0	17546	3122.450259073403	8
0	17547	3122.922028231549	7
0	17552	3123.863556290904	6
0	17559	3125.618550203509	5
0	17563	3126.793003878029	6
0	17566	3127.960289076667	5
0	17570	3128.054609499881	6
0	17572	3128.144194811727	7
0	17574	3128.620355450017	8
0	17580	3130.157088293707	7
0	17586	3130.48043447878	8
0	17587	3130.92155922227	7
0	17592	3131.458611370032	6
0	17598	3132.230066735637	7
0	17599	3132.718648143541	6
0	17604	3132.865917143703	5
0	17608	3133.051035038734	6
0	17610	3133.904396930299	7
0	17613	3135.208314051214	6
0	17617	3135.689007499819	7
0	17620	3138.238625872856	6
0	17625	3138.446974513206	5
0	17629	3138.999234550372	6
0	17635	3140.240352205483	7
0	17636	3140.345912009812	6
0	17641	3140.608692852492	5
0	17647	3140.970227095703	6
0	17648	3141.143468153918	5
0	17653	3141.242906322443	4
0	17658	3143.163674094475	3
0	17665	3143.365917105991	2
0	17670	3144.868751184539	1
0	17674	3144.878241714271	2
0	17677	3145.355040034597	1
0	17681	3146.452525093288	2
0	17684	3147.961843006903	1
0	17688	3150.131468889108	2
0	17691	3150.645676202006	1
0	17695	3150.916919373682	2
0	17702	3152.332709207302	3
0	17703	3152.417379649941	2
0	17709	3152.645513636156	3
0	17710	3152.720332062486	2
0	17716	3153.293899468113	1
0	17721	3153.532251544474	0
0	17739	3155.299557041179	1
0	17743	3155.887926983654	0
0	17749	3157.845039254521	1
0	17750	3158.197589785359	0
0	17756	3158.350622089536	1
0	17758	3159.191564418931	2
0	17760	3160.154694727514	1
0	17765	3161.081089263213	0
0	17819	3169.144351416464	1
0	17821	3169.335411081677	2
0	17822	3171.102548218619	1
0	17831	3172.391923059268	0
0	17844	3173.45568150188	1
0	17846	3173.987049205151	0
0	17853	3174.527466354905	1
0	17854	3174.796239377021	0
0	17861	3175.5066566244	1
0	17863	3176.977113680389	2
0	17865	3177.548689013688	3
0	17866	3177.683882834812	2
0	17871	3178.142774601605	1
0	17876	3178.162238891173	0
0	17897	3180.892159076084	1
0	17898	3181.087508530088	0
0	17916	3183.311847922508	1
0	17917	3183.617392226062	0
0	17923	3183.977762455983	1
0	17924	3184.147864228322	0
0	17941	3185.91772233982	1
0	17943	3187.889769893291	2
0	17947	3190.030137671683	3
0	17951	3191.205173535547	2
0	17963	3193.634376024114	1
0	17969	3193.783230903494	2
0	17970	3194.09104929713	1
0	17976	3195.343699016851	0
0	17982	3196.082525830216	1
0	17983	3196.502714619196	0
0	18004	3199.818756928032	1
0	18005	3200.112598964185	0
0	18019	3201.287838100807	1
0	18021	3201.545810394155	2
0	18022	3202.189960419634	1
0	18026	3202.200110042897	2
0	18032	3203.706567638709	3
0	18034	3204.050654881631	4
0	18035	3204.255572259385	3
0	18040	3204.35774532145	2
0	18044	3204.608247422637	3
0	18047	3205.167198878763	2
0	18055	3209.67908811595	3
0	18058	3211.056551395283	2
0	18062	3211.141795025331	3
0	18068	3212.155660837388	4
0	18069	3213.159523816602	3
0	18075	3213.850219891708	4
0	18078	3217.195243693947	3
0	18083	3217.933733559413	2
0	18088	3218.605582312539	1
0	18093	3220.453420564292	0
0	18116	3222.679192637766	1
0	18118	3222.921797756005	2
0	18119	3223.407332844373	1
0	18123	3224.318969884085	2
0	18129	3226.096077331056	1
0	18134	3226.478753172351	0
0	18140	3227.016415409828	1
0	18141	3227.989796693059	0
0	18176	3233.396185896441	1
0	18180	3235.513535680264	0
0	18196	3236.379149823118	1
0	18197	3236.448481091637	0
0	18218	3238.560993437205	1
0	18219	3238.829662650508	0
0	18233	3239.938774031959	1
0	18241	3240.591952180665	2
0	18245	3241.155835871288	1
0	18250	3241.414031287153	0
0	18268	3245.054504549941	1
0	18270	3245.187580586872	2
0	18271	3246.959317761624	1
0	18276	3247.209396761675	0
0	18291	3248.42307650785	1
0	18295	3249.785577300932	2
0	18297	3250.228899827923	1
0	18303	3250.2888951064	2
[...]
5	160476	28012.709893366518	1.133375451311
5	160490	28016.445583239314	0.727037305326
5	160507	28018.237416155968	1.46142812436
5	160524	28023.529445296349	0.288649711507
5	160557	28029.409770642375	0.512661543034
5	160561	28029.647971220168	0.461256707853
5	160575	28034.854432551055	1.311915855667
5	160617	28043.568933074312	5.302017065083
5	160625	28044.578077737478	6.171699143403
5	160632	28046.906851604512	3.643907259968
5	160662	28051.218896500807	6.900155276139
5	160737	28060.156330801854	12.117032379832
5	160749	28063.558003617016	15.412223138439
5	160775	28067.013432778121	15.02184700135
5	160915	28093.128752015014	36.730644801447
5	160955	28103.930800203352	44.708175563801
5	160996	28114.505871193615	50.222032537231
5	161001	28114.734131496361	45.780675758617
5	161007	28115.139793458753	44.07263582085
5	161012	28115.501971409005	37.581206996977
5	161028	28118.987300535397	36.899133584723
5	161050	28121.870388158326	33.287500074615
5	161105	28134.040862180011	39.736740419877
5	161110	28134.892406277976	17.981089754838
5	161128	28139.242252170685	21.407660731037
5	161171	28148.121328021577	29.324962116771
5	161277	28163.755154326863	41.306458504076
5	161290	28166.423560387284	43.130520590612
5	161331	28168.390183667426	37.935459498263
5	161338	28169.336745423431	33.22697525047
5	161351	28170.539013792365	32.451169685199
5	161356	28170.644136538181	17.788182915395
5	161361	28171.53887019611	16.490123922884
5	161369	28175.401582953122	17.751950357548
5	161379	28176.317459830216	18.370429646398
5	161384	28177.723238795106	10.156314132026
5	161391	28179.86933497812	12.254391120731
5	161417	28187.041931421783	17.431940588933
5	161436	28188.247926790638	4.007147048908
5	161443	28189.405757057418	1.600016292408
5	161473	28193.797014366908	2.136817597513
5	161492	28195.265251506158	1.268992485152
5	161518	28202.197839786035	0.287614342759
5	161547	28209.537309714769	0.256834316054
5	161586	28220.625636153862	5.000462800397
5	161657	28228.643648375795	11.903214953219
5	161670	28230.517318313001	8.715498289429
5	161688	28233.939567680505	9.160340709405
5	161715	28238.287713313842	13.431488468782
5	161740	28239.618393411799	3.048495395963
5	161763	28243.032943533788	4.475572792908
5	161780	28247.223897617158	3.061594521016
5	161882	28268.326698275234	4.383465481831
5	161887	28269.576366079469	1.745623948854
5	161902	28272.815279750955	1.060275571814
5	161945	28287.937025246198	0.429997440723
5	161953	28289.650099133419	0.196738666257
5	161976	28292.232319318868	0.576202363155
5	161991	28293.802453335844	0.74150278568
5	162023	28300.480028358504	6.094080983144
5	162129	28325.610914315455	17.268336949563
5	162135	28327.046263179391	18.269385058581
5	162141	28328.028310171249	17.872262394876
5	162149	28328.611949200341	14.29471672144
5	162181	28331.643057498221	16.679340614349
5	162195	28333.956309676997	10.477895470504
5	162245	28345.79072779882	14.964670737499
5	162255	28346.505201931761	9.635706129998
5	162267	28349.802869135795	4.527024902637
5	162279	28352.163176821742	2.496431829312
5	162298	28358.081573668221	3.767460539325
5	162447	28383.583536075235	21.291262081231
5	162452	28383.712630667921	20.332363452719
5	162459	28384.120617771253	19.524190430575
5	162473	28385.540587965475	20.715603707709
5	162508	28390.168999136467	19.589001960043
5	162517	28391.697118597356	18.70327731576
5	162528	28393.015001922558	18.727799684317
5	162537	28394.137610181763	14.279272903332
5	162553	28396.90596358719	11.599347583149
5	162568	28397.42524699152	11.311255419715
5	162644	28418.376224662347	30.412595698023
5	162862	28464.200917267331	75.189290521767
5	162867	28464.450702112008	61.090618773771
5	162876	28464.982209973389	59.071315503498
5	162890	28467.858438150795	61.332973548029
5	162913	28474.005222432245	62.665195668684
5	162940	28478.860739075433	66.975839695968
5	162976	28482.752156515241	68.471670406629
5	162983	28483.755682786948	69.136502947131
5	163003	28487.870831027461	71.602209998596
5	163017	28492.245743697625	69.380315321962
5	163036	28495.046065715513	70.792638871611
5	163049	28497.154594412712	71.016974582783
5	163066	28499.206483639804	72.154868517173
5	163076	28499.543895762345	51.448443865742
5	163084	28500.740838887068	45.505114470976
5	163089	28501.527513026867	46.284838751069
5	163098	28504.849534573417	49.334006841596
5	163113	28506.210433992349	41.673490925778
5	163120	28506.977981553155	40.370879111941
5	163130	28507.899222219192	35.058061793469
5	163139	28510.572204643535	35.848407308423
5	163272	28535.71697680735	59.248703523326
5	163277	28536.043095026523	56.248278012444
5	163285	28536.397707374623	54.595551420728
5	163295	28536.998161981383	54.335965499881
5	163301	28538.697165947793	46.459107505281
5	163308	28540.593872429854	32.492107515087
5	163321	28545.94522264641	34.17759273859
5	163349	28551.59938624144	38.686440347887
5	163398	28558.830051868724	40.908056579495
5	163447	28564.693484513852	45.897308439801
5	163457	28565.08963935973	35.961334204904
5	163474	28566.759488277453	35.235064466781
5	163504	28571.574995236681	36.871879598373
5	163516	28572.28508708981	36.712211033326
5	163582	28582.396818939366	42.491705944385
5	163640	28593.735703363523	53.122126981671
5	163646	28594.170421488319	50.36194728594
5	163651	28594.226992615841	47.529621855658
5	163657	28594.488168579078	44.713954795555
5	163664	28595.228797533786	38.553807254687
5	163672	28595.737132221634	37.472535301955
5	163680	28596.484948552436	37.213481004796
5	163687	28597.10161301746	35.361888674545
5	163693	28597.390486849279	32.931871466547
5	163698	28597.455075815596	31.993309528406
5	163703	28598.057702236182	31.528185348648
5	163724	28603.672229878283	37.013585958573
5	163768	28609.478092327721	40.053182255761
5	164095	28667.602666939989	93.321756679923
5	164101	28667.797980062112	93.14066683675
5	164108	28668.121197014994	93.246127009492
5	164118	28668.342469535898	85.850170073081
5	164123	28668.667219980865	73.443104356952
5	164138	28672.4134678405	75.941182379713
5	164152	28673.269999651157	72.658652310956
5	164166	28673.956314280242	73.320022896639
5	164179	28675.747728825813	73.467234963987
5	164184	28676.311974982298	72.739508545642
5	164193	28677.291566215047	68.536980447625
5	164205	28678.543558404101	59.174161657273
5	164228	28684.390266355025	63.655739569864
5	164337	28702.059762698691	80.153187439227
5	164360	28703.765173876621	72.257641775732
5	164367	28704.886389985122	68.849366083802
5	164378	28707.788515649313	68.45199362019
5	164403	28708.913442436159	63.272544170794
5	164416	28710.773079322926	64.441061321567
5	164421	28711.104260746879	64.31673332197
5	164428	28711.912595327979	60.111573922208
5	164456	28719.980946345503	67.112351710062
5	164904	28813.168712289715	157.51089231929
5	164909	28813.662605982821	152.14043617728
5	164916	28816.079074698341	150.22428833561
5	164924	28817.632262452923	151.62225740075
5	164949	28822.546646001715	152.84334181924
5	164979	28826.303711082945	155.25336948591
5	164999	28830.689215137427	156.88404596217
5	165009	28830.970567061531	149.03425002188
5	165014	28831.062212287266	149.12149746149
5	165024	28831.800448847248	148.85684360059
5	165355	28898.858828916048	212.20451796256
5	165386	28902.009555193132	203.56419742685
5	165396	28902.727579454985	201.96474609012
5	165401	28903.379974667162	200.2865071408
5	165408	28904.258352618582	201.12422114257
5	165413	28904.496103278583	192.36972863473
5	165418	28904.555870861321	190.66812064863
5	165424	28906.607808350171	186.76420213487
5	165431	28907.028967204338	181.34185647225
5	165439	28908.87838186636	182.78730396773
5	165444	28911.890757182041	179.35120052358
5	165455	28912.872056524721	177.7977566646
5	165482	28917.023301966399	181.06267450071
5	165491	28918.011356405511	180.04234679519
5	165515	28920.211395053713	176.53363343082
5	165520	28920.363338487653	166.21521956078
5	165525	28920.663131271096	158.30154136109
5	165530	28924.418584450722	157.61791397367
5	165537	28925.788832987754	153.14425603254
5	165553	28930.363292897704	157.63540657334
5	165571	28932.612834284364	157.28877176358
5	165578	28934.460324849246	158.58391906815
5	165583	28934.808874606198	157.86579669479
5	165588	28935.734963845999	158.20828200859
5	165604	28939.4147288491	155.89922966494
5	165631	28941.991262556917	155.82990809483
5	165652	28943.602700918446	156.02475322183
5	165658	28944.885017026354	153.89075192305
5	165664	28944.947307609998	150.26461144946
5	165673	28949.87655475224	152.03346844039
5	165681	28951.312773883579	143.36326208306
5	165686	28952.984115607514	137.43088994028
5	165698	28954.958984197198	137.03611995584
5	165730	28958.280655899517	139.86425961825
5	165742	28958.821806123873	130.45529732524
5	165749	28959.734349467642	128.94818200825
5	165756	28960.194530136793	129.30662490627
5	165762	28961.873252008264	130.08889282522
5	165769	28962.911267972602	123.06761005862
5	165774	28963.044749704083	120.89075305913
5	165779	28963.535160726305	117.94894586419
5	165792	28967.031054111175	110.54752082735
5	165812	28968.889150655872	107.15246625055
5	165817	28969.705540881654	102.45289464593
5	165822	28970.157663307091	97.283728524594
5	165831	28971.005538805784	91.934522809602
5	165852	28973.819735521187	94.389310379174
5	165859	28974.820593767814	94.454165903045
5	165874	28978.503040350812	92.546006487345
5	165891	28979.512731183661	90.393077571857
5	165898	28981.572758455048	86.274538224869
5	165903	28981.669915645359	74.989686804132
5	165914	28983.16004344986	75.138428500104
5	165946	28986.775972834874	73.88254242171
5	165955	28987.588511062817	70.556968769228
5	165962	28988.264062793301	70.076645059815
5	165968	28988.998048860355	57.258361975445
5	165982	28993.549128043622	55.437389478446
5	166015	28999.13798789813	60.073178183034
5	166155	29027.419503401623	88.14251626525
5	166168	29028.443466925732	86.005992178521
5	166178	29030.680643489522	84.380081446701
5	166188	29031.940629684302	81.877855091677
5	166199	29032.740711420748	77.666927468791
5	166204	29033.314723969778	77.25640119348
5	166209	29033.496218895882	77.01683869393
5	166216	29036.700252108951	77.308402337144
5	166229	29037.375459213	77.499896886753
5	166236	29037.558489238245	73.777554287779
5	166241	29037.597312697203	71.232634341489
5	166247	29037.931940534518	69.598880874398
5	166255	29038.36813769749	67.859762421455
5	166265	29038.834986707087	65.436715189594
5	166271	29039.930022739827	64.60655612761
5	166280	29042.171152775005	63.558782790696
5	166290	29045.496512382531	66.45561327299
5	166304	29048.084709451612	62.830026172476
5	166436	29068.864964120648	81.97815385478
5	166441	29069.134020429101	81.177209689875
5	166446	29069.267361436804	76.502189232099
5	166453	29069.709313471662	66.525332573118
5	166466	29072.587043018447	68.690550247885
5	166704	29131.757627989478	127.6957296754
5	166714	29134.012176558095	129.24738946896
5	166735	29136.738268256015	131.61338125845
5	166781	29146.777002697189	136.01210585901
5	166791	29147.436515852004	135.88681752102
5	166796	29147.889601811375	135.56975228776
5	166816	29150.805517631992	136.48458174434
5	166887	29163.623656160138	145.21002065981
5	166893	29163.92129207343	144.8998037209
5	166898	29163.977209612082	142.75379383096
5	166925	29168.754037187029	143.78446156078
5	166969	29173.759745577724	145.45568383074
5	166991	29176.85187314341	147.13151911375
5	167001	29177.363093057202	147.0686626623
5	167011	29177.95987007331	140.46349643097
5	167020	29181.009995211688	139.10690773387
5	167041	29184.87025941262	139.25249500228
5	167046	29185.644516749595	138.51872871494
5	167054	29187.735950563946	133.85601570939
5	167062	29190.134146074343	127.80886007645
5	167081	29194.027095724675	128.61216187972
5	167119	29201.694535611838	132.37868453025
5	167145	29202.402632927146	129.15629706866
5	167150	29202.869937344989	126.33692212299
5	167155	29203.017463871364	126.47053724874
5	167168	29205.974458195112	127.18264038894
5	167272	29222.374702900625	140.78589491127
5	167277	29222.584733355531	139.49963877819
5	167282	29222.624183154585	139.00011341328
5	167287	29222.940883221297	138.79654518849
5	167295	29224.313163724085	131.6675172541
5	167305	29227.557058239762	134.63970220106
5	167318	29230.534607827845	137.17506548578
5	167344	29235.0459807208	141.36946011666
5	167377	29237.965814907086	143.35800153837
5	167389	29238.348106826098	140.73848080058
5	167396	29241.374545444991	139.14529004427
5	167406	29242.084313406834	129.4200808632
5	167414	29242.908391462481	127.1346029027
5	167429	29245.155428911523	128.24727310145
5	167434	29245.356636063279	123.24093972454
5	167445	29247.972318435569	124.76188279502
5	167496	29256.941836051117	130.77558525414
5	167600	29276.740963042126	148.64257198599
5	167611	29278.079007852615	142.43478823918
5	167618	29278.661372551243	133.48297853392
5	167628	29279.576124053864	130.80798381937
5	167638	29281.415801009939	125.53584997458
5	167713	29294.581274226277	138.65723810386
5	167721	29295.639985605958	137.30816172799
5	167746	29300.880432149105	135.71133782416
5	167751	29301.482829316643	135.40018417864
5	167768	29308.114421445616	139.94857244595
5	167819	29321.211328394148	152.34792158183
5	167831	29326.581337687592	152.069102416
5	167876	29333.259789986325	156.87268304201
5	167881	29333.76474263218	156.30852026644
5	167888	29335.245742439908	157.4739176125
5	167915	29339.182308910812	158.92124330601
5	168265	29418.422664612086	231.1980669658
5	168272	29418.990960615289	224.38116782705
5	168366	29434.896991191071	238.07338594949
5	168374	29435.647071993742	235.55895164947
5	168397	29442.183334752064	238.7515430101
5	168402	29442.539694921998	230.89983204988
5	168407	29443.418052329135	230.84563633371
5	168418	29446.030006352354	232.80832289859
5	168424	29447.860176156826	232.28186436461
5	168429	29448.0021874565	230.63491626781
5	168436	29452.638656047204	229.23517298509
5	168454	29457.45858191293	231.93795119606
5	168559	29473.076751058357	237.36943160213
5	168584	29476.606688358769	239.92623079028
5	168591	29477.193951794638	238.97625831838
5	168597	29477.592835430011	235.60461366078
5	168614	29482.047181468514	234.82465689881
5	168646	29484.360862202686	233.23180040066
5	168652	29484.849803628796	230.75521549237
5	168659	29486.026392565857	228.89767520603
5	168671	29487.016171013322	229.76663792863
5	168680	29488.263930122682	228.6001924765
5	168703	29489.569261895008	227.50145741745
5	168716	29492.648096731558	229.56474509634
5	168930	29524.238673022464	252.73332867543
5	168935	29524.613284067138	253.03738683824
5	168948	29526.882480985952	253.64853612654
5	168964	29527.355411375312	253.94341394359
5	168972	29528.029616398793	245.4087967297
5	168988	29530.588506142711	244.77957060877
5	169028	29534.470763811252	241.08652047156
5	169053	29537.66208384945	204.60137137982
5	169074	29539.889928141295	204.54104383177
5	169081	29540.638364655491	204.48612824285
5	169086	29540.651999366624	202.47034348598
5	169113	29544.673088538771	199.7094260886
5	169222	29564.250295007065	216.4786642196
5	169227	29564.28589284646	211.52925749797
5	169237	29566.213986221965	210.73466713956
5	169244	29566.962511778201	210.55237700988
5	169257	29568.441330977841	199.71839591555
5	169273	29571.45749982713	190.12572717313
5	169357	29593.804202111599	208.29184983323
5	169364	29594.093666290321	205.45107152405
5	169379	29596.468275511583	205.14939310831
5	169387	29597.610713755808	203.26624520645
5	169393	29598.509736403112	198.44527839765
5	169399	29599.918927815843	193.09070402054
5	169408	29602.353046683004	190.96599473431
5	169420	29605.558502161492	179.63110644603
5	169425	29606.387906826443	178.95004115487
5	169435	29610.829480537552	181.57213141724
5	169525	29625.470578252595	194.86702088475
5	169535	29626.134799123152	189.34215684911
5	169543	29626.782525158014	182.61822090628
5	169555	29628.253028006832	182.35889804275
5	169560	29628.282077991923	176.79743712829
5	169565	29628.347977552276	171.046473341
5	169577	29630.681444080655	160.10985217291
5	169600	29634.424853629419	163.78916089343
5	169659	29647.000043085054	175.88103577991
5	169667	29647.370376304189	172.54832920944
5	169672	29647.636734836126	170.91079144259
5	169677	29647.676069958427	169.67975987613
5	169691	29650.491692590632	171.16650892733
5	169742	29654.564632419429	171.98712996679
5	169755	29657.36043746753	171.04515742692
5	169828	29668.536600946325	181.01461966688
5	169833	29668.903435276137	179.83747662776
5	169839	29669.312727812886	179.42000531418
5	169846	29669.720423785259	163.84092538192
5	169855	29670.411159638165	156.93118394617
5	169873	29672.655869555809	158.20332493496
5	169879	29673.54715567526	154.46556802131
5	169894	29676.648622452977	153.46665373734
5	169922	29681.934581120402	152.05021667131
5	169931	29682.353765011851	149.57106914294
5	169955	29684.736933284285	146.60701363344
5	169969	29685.486626931045	144.04750808578
5	169992	29686.752876906946	143.15921215636
5	170008	29687.313082702592	143.21291918329
5	170014	29688.024756033289	141.70024881804
5	170025	29690.301319787584	132.01382432863
5	170520	29796.30734039027	235.60022221387
5	170525	29796.577378204751	235.62109864432
5	170530	29796.648187552239	235.24950266144
5	170535	29797.103425186419	235.62560085055
5	170543	29798.128803865905	232.89881900495
5	170557	29800.105003975312	234.85142953
5	170578	29803.208636535888	229.82128453926
5	170583	29803.338542180616	229.93392261873
5	170590	29804.210420848261	230.71717390729
5	170608	29807.410589909092	233.37251188441
5	170625	29808.403983833155	232.90603914685
5	170644	29810.3465421854	231.18324866272
5	170654	29810.935272528676	229.48189512346
5	170660	29811.731794908853	229.67519168734
5	170666	29812.162046652388	227.25588853011
5	170671	29812.226044241231	220.2328686442
5	170677	29814.365085102143	221.71148865303
5	170684	29814.704111027839	220.59152002866
5	170695	29816.413869364046	218.99324996556
5	170704	29818.18134870681	217.39801910494
5	170723	29820.548509113435	207.42947405435
5	170728	29820.60657006087	205.92009274518
5	170742	29822.893972642108	194.40157066926
5	170753	29823.793166199242	192.24358020475
5	170762	29825.282238165322	180.31650247289
5	170776	29828.749936809496	178.82814750716
5	170799	29831.13633886466	181.045583408
5	170815	29837.8899757317	186.41562260455
5	170820	29837.909267896923	184.00415430546
5	170830	29839.729255191602	181.94509010311
5	170844	29840.724537983902	180.76989456221
5	170857	29843.418426101713	183.31374478295
5	170883	29849.366235757873	185.78373274445
5	170937	29855.732946214196	181.85570773061
5	170942	29855.754484597256	181.56652217924
5	170947	29856.315302663645	180.14434245156
5	170971	29863.391804968733	186.30386822886
5	171031	29872.178162741168	191.12384295666
5	171166	29907.213181912577	223.2795983258
5	171171	29907.368675197186	214.99641266597
5	171177	29908.895711801984	215.43687117184
5	171182	29909.764461134803	215.0291403109
5	171189	29911.224150459303	211.31519142955
5	171206	29914.853145296981	213.64132192932
5	171263	29926.404222968069	218.96632434943
5	171269	29926.531689206195	216.41329243985
5	171277	29929.34302816169	218.58958204517
5	171294	29930.668195539929	212.52743953699
5	171366	29940.30094248368	220.53241748562
5	171371	29940.504235568861	218.77256105883
5	171389	29944.291364479805	218.53871641386
5	171440	29951.768074393129	220.61782222411
5	171458	29957.511816146539	222.5459923536
5	171463	29957.607272126021	215.17986434318
5	171470	29957.863788091758	209.00426437527
5	171486	29958.826691975054	203.69330812185
5	171501	29960.63098750751	201.71113672708
5	171526	29965.169332072594	205.69039538724
5	171534	29966.223642345821	204.19702517779
5	171546	29968.08878991999	198.21938233388
5	171552	29968.127448356216	194.59199327847
5	171557	29968.407506581427	187.96056122975
5	171566	29970.279441607091	188.87963654547
5	171625	29978.451539241757	185.21295076829
5	171667	29983.24271356662	185.50534429273
5	171678	29984.349828522122	185.45569952952
5	171698	29989.135092801809	189.08336939846
5	171754	29996.895136748458	191.56998963561
5	171761	29997.710838377903	191.36807333394
5	171775	29999.441804719977	191.44774952095

