version 2
run First-n3-4-20191016-17:03:23-9424
attr configname First-n3
attr datetime 20191016-17:03:23
attr experiment First-n3
attr inifile omnetpp.ini
attr iterationvars ""
attr iterationvarsf ""
attr measurement ""
attr network org.omnetpp.queueing.Pizza
attr processid 9424
attr repetition 4
attr replication ""
attr resultdir results
attr runnumber 4
attr seedset 4
param **.PS.maxInventoriedPS 3
param **.U1.interArrivalTime exponential(2s)
param **.U2.interArrivalTime exponential(4s)
param **.PS.serviceTimeForInventoryU1 exponential(0.8s)
param **.PS.serviceTimeForInventoryU2 exponential(1.0s)
param **.PS.serviceTimeDirectU1 exponential(1.2s)
param **.PS.serviceTimeDirectU2 exponential(1.4s)
param **.PS.probabilityProducing 0.5
param **.CS.serviceTimeU1 exponential(0.8s)
param **.CS.serviceTimeU2 exponential(1.0s)

vector 0 Pizza.EntryQueueU1 queueLength:vector ETV
attr interpolationmode sample-hold
attr title "queue length, vector"
vector 1 Pizza.CS queueLength:vector ETV
attr interpolationmode sample-hold
attr title "queue length, vector"
vector 2 Pizza.EntryQueueU2 queueLength:vector ETV
attr interpolationmode sample-hold
attr title "queue length, vector"
vector 3 Pizza.sink lifeTime:vector ETV
attr interpolationmode none
attr title "lifetime of arrived jobs, vector"
attr unit s
vector 4 Pizza.sink lifeTimeU1:vector ETV
attr interpolationmode none
attr title "lifetime of arrived jobs, vector"
attr unit s
vector 5 Pizza.sink lifeTimeU2:vector ETV
attr interpolationmode none
attr title "lifetime of arrived jobs, vector"
attr unit s
0	0	0	0
0	19	10.287334142778	1
0	24	12.291919922191	2
0	25	12.83773584874	1
0	33	13.189175669305	2
0	34	13.579075286782	1
0	44	14.183567517157	2
0	45	14.915903630852	1
0	52	15.160949938658	2
0	53	15.741970625653	1
0	62	18.122358452434	0
0	70	18.493623765341	1
0	71	18.588142048192	0
0	77	18.880456483614	1
0	78	19.645687228767	0
0	103	22.590214398096	1
0	105	22.988874595181	2
0	108	23.740051413021	1
0	113	24.144589224541	0
0	122	25.018944566069	1
0	124	25.317688276148	2
0	128	25.712089054879	3
0	132	26.653939620356	4
0	134	27.018956244766	3
0	139	27.252211521543	2
0	147	28.974917654069	3
0	149	29.513662621883	4
0	152	30.549640885053	3
0	160	31.475282243489	2
0	166	31.543439114754	3
0	168	32.621808060217	4
0	172	33.147018470551	3
0	177	33.524840362758	2
0	183	35.017561605066	3
0	186	35.601316175519	2
0	191	36.75468586474	1
0	196	37.926093838268	0
0	200	38.964330170337	1
0	202	39.454674716082	2
0	205	39.593502632351	1
0	216	40.814452162172	0
0	243	43.95563354593	1
0	244	44.419690995316	0
0	250	47.046243236436	1
0	252	47.254347518024	0
0	279	52.273197102539	1
0	280	52.318669897221	0
0	289	53.336860576389	1
0	291	53.766316395946	2
0	304	58.403393284099	1
0	310	59.160425936611	0
0	327	61.552352217789	1
0	329	61.934140115621	2
0	331	62.12307297677	3
0	332	63.50954506156	2
0	339	64.169003903207	1
0	350	67.066818293368	0
0	356	67.838002148712	1
0	358	67.906931673791	2
0	359	68.105043785686	1
0	364	68.11853096866	0
0	394	72.601607568246	1
0	399	73.281065757264	2
0	402	74.747113048626	1
0	412	76.323289184972	2
0	413	76.381706536259	1
0	418	77.048267492335	0
0	434	78.938659200208	1
0	436	79.193364101651	2
0	438	79.37929026773	3
0	440	79.894193620114	4
0	441	80.22313974235	3
0	446	81.462787868359	2
0	451	83.155203027205	1
0	455	83.431271333783	2
0	463	85.329153770426	1
0	470	87.349610200567	0
0	512	95.338828984522	1
0	514	95.932422413932	2
0	516	95.972710198896	3
0	519	96.22357329707	2
0	523	96.721239199113	3
0	528	97.339179531142	4
0	529	97.405605246695	3
0	535	98.188464269883	2
0	540	98.476514354109	1
0	546	100.455267606437	2
0	548	101.273760326697	3
0	556	103.807046390078	2
0	562	104.024456849028	3
0	565	105.065398205128	4
0	566	105.383693282398	3
0	573	105.590066186858	4
0	574	105.652345189443	3
0	579	106.052051621896	2
0	585	106.220759516735	3
0	588	106.483775865005	4
0	590	107.179372218684	3
0	595	108.164570413837	2
0	601	108.737518493222	1
0	606	109.109478778362	0
0	623	110.464398482978	1
0	624	110.66132446627	0
0	652	115.649875697646	1
0	653	115.828060086681	0
0	734	131.402598965789	1
0	735	131.440625170139	0
0	781	141.540640001379	1
0	782	141.985712571006	0
0	788	142.156180249223	1
0	789	142.407053826001	0
0	819	148.484943794103	1
0	821	148.97716862683	2
0	822	149.098428531428	1
0	828	149.767082472836	0
0	890	163.895134822648	1
0	891	163.995469016675	0
0	918	167.049184279093	1
0	921	167.86758224993	0
0	927	168.110956385476	1
0	931	168.372198955759	2
0	933	168.503490288182	3
0	934	168.652945471017	2
0	939	169.18312498123	1
0	943	170.649828045101	2
0	945	171.664318267108	3
0	949	173.015210797965	4
0	950	174.343042428319	3
0	957	177.401829057171	2
0	961	177.801114907029	3
0	963	178.154599367486	4
0	965	178.603343737434	5
0	968	179.474089769049	4
0	975	180.765559077422	3
0	982	182.293830912846	2
0	986	182.338972243326	3
0	988	182.500890838194	4
0	993	183.333031615521	5
0	994	183.534282865831	4
0	1001	183.758775932708	3
0	1005	184.022564798808	4
0	1007	184.60758562112	5
0	1009	184.609148020076	6
0	1012	185.793704189558	5
0	1020	187.038069091283	6
0	1023	188.627737518593	5
0	1027	189.132051277305	6
0	1031	190.330664652865	7
0	1035	191.637317262632	8
0	1036	192.298398742739	7
0	1041	192.880170312216	6
0	1046	193.413790765756	5
0	1052	193.732957232378	6
0	1053	194.946099938169	5
0	1059	197.462699912023	4
0	1065	197.569963615381	5
0	1067	198.228610800928	6
0	1068	198.736143500221	5
0	1077	200.486535875613	4
0	1082	201.788193874175	3
0	1087	202.189011353204	2
0	1093	202.977527535227	3
0	1097	204.674429601219	4
0	1098	205.381234778319	3
0	1102	205.93446775863	4
0	1105	206.862728159288	3
0	1109	206.998113077782	4
0	1115	208.162969446012	5
0	1117	208.887150454542	6
0	1118	209.084593765454	5
0	1122	209.627802928502	6
0	1124	210.418075520482	7
0	1126	211.173533136768	8
0	1130	212.522478813845	7
0	1138	213.410325400456	8
0	1139	213.477904233775	7
0	1146	214.347961713904	6
0	1150	214.807310220442	7
0	1153	215.920566360931	6
0	1157	217.09833569773	7
0	1162	218.863265282521	6
0	1167	219.9815607991	5
0	1171	221.64178870629	6
0	1174	221.779349873773	5
0	1179	222.592540480298	4
0	1184	223.51660559035	3
0	1189	223.685052589376	2
0	1194	224.561871176443	1
0	1200	225.243542091229	2
0	1201	225.268873284679	1
0	1207	226.949150152067	2
0	1208	227.213336011023	1
0	1212	228.643824023663	2
0	1214	229.45646264287	3
0	1216	229.585054823878	4
0	1220	230.38602154306	3
0	1228	231.299293414303	2
0	1233	231.762397402306	1
0	1237	231.998389235211	2
0	1239	232.521810253899	3
0	1242	233.301884563826	2
0	1254	235.81960227535	3
0	1255	235.854889676916	2
0	1259	237.847696688623	3
0	1263	238.086366350606	2
0	1268	238.283038892675	1
0	1273	238.433260634534	0
0	1292	240.522565474515	1
0	1293	240.707346076333	0
0	1299	241.143518063305	1
0	1300	241.528777431447	0
0	1311	243.347158774539	1
0	1313	243.450133750449	0
0	1332	244.713036572557	1
0	1333	245.409790058257	0
0	1352	247.022950135921	1
0	1353	247.255068567786	0
0	1359	249.208236211421	1
0	1360	249.89633478036	0
0	1372	250.917216950456	1
0	1374	252.043373281604	2
0	1375	252.398938721434	1
0	1380	252.944760827457	0
0	1391	253.909679928185	1
0	1392	254.354199052891	0
0	1411	258.377212527395	1
0	1416	261.415912115677	0
0	1425	262.710838262361	1
0	1429	264.13659009283	2
0	1432	265.000614138664	1
0	1436	265.131678771909	2
0	1438	267.070131047421	3
0	1444	268.323277697923	4
0	1447	268.660994810713	5
0	1448	270.638438711349	4
0	1453	272.774778065637	3
0	1459	274.09511289252	2
0	1466	275.240767619283	1
0	1470	276.793828679949	2
0	1475	279.066533129709	1
0	1480	279.315234376346	0
0	1490	283.87795895582	1
0	1492	284.273881522047	0
0	1499	285.092202170799	1
0	1501	285.174592317574	2
0	1502	285.742008291052	1
0	1509	286.444531467375	0
0	1545	289.915503063837	1
0	1548	292.331382748732	0
0	1563	293.717818815413	1
0	1565	295.104715422459	0
0	1579	297.338194492913	1
0	1582	299.661608922383	0
0	1595	301.063363588386	1
0	1600	302.48918645677	0
0	1608	304.968809423516	1
0	1610	305.129511131088	2
0	1613	305.554331515672	1
0	1620	305.887711169743	0
0	1629	306.535552001559	1
0	1630	307.678258151956	0
0	1643	312.096924504467	1
0	1644	312.377383500149	0
0	1656	314.075687561304	1
0	1657	317.40995728794	0
0	1683	321.507760969053	1
0	1686	322.737141679387	0
0	1697	324.083864498145	1
0	1699	324.217474256142	2
0	1701	324.278187006834	3
0	1703	324.360243219005	4
0	1705	324.562194939205	5
0	1707	324.723659027433	6
0	1711	325.906044983229	7
0	1714	327.787600086952	6
0	1719	327.933435917544	5
0	1725	328.531047778499	6
0	1728	329.233202942421	7
0	1731	331.121229686253	6
0	1736	331.208118570001	5
0	1742	331.73397268963	4
0	1748	332.663121143488	3
0	1753	332.859632593092	2
0	1759	334.090288896666	3
0	1761	334.261431291703	4
0	1764	334.766360702439	5
0	1765	335.222570401492	4
0	1770	335.317031804145	3
0	1775	335.444967423397	2
0	1779	335.806977890981	3
0	1785	337.240667725624	2
0	1792	337.527104932748	3
0	1794	337.671376221456	4
0	1795	337.751505533731	3
0	1802	337.789162993517	4
0	1803	338.382040746751	3
0	1808	338.500969560101	2
0	1813	339.096677995851	1
0	1817	340.33262963893	2
0	1820	340.494278716808	1
0	1828	341.058206094066	2
0	1829	341.611566807216	1
0	1835	342.305394690528	0
0	1990	370.005609737825	1
0	1992	370.32214674762	2
0	1993	370.98287516861	1
0	1999	371.659307154	2
0	2001	372.0549783653	1
0	2006	372.178407899115	0
0	2010	373.363733275078	1
0	2013	374.124614207395	0
0	2037	376.363723334106	1
0	2039	376.924205664829	2
0	2040	376.924935686413	1
0	2045	377.702969398052	0
0	2054	382.119536413843	1
0	2056	382.228663294842	2
0	2058	382.874346102946	3
0	2061	384.666045771374	2
0	2067	385.166895996692	3
0	2068	385.470349462722	2
0	2072	386.771433663414	3
0	2075	388.530917849275	2
0	2081	389.345731656405	3
0	2082	389.790396115501	2
0	2088	390.347579119319	3
0	2091	390.689378093253	2
0	2097	390.888191160184	3
0	2100	391.423917305272	2
0	2107	393.509656651246	1
0	2112	393.571000021954	0
0	2116	393.786685227376	1
0	2119	394.118710093771	0
0	2148	400.034608690389	1
0	2152	401.03455548648	0
0	2158	401.189822878319	1
0	2161	403.103644232099	2
0	2163	403.628371263977	1
0	2168	403.63081176589	0
0	2172	404.737182100382	1
0	2178	406.060784245099	0
0	2182	406.284185463396	1
0	2185	407.217180433593	0
0	2189	407.357786779408	1
0	2191	408.87817690518	2
0	2197	410.210616058862	3
0	2198	410.553987817503	2
0	2204	412.422640991476	1
0	2211	415.415054731019	0
0	2243	421.443060582501	1
0	2249	422.427927114088	0
0	2257	422.876349552143	1
0	2261	423.623727090903	2
0	2263	423.665300802224	3
0	2264	424.848670680319	2
0	2270	427.176482273144	3
0	2272	427.327136715758	4
0	2273	427.428884653319	3
0	2278	427.511272028019	2
0	2282	427.699853794332	3
0	2285	428.226447113782	2
0	2289	429.495432377344	3
0	2294	430.053318757472	4
0	2295	430.080387007635	3
0	2300	432.214237215111	2
0	2304	432.276692129471	3
0	2308	432.898076257151	4
0	2309	433.439644147842	3
0	2314	434.153902806912	2
0	2323	434.985587440739	1
0	2329	436.343573658874	2
0	2331	437.11253120344	3
0	2332	437.273430027549	2
0	2337	438.843939073042	1
0	2342	439.8622872056	0
0	2375	442.871544827443	1
0	2380	445.302224111244	0
0	2384	445.782601974363	1
0	2387	447.515221470864	0
0	2403	451.15614715075	1
0	2410	452.731758463601	0
0	2416	453.247380006661	1
0	2418	453.877822909633	2
0	2419	453.962091378917	1
0	2427	457.611737531123	2
0	2430	457.971967727584	3
0	2431	458.229049183572	2
0	2437	459.346514755869	1
0	2442	460.503826876579	0
0	2475	468.2418449444	1
0	2481	470.831172321744	2
0	2482	470.853234483174	1
0	2491	471.715412659708	0
0	2495	472.045201630985	1
0	2500	473.325888345695	0
0	2511	473.992693537637	1
0	2513	474.882204662146	2
0	2514	475.160025411097	1
0	2519	475.288282444432	0
0	2525	476.640064673761	1
0	2528	477.602774332445	0
0	2539	478.137391025211	1
0	2541	478.766211471626	2
0	2542	478.941468094102	1
0	2546	479.860117801166	2
0	2550	481.048344240361	1
0	2555	481.731184340329	0
0	2559	481.969355919558	1
0	2562	483.603166467496	0
0	2582	487.684252024991	1
0	2585	487.876964466355	2
0	2589	489.206123924122	1
0	2595	489.339450723392	2
0	2597	490.207916106662	1
0	2604	490.955940535006	0
0	2616	491.654447319773	1
0	2617	492.088733638273	0
0	2623	494.728284969382	1
0	2626	495.099231345176	0
0	2632	497.210869753451	1
0	2633	499.120826133385	0
0	2639	499.990720673981	1
0	2640	500.415426669742	0
0	2646	501.671369161279	1
0	2647	502.109094945302	0
0	2668	504.138504450441	1
0	2670	504.68748439686	0
0	2674	504.750979613826	1
0	2676	504.958930175096	2
0	2679	505.568620545418	1
0	2683	506.037900007641	2
0	2686	506.808367720173	1
0	2692	507.858641244654	2
0	2695	508.036420477325	1
0	2699	508.533501386021	2
0	2701	508.898215277279	3
0	2703	509.050563892638	4
0	2706	509.7876014075	3
0	2711	512.617310115417	2
0	2715	512.995276976096	3
0	2718	513.630219324408	2
0	2723	514.431795337892	1
0	2727	514.447921887926	2
0	2729	514.715680489503	3
0	2734	515.918013601901	2
0	2739	516.381449446865	1
0	2745	517.87971722401	2
0	2747	518.279999938574	3
0	2748	518.710995611233	2
0	2755	521.227184885629	1
0	2759	521.869181038836	2
0	2763	523.427897440035	3
0	2765	523.770999454867	4
0	2769	524.358755134065	5
0	2770	524.477882365802	4
0	2774	524.517801357003	5
0	2776	524.998589318199	6
0	2778	525.072642339625	7
0	2781	525.416649353618	6
0	2786	526.365678317431	5
0	2790	527.049325862945	6
0	2792	527.140824973628	7
0	2796	529.002201789265	6
0	2801	529.75616061252	5
0	2810	532.700089564123	4
0	2817	533.834200323191	3
0	2822	533.886268898212	2
0	2826	534.282284777961	3
0	2831	536.84774944792	2
0	2838	537.087076231411	1
0	2847	537.913027522596	0
0	2860	540.197169335825	1
0	2863	541.056339304381	2
0	2864	541.719634379366	1
0	2870	541.78793846846	2
0	2871	541.987908712127	1
0	2876	542.787897826688	0
0	2882	542.873288591916	1
0	2885	544.44710137372	0
0	2913	546.575281376662	1
0	2916	547.250807371356	2
0	2917	547.292863275233	1
0	2923	547.29738863676	2
0	2924	547.297801908872	1
0	2934	549.054559737778	0
0	2965	551.572837590683	1
0	2969	552.463596620512	2
0	2972	553.433580361567	3
0	2973	553.951888065519	2
0	2978	554.150592014821	1
0	2984	554.38648310052	0
0	3001	558.597856534283	1
0	3007	559.944676765247	2
0	3010	560.336558644567	1
0	3015	561.085675108324	0
0	3038	565.503321177143	1
0	3039	565.852413813337	0
0	3077	573.555003191507	1
0	3079	575.030619725002	2
0	3081	575.41998997496	3
0	3085	575.533238540029	2
0	3090	575.897108962426	1
0	3094	575.950981402296	2
0	3096	577.226928006711	3
0	3098	577.777020173553	4
0	3100	577.806494440573	5
0	3104	578.640753174954	4
0	3110	578.866027999044	5
0	3113	579.46820235192	4
0	3119	580.949506940078	5
0	3121	582.260921472353	4
0	3127	583.157452419359	5
0	3128	583.219036312691	4
0	3134	585.546661894893	5
0	3135	587.220175699197	4
0	3139	588.629615425226	5
0	3142	588.821693558475	4
0	3153	595.820930983357	3
0	3158	597.117946175914	2
0	3162	597.291021857586	3
0	3164	597.55154853556	4
0	3167	599.190367008845	3
0	3171	599.54622949216	4
0	3173	600.435541730242	5
0	3175	601.393809797688	6
0	3180	602.680539666716	7
0	3183	604.452262701508	8
0	3185	605.119816562443	7
0	3191	606.079979370641	8
0	3193	606.834147826102	7
0	3201	608.93014640589	6
0	3208	610.010849266101	7
0	3209	610.304786615217	6
0	3216	610.848116154269	5
0	3221	610.901262253629	4
0	3228	611.927096136069	5
0	3229	613.518454515028	4
0	3236	614.733124871483	3
0	3241	615.778127214077	2
0	3246	616.448601108607	1
0	3251	617.12392768341	0
0	3255	617.517098388055	1
0	3258	618.949819360018	0
0	3288	621.564616433351	1
0	3291	622.43030559761	0
0	3298	623.810934853747	1
0	3299	624.530283176844	0
0	3307	626.732646429161	1
0	3310	628.466429380599	0
0	3316	628.56876785455	1
0	3319	629.292019098448	0
0	3323	630.159778954138	1
0	3325	630.442313006189	2
0	3331	631.996816388846	3
0	3332	633.000402723257	2
0	3338	633.208383536045	3
0	3343	633.794030596038	4
0	3344	634.381546306191	3
0	3351	635.183405013461	4
0	3353	635.982526739329	5
0	3354	636.246880730209	4
0	3358	639.201422180741	5
0	3362	640.200518634198	6
0	3363	641.158036788431	5
0	3367	641.235731815526	6
0	3369	641.591597486442	7
0	3372	643.042604915556	6
0	3378	643.575668848754	7
0	3381	644.660056472205	6
0	3388	645.920876439196	7
0	3390	646.051701580208	8
0	3391	646.581656044407	7
0	3396	646.69796716922	6
0	3400	646.95627086019	7
0	3402	647.040459159043	8
0	3404	647.208885520704	9
0	3408	650.248908640995	8
0	3414	651.205680546028	9
0	3415	651.72431354342	8
0	3420	653.077712335431	7
0	3425	653.795837273718	6
0	3429	654.069109618588	7
0	3432	655.706715808059	6
0	3439	656.461375249263	5
0	3443	656.599850733286	6
0	3445	656.751006600391	7
0	3447	657.230051593247	8
0	3451	657.616058499581	9
0	3452	658.901334029429	8
0	3457	659.093594679596	7
0	3461	659.767917414738	8
0	3466	663.609921736735	7
0	3471	664.192349145535	6
0	3475	664.949473488625	7
0	3479	665.984729657406	8
0	3481	665.998252780297	9
0	3483	667.123851234864	10
0	3487	668.223667302426	11
0	3488	668.34421060086	10
0	3492	669.063120513656	11
0	3496	671.569921918429	12
0	3500	673.274229531053	11
0	3505	673.484323879581	10
0	3510	673.689085505531	9
0	3515	673.868203842452	8
0	3521	675.593680930847	9
0	3523	677.027283633285	10
0	3531	682.706820832878	11
0	3532	682.869671120774	10
0	3536	683.06813516724	11
0	3539	683.422292260975	10
0	3544	684.370823997518	9
0	3548	684.732920952205	10
0	3550	685.436595345484	11
0	3555	689.298465542721	10
0	3560	690.21596413897	9
0	3565	690.993935447728	8
0	3572	692.022580006962	7
0	3580	693.6772962677	8
0	3581	693.951785891044	7
0	3587	695.252343876618	6
0	3594	695.695640152928	5
0	3599	695.74707154484	4
0	3604	695.92024561682	3
0	3609	697.68843369524	2
0	3614	698.517159076019	1
0	3619	700.039827075377	0
0	3623	700.479762020485	1
0	3626	700.789820602308	0
0	3638	702.350043168555	1
0	3640	703.824786718201	0
0	3675	707.012520136099	1
0	3677	707.261156932075	2
0	3679	708.832893917439	3
0	3684	711.438532649948	2
0	3689	711.553895673637	1
0	3699	714.087238756413	2
0	3700	714.163242917187	1
0	3706	715.278902454411	0
0	3723	718.248756404536	1
0	3724	718.392499546501	0
0	3758	719.49963789759	1
0	3761	720.278044617981	0
0	3770	721.07474212078	1
0	3778	723.772012600033	0
0	3800	727.927811932946	1
0	3803	728.407758607012	0
0	3811	729.895376234871	1
0	3812	730.060680008467	0
0	3818	730.384836355689	1
0	3819	730.606100217284	0
0	3825	730.95529731522	1
0	3827	731.036954710092	2
0	3829	731.483817311302	3
0	3830	732.241107335658	2
0	3836	733.332134478768	3
0	3838	733.812775598702	4
0	3840	735.078445783458	5
0	3841	735.884142116391	4
0	3847	738.004866992228	3
0	3852	738.035980421053	2
0	3857	740.204587162208	1
0	3861	742.203443500287	2
0	3866	743.172526156932	1
0	3875	744.050923021743	2
0	3878	744.407685673193	3
0	3879	745.92293890206	2
0	3884	746.154358874159	1
0	3891	746.913595662552	2
0	3892	746.984892148728	1
0	3897	747.123611683455	0
0	3901	747.757763894133	1
0	3904	750.692175390716	0
0	3930	754.37048597186	1
0	3932	755.002982667302	2
0	3933	755.611994833234	1
0	3939	756.012897158543	0
0	3946	756.236159557547	1
0	3947	756.504929395825	0
0	3965	758.695443098934	1
0	3967	759.332032601911	0
0	3986	761.501076235744	1
0	3988	761.624113905173	2
0	3989	761.788089958519	1
0	3995	762.177975731315	2
0	3998	762.966647626315	1
0	4003	763.438243132186	0
0	4014	764.035799041136	1
0	4016	764.155680699161	2
0	4018	764.581989121536	3
0	4019	764.993598103485	2
0	4026	765.36394915599	3
0	4028	765.695160604037	4
0	4030	766.17184957817	5
0	4031	766.455559041358	4
0	4038	767.02654659559	3
0	4043	769.594834780216	2
0	4047	769.661485678535	3
0	4049	769.891725735899	4
0	4057	772.802931444175	3
0	4064	774.293816892636	4
0	4065	774.522002918409	3
0	4071	775.013533243307	2
0	4076	775.220616105007	1
0	4082	775.884321523032	0
0	4089	776.220884557532	1
0	4091	777.514423044772	2
0	4092	777.680499655561	1
0	4097	778.001140268895	0
0	4133	780.237320669097	1
0	4135	781.099274591247	2
0	4140	782.002459137144	1
0	4147	783.093343623823	0
0	4153	784.127830407559	1
0	4154	784.419885222881	0
0	4158	785.264375836863	1
0	4163	785.780733929434	0
0	4169	786.828076002866	1
0	4170	787.885483315234	0
0	4181	788.666762869575	1
0	4182	788.911091196926	0
0	4189	790.204171808786	1
0	4191	790.571994141326	2
0	4192	790.588417645693	1
0	4202	792.352369635019	2
0	4205	792.571645839843	1
0	4211	792.800335680669	2
0	4212	793.372938211364	1
0	4217	793.676296578538	0
0	4221	795.26159870034	1
0	4225	795.843739487487	0
0	4231	796.653909127538	1
0	4234	797.041241788587	0
0	4238	797.407920393189	1
0	4243	799.260245107004	2
0	4244	799.544204880944	1
0	4249	799.634366503815	0
0	4253	800.491840619522	1
0	4256	801.31227181419	0
0	4262	801.877655090445	1
0	4263	801.93519030182	0
0	4275	803.632432453465	1
0	4278	803.908151337956	2
0	4279	804.066484336377	1
0	4284	804.543522726432	0
0	4295	804.561299405915	1
0	4296	804.605834446718	0
0	4312	806.518472221601	1
0	4315	808.628080756228	2
0	4317	809.21797082565	1
0	4323	809.433698387997	0
0	4340	810.113248482739	1
0	4344	811.336316016691	2
0	4345	811.475565186212	1
0	4353	813.123988466907	2
0	4355	814.11988077422	1
0	4360	814.874638675591	0
0	4366	815.004236422415	1
0	4367	815.073825497933	0
0	4371	815.106060669571	1
0	4376	816.177810290022	0
0	4380	816.261779869096	1
0	4382	817.305409663941	2
0	4385	821.112666797172	1
0	4389	821.44462427731	2
0	4392	823.379416289154	1
0	4398	823.737320341302	2
0	4400	823.810952942553	3
0	4402	824.050113213605	4
0	4403	824.290944335696	3
0	4408	825.267749564174	2
0	4413	826.363152123788	1
0	4420	829.058164620168	0
0	4431	831.472152639326	1
0	4433	831.994946025252	0
0	4446	832.719786241506	1
0	4449	833.592437793152	2
0	4450	834.72435550898	1
0	4454	834.973858478283	2
0	4456	835.733741143006	3
0	4458	836.439805181145	4
0	4462	837.443258540013	5
0	4467	838.88593503943	6
0	4468	838.965224728967	5
0	4475	839.593898931533	4
0	4480	839.594598395611	3
0	4486	840.760887796605	2
0	4491	840.802683733052	1
0	4495	842.115701616852	2
0	4497	842.522205289779	3
0	4502	842.968996888298	2
0	4506	844.881375392553	3
0	4508	844.948414774562	4
0	4510	846.284293157729	5
0	4512	846.476568295527	6
0	4515	847.014708453948	5
0	4523	847.566660964097	6
0	4525	847.607855439701	7
0	4528	848.157649463157	8
0	4529	848.237338251896	7
0	4534	849.868995390375	6
0	4540	850.055253244493	7
0	4543	850.831480946205	6
0	4549	852.52555299991	5
0	4555	853.828459621594	4
0	4560	853.896228424741	3
0	4566	855.207753661341	4
0	4569	855.757808067367	3
0	4575	856.104553282764	4
0	4579	857.18096693555	3
0	4585	857.278317618127	4
0	4586	857.810286376306	3
0	4593	858.860442179445	2
0	4600	860.445689838952	1
0	4606	862.776470842816	0
0	4639	865.751450308731	1
0	4641	866.105420473105	2
0	4648	867.952272563843	3
0	4649	868.14212240675	2
0	4657	869.002762550403	1
0	4667	869.887972537821	2
0	4668	870.052635614886	1
0	4675	870.613616524273	0
0	4687	871.225004963044	1
0	4688	871.647097092685	0
0	4697	873.775697121435	1
0	4699	874.239250444686	0
0	4706	874.805639571437	1
0	4708	876.726821075476	2
0	4709	877.476267146589	1
0	4714	877.786212896866	0
0	4726	879.057210295659	1
0	4727	879.367749014656	0
0	4739	879.628354542421	1
0	4740	879.896345323561	0
0	4744	880.078290821679	1
0	4746	880.176205855449	2
0	4749	880.61988629727	1
0	4755	881.558775985635	2
0	4759	883.841290470408	1
0	4765	884.044005111348	0
0	4804	893.150341388205	1
0	4805	893.201248498449	0
0	4816	894.938265291928	1
0	4822	896.133866617563	2
0	4823	896.160237580766	1
0	4829	896.982454288446	2
0	4830	896.993314853302	1
0	4839	897.923608189408	0
0	4852	901.120839005111	1
0	4853	901.287630199069	0
0	4862	901.69417474016	1
0	4863	902.135218555695	0
0	4867	902.670831356557	1
0	4869	903.306684199692	2
0	4873	904.13555609111	3
0	4874	904.650364482003	2
0	4880	905.359325756661	1
0	4885	906.060132610974	0
0	4923	913.320824739236	1
0	4924	913.535674762486	0
0	4962	921.894208444517	1
0	4964	921.91437450133	2
0	4969	922.969550379128	1
0	4975	923.35484111856	2
0	4976	923.53048671938	1
0	4982	924.091085471661	2
0	4983	924.282487899912	1
0	4990	924.921509475137	2
0	4993	925.216421045079	1
0	4999	925.752996870009	2
0	5001	925.865982822096	3
0	5004	926.369800804557	4
0	5006	926.528457933039	5
0	5007	926.987171423918	4
0	5014	928.805382278164	5
0	5020	930.308228974998	4
0	5026	930.525821760445	5
0	5028	931.247339099708	4
0	5035	931.397063631547	5
0	5039	932.37674591152	6
0	5040	932.622203800921	5
0	5049	933.769930423431	4
0	5056	934.20478357406	5
0	5059	935.745904505433	4
0	5064	935.873312606872	3
0	5069	935.987214579715	2
0	5076	937.881346160873	1
0	5080	938.304347475557	2
0	5084	938.946712057609	3
0	5085	939.057126511248	2
0	5091	940.652263620842	1
0	5097	941.06624524744	2
0	5098	941.441657635035	1
0	5107	944.163701498268	0
0	5128	947.991297411657	1
0	5129	948.142518405108	0
0	5135	948.390882456541	1
0	5137	949.245060868526	0
0	5153	951.864230071541	1
0	5156	952.418006836765	2
0	5158	953.076943343861	1
0	5163	953.525920591969	0
0	5169	953.997138846685	1
0	5171	954.211617525883	2
0	5173	954.833208041606	3
0	5174	955.594557575014	2
0	5179	956.380292922742	1
0	5185	956.905012913769	2
0	5189	957.775984783959	3
0	5192	958.71816395092	2
0	5197	959.964112738372	1
0	5203	961.249273706014	2
0	5205	961.255480571281	3
0	5208	962.331670670235	2
0	5212	962.494627357764	3
0	5214	963.875045664481	4
0	5217	964.183156305457	3
0	5221	964.364956055726	4
0	5225	965.799557471219	3
0	5230	965.875729808307	2
0	5237	967.058836280157	1
0	5242	967.16847215005	0
0	5250	969.923461847955	1
0	5251	970.097680922624	0
0	5255	970.635803356558	1
0	5259	972.612337159706	0
0	5270	973.428926454732	1
0	5272	973.875211206146	0
0	5278	974.008455360735	1
0	5279	974.162918822826	0
0	5291	974.796563448406	1
0	5293	975.133300132289	2
0	5296	975.564605557122	1
0	5304	976.889653377512	0
0	5310	976.956199559368	1
0	5313	978.828569976914	0
0	5324	979.303688077812	1
0	5326	980.197993418792	0
0	5338	981.843053834778	1
0	5339	982.003232371024	0
0	5350	982.132029327081	1
0	5352	982.556650072927	0
0	5358	982.68328659413	1
0	5361	983.799577789857	2
0	5362	983.895693601517	1
0	5366	984.107602400856	2
0	5368	984.423869884734	3
0	5370	985.183471338765	4
0	5372	985.488259333386	5
0	5375	987.18036031431	4
0	5380	987.685114329561	3
0	5384	988.255885994003	4
0	5386	988.575031731152	5
0	5388	988.957026250241	6
0	5392	989.3850675631	7
0	5393	989.704182885728	6
0	5400	991.979666777261	5
0	5404	992.816690399789	6
0	5410	993.944436398933	7
0	5412	995.318500944388	8
0	5415	995.935653143979	7
0	5419	996.13845897205	8
0	5422	996.664239225402	7
0	5428	997.821562792758	8
0	5430	997.832176553526	9
0	5431	999.171240213287	8
0	5437	1000.58393109392	9
0	5438	1000.886045284895	8
0	5445	1001.319567773028	9
0	5446	1001.418824406011	8
0	5453	1002.302756213366	9
0	5454	1002.455312398746	8
0	5459	1002.779234586728	7
0	5464	1003.016920931381	6
0	5469	1006.469491782789	5
0	5474	1007.257895410972	4
0	5481	1009.908413451496	3
0	5486	1013.416312742052	2
0	5491	1013.812595900568	1
0	5496	1014.525234673272	0
0	5515	1016.81486275787	1
0	5517	1017.282383316167	2
0	5518	1017.308317113806	1
0	5528	1019.977531039619	0
0	5534	1020.447419212231	1
0	5535	1020.521115142329	0
0	5541	1021.694857618061	1
0	5542	1022.120821300094	0
0	5546	1024.644345110864	1
0	5553	1027.393953498993	2
0	5554	1028.528369753533	1
0	5559	1028.944247179835	0
0	5581	1030.024452883188	1
0	5582	1030.347710383246	0
0	5590	1031.11605354692	1
0	5591	1031.980606583384	0
0	5621	1035.391505774453	1
0	5623	1036.417554628696	0
0	5646	1037.768704719055	1
0	5649	1038.785963081987	2
0	5650	1039.009360302934	1
0	5655	1039.084820747748	0
0	5664	1041.302747273724	1
0	5669	1042.272592614214	2
0	5670	1042.312694142234	1
0	5675	1042.455770637479	0
0	5687	1044.296069389995	1
0	5690	1044.594859832729	0
0	5701	1045.987304522004	1
0	5702	1046.25186333666	0
0	5708	1046.446643985789	1
0	5709	1047.958449588218	0
0	5718	1048.324775273754	1
0	5724	1049.662338180686	2
0	5732	1052.023471352827	1
0	5737	1052.200908191877	0
0	5758	1053.914996656265	1
0	5761	1054.192060267908	2
0	5762	1054.969539710279	1
0	5769	1056.187649324593	2
0	5770	1056.540597338022	1
0	5775	1056.979244718516	0
0	5779	1057.797994450894	1
0	5781	1057.869774459494	2
0	5783	1059.609716335563	3
0	5785	1059.762260879991	4
0	5791	1060.395362350009	5
0	5793	1061.149576403937	6
0	5796	1061.344369032097	5
0	5801	1061.653331626026	4
0	5805	1062.666706792464	5
0	5813	1065.705186589257	4
0	5818	1065.827653769552	3
0	5826	1069.240953606647	4
0	5827	1069.335870732629	3
0	5831	1070.431173565849	4
0	5833	1070.725681550907	5
0	5835	1070.89103812541	6
0	5838	1073.842307858029	5
0	5844	1075.040730831588	6
0	5848	1075.936011755367	7
0	5849	1075.987732874441	6
0	5854	1076.788854996814	5
0	5858	1077.167842688142	6
0	5862	1078.430723571839	7
0	5864	1078.615057450983	8
0	5866	1078.753941990255	9
0	5868	1078.990880056349	10
0	5870	1079.891447492769	11
0	5871	1081.233869130488	10
0	5878	1082.709123910872	9
0	5885	1087.341395112743	8
0	5890	1087.497927286972	7
0	5894	1088.582895049689	8
0	5896	1088.613603233269	9
0	5898	1089.039495140905	10
0	5900	1089.432115143524	11
0	5904	1091.00308034011	12
0	5905	1092.210471130262	11
0	5909	1092.660460350449	12
0	5911	1093.056688738244	13
0	5915	1093.62298999153	14
0	5916	1093.640142657584	13
0	5922	1093.970932343011	14
0	5925	1094.424208858885	13
0	5929	1094.692418873555	14
0	5931	1095.730492398187	15
0	5934	1097.034237791064	14
0	5940	1097.768395775239	15
0	5942	1097.820493350393	16
0	5943	1098.988505854508	15
0	5947	1100.51113794666	16
0	5949	1101.483217048464	17
0	5953	1102.133075015344	18
0	5955	1102.587797767152	19
0	5956	1102.67055595789	18
0	5960	1102.699250761469	19
0	5964	1104.214322909352	20
0	5966	1104.382062175958	21
0	5971	1105.182327432613	20
0	5979	1107.337213001187	19
0	5984	1108.097192653115	18
0	5994	1110.508231484745	17
0	6000	1110.865486479706	18
0	6001	1111.137841241519	17
0	6005	1111.290871518479	18
0	6007	1111.333287511833	19
0	6010	1111.783477153853	18
0	6018	1114.878437996478	17
0	6023	1114.982441065817	16
0	6027	1118.046538210096	17
0	6034	1119.69587520037	16
0	6041	1121.180229001683	17
0	6042	1121.505726184554	16
0	6049	1124.058338600545	17
0	6052	1124.843661496247	16
0	6057	1125.435910960929	15
0	6065	1125.804439837599	14
0	6070	1125.982138353977	13
0	6074	1126.455831612002	14
0	6076	1126.568221184596	15
0	6080	1127.986707611932	16
0	6081	1129.611038422823	15
0	6090	1131.924379304575	14
0	6095	1131.981151120319	13
0	6100	1132.239249332335	12
0	6106	1136.535085967404	13
0	6108	1136.930455935122	14
0	6110	1137.207395052039	15
0	6111	1137.324154394877	14
0	6116	1138.421591070895	13
0	6120	1138.704172046045	14
0	6125	1139.169119918159	13
0	6129	1139.763683404464	14
0	6132	1140.84757913847	13
0	6138	1142.448457964415	12
0	6145	1143.485043374046	13
0	6147	1143.827919796606	12
0	6153	1144.894009377004	11
0	6158	1144.995601339085	10
0	6163	1145.210085855566	9
0	6168	1145.575175477568	8
0	6174	1147.151202456286	7
0	6181	1148.36478381515	8
0	6182	1148.679830173281	7
0	6187	1149.565042389588	6
0	6192	1149.868266738291	5
0	6198	1150.351179809763	6
0	6199	1150.584409713159	5
0	6203	1150.716294296849	6
0	6205	1151.264228121677	7
0	6209	1151.89028555737	8
0	6211	1152.180524630738	9
0	6212	1152.649644041224	8
0	6216	1152.652802095831	9
0	6219	1153.177987194415	8
0	6223	1154.184922084823	9
0	6226	1155.914812479055	8
0	6230	1155.936732389528	9
0	6234	1157.071524520579	10
0	6238	1157.196637341809	11
0	6240	1157.592841788056	12
0	6241	1157.957698402886	11
0	6245	1158.140285021326	12
0	6247	1158.276789444387	13
0	6251	1158.732184175189	14
0	6252	1158.789620417662	13
0	6258	1160.3951463853	14
0	6260	1160.791522872592	15
0	6266	1161.787221580781	16
0	6267	1162.291107634497	15
0	6273	1164.576362022975	16
0	6275	1166.915447340572	17
0	6277	1167.478873376633	18
0	6279	1167.780951030235	19
0	6280	1167.921362488023	18
0	6284	1168.095175561874	19
0	6287	1168.404185058771	18
0	6291	1168.758351160545	19
0	6294	1170.18557537867	18
0	6299	1172.844621370038	17
0	6303	1173.040749889492	18
0	6305	1173.432591403828	19
0	6309	1174.222489592124	20
0	6312	1174.656081866343	19
0	6317	1175.040339502131	18
0	6326	1177.548658728191	17
0	6331	1177.667254011212	16
0	6336	1178.468732512294	15
0	6340	1178.568717080732	16
0	6342	1179.134834282964	17
0	6344	1179.655760307443	18
0	6349	1181.540481721175	17
0	6353	1181.723323548151	18
0	6356	1182.439527987611	17
0	6361	1184.155286755113	16
0	6366	1184.606682112638	15
0	6370	1185.947266595406	16
0	6372	1187.598889012481	17
0	6374	1188.767974985085	18
0	6378	1190.608323566193	19
0	6384	1192.4617741683	20
0	6386	1193.089978542942	19
0	6391	1193.25021304604	18
0	6399	1195.028056734528	19
0	6400	1195.106623210615	18
0	6406	1198.925236612141	17
0	6415	1202.876898863832	16
0	6421	1203.340362024603	17
0	6423	1203.884527585356	18
0	6424	1205.006034668074	17
0	6430	1205.536437864974	18
0	6433	1206.215042970405	17
0	6438	1206.618777164354	16
0	6444	1207.270741704105	15
0	6449	1207.303828242012	14
0	6460	1209.825870837891	13
0	6465	1210.780612752043	12
0	6470	1212.13638729701	11
0	6475	1212.811820808489	10
0	6479	1213.436289534187	11
0	6482	1215.365613301892	10
0	6488	1216.194798887289	9
0	6493	1216.474398344052	8
0	6499	1217.522703233488	9
0	6501	1218.672744033181	10
0	6507	1220.834074825014	11
0	6508	1221.885925543961	10
0	6513	1222.242349645545	9
0	6518	1222.252102594259	8
0	6522	1222.316077623279	9
0	6530	1226.056200387311	8
0	6535	1227.131320064733	7
0	6539	1227.896597687086	8
0	6543	1228.98582387188	9
0	6545	1229.202817522045	10
0	6550	1230.469146704251	9
0	6556	1231.450188908056	8
0	6561	1231.525495068022	7
0	6565	1232.224869682316	8
0	6569	1233.354191840282	9
0	6570	1233.564690397516	8
0	6574	1237.109875972576	9
0	6578	1239.190069734583	10
0	6579	1239.623858118597	9
0	6586	1245.093385406407	10
0	6589	1245.376630614619	9
0	6595	1246.944054504064	8
0	6600	1246.998246176647	7
0	6608	1248.540008191278	6
0	6613	1248.605361230106	5
0	6617	1248.645494757237	6
0	6619	1248.806827781299	7
0	6621	1249.34916528689	8
0	6627	1250.974556000698	9
0	6628	1250.983523891331	8
0	6634	1251.107660576919	9
0	6636	1251.394992309661	10
0	6637	1251.421254855487	9
0	6642	1251.467250164697	8
0	6646	1251.538263164374	9
0	6648	1252.086204022908	10
0	6650	1252.340975086313	11
0	6653	1253.11274756338	10
0	6660	1255.453235010631	9
0	6666	1257.83047939837	10
0	6669	1258.097139773681	9
0	6673	1258.465084075795	10
0	6676	1259.486055862963	9
0	6681	1262.508512445518	8
0	6687	1265.066096032424	9
0	6689	1267.679238691571	10
0	6700	1270.402121595127	11
0	6701	1271.405709612874	10
0	6706	1271.58150766428	9
0	6710	1272.517936977516	10
0	6712	1273.134508516233	11
0	6715	1273.935364297494	10
0	6719	1274.363468902253	11
0	6723	1275.486318634531	12
0	6725	1275.576042796021	13
0	6726	1275.772132213002	12
0	6730	1276.403233453773	13
0	6736	1278.562884877289	12
0	6741	1279.270042138374	11
0	6746	1279.331379936974	10
0	6751	1279.508385111012	9
0	6759	1280.346451393014	8
0	6764	1280.350487094607	7
0	6768	1281.039562817426	8
0	6772	1281.520223483516	9
0	6773	1281.67144983326	8
0	6778	1282.703401654551	7
0	6782	1283.742904671864	8
0	6789	1285.482990025852	9
0	6794	1286.103558064255	8
0	6799	1287.356548889757	7
0	6806	1288.782735783617	8
0	6809	1288.966083101352	7
0	6814	1288.974632639496	6
0	6819	1289.150887515006	5
0	6826	1290.13282090191	4
0	6832	1292.232987209328	5
0	6835	1293.24089277292	4
0	6839	1293.35750949073	5
0	6843	1295.746149308824	6
0	6844	1295.856337541248	5
0	6849	1296.446938790362	4
0	6856	1298.029677153084	5
0	6859	1298.901575878003	4
0	6864	1299.094475490425	3
0	6869	1299.182719628174	2
0	6875	1299.290789986572	3
0	6876	1299.959761611548	2
0	6882	1301.305566391892	3
0	6884	1301.762281354671	4
0	6885	1301.931142360186	3
0	6889	1303.452174851056	4
0	6891	1303.883217082401	5
0	6895	1307.036536374472	4
0	6900	1307.061590456357	3
0	6906	1309.922367889766	4
0	6908	1312.263137995084	5
0	6910	1312.470785087274	6
0	6912	1312.884003584659	7
0	6915	1313.463155836928	6
0	6920	1315.687520363438	5
0	6925	1316.026144020975	4
0	6932	1317.482229334391	5
0	6934	1317.634519886916	4
0	6939	1318.744939342614	3
0	6945	1319.274917437421	2
0	6954	1320.737478623773	3
0	6955	1320.843325213708	2
0	6962	1321.383371223964	3
0	6966	1322.021305045973	2
0	6972	1322.852950883772	3
0	6976	1323.379186789803	4
0	6977	1323.418773181332	3
0	6983	1323.516924265205	4
0	6984	1324.298799349619	3
0	6989	1324.690297214291	2
0	6993	1325.000814470791	3
0	6996	1326.187375599771	2
0	7003	1327.604111511796	1
0	7008	1327.871453841279	0
0	7031	1331.406992195394	1
0	7032	1331.656609580752	0
0	7043	1332.632771149051	1
0	7044	1333.509221253342	0
0	7048	1334.234404129345	1
0	7051	1334.987259596944	0
0	7073	1339.218481649672	1
0	7075	1339.250217615351	2
0	7081	1342.45133023279	1
0	7086	1342.775082397227	0
0	7129	1349.149175826415	1
0	7131	1349.554619474322	0
0	7172	1354.960889595038	1
0	7175	1357.737628660879	0
0	7181	1358.59556882684	1
0	7187	1359.476170396905	2
0	7188	1359.857707481158	1
0	7194	1359.94227847502	2
0	7197	1361.237924470886	1
0	7202	1361.494686701338	0
0	7229	1365.044900608528	1
0	7231	1366.052454642122	2
0	7236	1368.598134406884	1
0	7243	1369.526684453208	2
0	7246	1370.923331019965	3
0	7247	1371.369379404613	2
0	7253	1371.869934057247	1
0	7261	1372.304791043566	2
0	7265	1373.574472505025	1
0	7271	1373.778547562773	2
0	7272	1373.994270282857	1
0	7278	1375.145552530773	0
0	7284	1375.93487204822	1
0	7285	1376.842530552909	0
0	7297	1379.317282197924	1
0	7300	1380.103108762897	0
0	7338	1387.546250342506	1
0	7340	1387.796890034229	2
0	7341	1388.149282395342	1
0	7348	1388.253973165226	2
0	7349	1388.266486698717	1
0	7355	1388.413018316226	2
0	7356	1389.443622589748	1
0	7361	1389.678225498551	0
0	7375	1391.950226222815	1
0	7376	1392.080851384621	0
0	7396	1393.895521621875	1
0	7398	1393.958062722402	2
0	7401	1396.389710042559	1
0	7406	1396.39860165312	0
0	7413	1396.686256636354	1
0	7416	1397.237818445154	2
0	7417	1397.425488938922	1
0	7422	1397.491942582273	0
0	7426	1398.119696194565	1
0	7428	1398.258791112931	2
0	7431	1398.756379149051	1
0	7439	1400.284694077823	0
0	7455	1401.463901623749	1
0	7459	1402.844622384065	2
0	7464	1403.534596105249	3
0	7467	1404.215488326301	2
0	7473	1404.321884503558	3
0	7476	1404.872413419444	2
0	7484	1405.491188506481	1
0	7491	1405.952275918161	2
0	7492	1406.614535761255	1
0	7498	1407.194138235013	0
0	7515	1409.261644141664	1
0	7522	1410.450946077149	2
0	7523	1410.649350749228	1
0	7528	1410.87265947431	0
0	7541	1411.862967382021	1
0	7543	1412.027944766593	2
0	7546	1412.837110996441	1
0	7553	1413.698435788908	0
0	7557	1414.736600216536	1
0	7560	1415.525017822331	0
0	7564	1415.550660573887	1
0	7568	1416.29549465025	2
0	7570	1416.672627415428	1
0	7577	1416.942618533819	2
0	7582	1417.903879625963	1
0	7586	1417.94216568999	2
0	7588	1418.491674992375	3
0	7590	1418.551478106804	4
0	7592	1418.979439911245	5
0	7596	1419.119671402131	6
0	7598	1419.177178621734	7
0	7599	1419.430121601028	6
0	7606	1419.930712608942	7
0	7607	1420.593453613972	6
0	7617	1421.678787407305	5
0	7622	1421.757090407926	4
0	7627	1421.910236931277	3
0	7631	1422.047316511023	4
0	7634	1422.300240428406	3
0	7640	1424.278905570604	4
0	7644	1424.586538338058	5
0	7645	1426.563104080895	4
0	7652	1430.604386649186	3
0	7662	1432.653968503336	4
0	7664	1432.722123532327	5
0	7665	1432.755845137926	4
0	7670	1433.939890502528	3
0	7678	1435.032661783338	4
0	7681	1437.899105199788	3
0	7685	1437.927043843654	4
0	7690	1441.065169224775	3
0	7695	1442.20862732726	2
0	7699	1443.727263095191	3
0	7701	1443.907361169239	4
0	7703	1444.093987195717	5
0	7705	1444.591007017724	6
0	7708	1446.0809271338	5
0	7713	1446.636720627358	4
0	7720	1449.397062313535	3
0	7726	1449.615353440836	4
0	7728	1450.407857349368	3
0	7733	1450.730575656169	2
0	7737	1451.596259496639	3
0	7739	1453.104096406272	4
0	7741	1456.018461504547	5
0	7743	1456.055344368955	6
0	7747	1456.780471994606	7
0	7748	1456.916220316192	6
0	7753	1458.529202714649	5
0	7765	1458.972918776351	6
0	7766	1459.20348385138	5
0	7770	1459.582241082137	6
0	7776	1461.625106312043	5
0	7781	1463.306467503986	4
0	7790	1466.180803187563	3
0	7794	1466.719102709689	4
0	7797	1469.65204912278	3
0	7802	1469.719545297764	2
0	7810	1472.397976012632	3
0	7811	1472.452309081744	2
0	7817	1473.786775293061	3
0	7823	1474.477016596674	4
0	7825	1475.029710612615	5
0	7828	1476.286445068995	4
0	7832	1478.264716935745	5
0	7835	1480.073644545825	4
0	7839	1480.326330709045	5
0	7844	1481.053266924062	4
0	7848	1481.501104063408	5
0	7850	1482.277285005938	6
0	7853	1482.68759373045	5
0	7859	1483.340954312374	6
0	7860	1483.344750150935	5
0	7865	1483.377013452273	4
0	7873	1485.201013777086	5
0	7875	1486.623302876147	6
0	7877	1487.024419563406	7
0	7878	1487.249733425261	6
0	7883	1488.348752924432	5
0	7888	1488.541938175048	4
0	7895	1492.435501531513	3
0	7903	1494.374725028755	2
0	7908	1494.68791825386	1
0	7912	1495.056876328682	2
0	7915	1495.421171744126	1
0	7919	1496.466586465821	2
0	7923	1497.09015600472	1
0	7929	1497.651898289194	0
0	7946	1499.490290466129	1
0	7947	1501.058957023455	0
0	7970	1502.909836179757	1
0	7972	1504.19843857411	0
0	8032	1513.42267831763	1
0	8034	1513.467720289861	2
0	8036	1513.909446064151	3
0	8037	1514.171872199695	2
0	8043	1516.877768262485	1
0	8049	1517.075425135126	0
0	8076	1522.508669408467	1
0	8079	1523.099079388034	0
0	8094	1525.755873293851	1
0	8096	1526.388465195887	2
0	8100	1527.338010657448	3
0	8104	1528.278170546162	4
0	8108	1529.102981275901	5
0	8110	1529.721252094983	6
0	8111	1530.565907847931	5
0	8116	1530.876882635767	4
0	8123	1531.314012837589	3
0	8129	1531.642491035583	4
0	8130	1531.805876253417	3
0	8140	1537.706379654694	4
0	8144	1538.316219819513	5
0	8146	1538.350335562223	6
0	8147	1538.629046441065	5
0	8152	1539.04195957249	4
0	8157	1539.064239610765	3
0	8162	1539.206797922816	2
0	8168	1539.832131842006	1
0	8172	1539.852224824528	2
0	8174	1540.130014980222	3
0	8177	1541.233806546643	2
0	8189	1542.53688820206	3
0	8190	1542.867357584449	2
0	8195	1543.600744594521	1
0	8200	1544.040091146256	0
0	8216	1544.294241579983	1
0	8220	1545.80703203921	0
0	8233	1546.957983120047	1
0	8235	1547.776143843853	0
0	8239	1547.881680657708	1
0	8244	1549.136382474597	0
0	8285	1553.46660721225	1
0	8291	1555.291013413072	0
0	8306	1557.634176764954	1
0	8308	1557.657229754354	2
0	8310	1557.716992874865	3
0	8312	1558.375402379169	2
0	8318	1558.404898525024	3
0	8320	1558.893862885755	2
0	8325	1558.962556705748	1
0	8330	1559.073639747779	0
0	8344	1561.433168487473	1
0	8346	1561.479763099153	2
0	8347	1561.80125574523	1
0	8352	1561.932557661198	0
0	8360	1563.172152793043	1
0	8361	1563.368216034824	0
0	8374	1564.043631975383	1
0	8375	1564.287128848453	0
0	8397	1565.320806317486	1
0	8403	1570.267837187233	0
0	8428	1570.907606940809	1
0	8431	1571.790467655898	0
0	8471	1581.243256913618	1
0	8476	1585.432196377145	0
0	8498	1590.711520329396	1
0	8502	1591.829864471394	0
0	8509	1591.934749849386	1
0	8512	1592.520691279122	0
0	8532	1593.471135747801	1
0	8538	1594.321618879231	2
0	8540	1595.449516514193	1
0	8546	1596.155768541174	0
0	8553	1597.478917134256	1
0	8554	1597.889059000592	0
0	8568	1599.237764746176	1
0	8572	1600.477989258864	0
0	8588	1601.459572778514	1
0	8593	1603.539211147743	2
0	8594	1604.307885486695	1
0	8599	1604.462124225771	0
0	8605	1604.498522556828	1
0	8606	1605.885962213659	0
0	8612	1607.440514756923	1
0	8616	1607.89431624121	2
0	8619	1610.260079620536	1
0	8625	1610.491676994388	2
0	8628	1614.867307212686	3
0	8629	1614.95782373922	2
0	8634	1615.536578284876	1
0	8640	1616.927478898444	2
0	8642	1616.981482532195	3
0	8643	1617.69889989155	2
0	8648	1617.916013380658	1
0	8655	1619.243322292038	0
0	8685	1624.673163521754	1
0	8686	1625.156692711978	0
0	8693	1625.280032848886	1
0	8694	1625.36746668872	0
0	8709	1626.223591456726	1
0	8711	1626.69669619998	2
0	8715	1627.465710555169	3
0	8718	1628.265235902161	2
0	8723	1628.556594387492	1
0	8727	1628.772740687037	2
0	8731	1629.387285451018	1
0	8736	1630.729673498085	0
0	8742	1631.482880098866	1
0	8745	1631.911311438598	2
0	8746	1631.95698490705	1
0	8751	1633.244083743354	0
0	8757	1633.77574594756	1
0	8759	1634.342568219053	2
0	8766	1636.97902163464	3
0	8769	1637.259412273829	2
0	8776	1638.187852789862	3
0	8777	1640.308355087943	2
0	8783	1640.791635788862	3
0	8788	1643.112897612119	4
0	8790	1643.149424687391	5
0	8793	1645.841644962129	4
0	8799	1645.842042149396	5
0	8800	1646.015840129545	4
0	8804	1646.099230898727	5
0	8809	1646.433239431459	4
0	8814	1647.36663127687	3
0	8821	1647.943769571003	4
0	8828	1651.245273855504	3
0	8834	1651.251570552091	4
0	8836	1651.309574444902	3
0	8841	1651.529317277336	2
0	8846	1657.04638068031	1
0	8856	1658.721771177423	2
0	8858	1659.366427322882	3
0	8859	1659.47676168226	2
0	8865	1661.192938503542	3
0	8869	1661.600496239104	4
0	8872	1661.824894455606	3
0	8876	1662.216195044442	4
0	8879	1665.105119927445	3
0	8886	1665.551595930764	4
0	8887	1666.202638806907	3
0	8893	1667.072776373011	4
0	8894	1667.653625593685	3
0	8900	1669.238819495169	4
0	8901	1669.372738456596	3
0	8908	1673.842704578392	4
0	8909	1673.924391221404	3
0	8915	1674.853491258357	2
0	8920	1675.483834942071	1
0	8925	1675.655005087651	0
0	8929	1675.72263990502	1
0	8933	1677.175179191104	0
0	8941	1678.297769744961	1
0	8942	1678.45180605774	0
0	8959	1679.126970525108	1
0	8963	1681.376037262788	2
0	8965	1681.409624662231	3
0	8967	1682.037296507564	4
0	8969	1682.845600580022	5
0	8970	1683.185821064487	4
0	8980	1683.637817284733	5
0	8981	1684.22404946258	4
0	8986	1684.909048725379	3
0	8991	1685.832662472744	2
0	8996	1686.361334890023	1
0	9002	1688.509719543527	2
0	9007	1690.410830257669	1
0	9012	1690.873468377296	0
0	9016	1692.679617337924	1
0	9024	1695.691292147898	2
0	9027	1696.597350654743	1
0	9032	1697.418228176164	0
0	9044	1698.790736178015	1
0	9047	1699.655827398505	2
0	9049	1699.742383433856	3
0	9052	1700.322859992756	4
0	9054	1700.857741261883	3
0	9060	1700.89267828288	4
0	9063	1701.725240653321	5
0	9064	1702.008736354187	4
0	9070	1702.392634847991	3
0	9077	1704.283182067747	2
0	9082	1704.583631823402	1
0	9087	1704.661254590029	0
0	9099	1707.51392077093	1
0	9100	1707.911863688497	0
0	9104	1708.443847030712	1
0	9108	1708.930094028092	2
0	9112	1710.562463434385	3
0	9114	1710.653867645723	2
0	9119	1711.352497261334	1
0	9125	1712.747919315802	0
0	9165	1716.643865487994	1
0	9168	1717.682058201703	0
0	9182	1720.763130249947	1
0	9184	1721.167598725724	2
0	9186	1721.435913559091	1
0	9193	1721.948803849486	0
0	9226	1727.345903303399	1
0	9230	1728.05751423773	0
0	9248	1729.955216849151	1
0	9249	1730.13385979477	0
0	9255	1730.431229213728	1
0	9257	1732.547712811493	0
0	9283	1735.810857325525	1
0	9285	1735.862054683157	2
0	9287	1736.226326516924	1
0	9293	1736.28501890347	2
0	9294	1737.296103907726	1
0	9303	1741.19481735422	0
0	9323	1742.237194679834	1
0	9324	1743.182957817461	0
0	9352	1748.421293194468	1
0	9354	1750.11001791045	0
0	9369	1750.863679500903	1
0	9371	1751.180211805652	2
0	9377	1752.351415033326	1
0	9383	1752.696520657559	0
0	9393	1755.594375816209	1
0	9395	1756.378944757284	2
0	9398	1756.738507216484	1
0	9404	1757.860009452752	2
0	9405	1758.218813644626	1
0	9410	1758.373977502112	0
0	9432	1763.744265835425	1
0	9436	1764.749251911463	2
0	9437	1764.750888163264	1
0	9444	1765.96572013737	0
0	9461	1768.260086855358	1
0	9462	1768.653913175765	0
0	9469	1768.823118448663	1
0	9473	1771.349271805906	0
0	9490	1771.752165621918	1
0	9491	1771.875426284496	0
0	9517	1773.62861355345	1
0	9518	1773.760227683698	0
0	9524	1773.927257321052	1
0	9525	1774.267672336927	0
0	9531	1774.541926899994	1
0	9533	1775.458954603944	0
0	9539	1775.660985341878	1
0	9540	1775.823613182254	0
0	9546	1776.628018204462	1
0	9547	1777.35095917809	0
0	9573	1781.963323433754	1
0	9578	1785.018083015206	0
0	9582	1785.227027631082	1
0	9585	1786.454412102589	0
0	9601	1789.473281617366	1
0	9603	1790.468303029562	2
0	9609	1792.729430862635	1
0	9613	1794.935218620924	2
0	9619	1796.492614704049	1
0	9631	1798.94075411667	0
0	9661	1802.906716924481	1
0	9664	1805.253814079304	0
0	9678	1806.74763491348	1
0	9689	1810.239115859144	2
0	9690	1811.145605727901	1
0	9696	1812.019062626084	0
0	9709	1813.909982430608	1
0	9710	1814.306902095928	0
0	9739	1816.120175684869	1
0	9741	1816.389648785118	2
0	9745	1816.700954954576	3
0	9746	1817.483626308499	2
0	9758	1819.779276740975	1
0	9766	1821.767516089152	0
0	9772	1821.990916656551	1
0	9775	1824.176019952581	2
0	9776	1824.516404560276	1
0	9785	1826.249869468754	0
0	9812	1829.733967500572	1
0	9816	1831.539530198624	2
0	9818	1831.899733616122	3
0	9822	1833.154029621071	4
0	9823	1833.17093692064	3
0	9829	1833.654525848409	4
0	9830	1834.408887934185	3
0	9835	1834.530004867198	2
0	9841	1834.547643749599	3
0	9842	1834.663389828413	2
0	9848	1835.024359112895	3
0	9850	1835.374902247087	2
0	9856	1835.542550109408	3
0	9857	1835.751442478869	2
0	9861	1836.191081855227	3
0	9869	1837.133085034304	4
0	9870	1837.650920018269	3
0	9875	1837.703367886965	2
0	9880	1837.72905237378	1
0	9886	1838.721542468151	0
0	9908	1840.09816268653	1
0	9910	1840.344953400365	2
0	9912	1840.389200434525	3
0	9914	1840.557560741462	4
0	9916	1841.351337415491	5
0	9921	1842.021876520137	6
0	9922	1842.221489857522	5
0	9927	1843.726762252887	4
0	9933	1844.117176385889	3
0	9940	1844.532626313085	4
0	9942	1844.954965809614	5
0	9943	1845.285818502779	4
0	9949	1845.417952785405	5
0	9951	1846.297476815139	4
0	9956	1846.490586153453	3
0	9960	1847.607607824046	4
0	9962	1847.766913999368	5
0	9964	1848.220730488289	6
0	9967	1849.341242597042	5
0	9971	1849.682277201739	6
0	9974	1850.303964542133	5
0	9979	1850.71533602997	4
0	9984	1851.835909198806	3
0	9988	1852.899763548158	4
0	9990	1853.050671959606	5
0	9994	1853.46713326647	6
0	9995	1853.558155027612	5
0	10000	1855.40189775744	4
0	10004	1856.694166079631	5
0	10008	1858.631522221729	4
0	10016	1859.06107959103	3
0	10020	1859.30178729981	4
0	10025	1860.797317483711	3
0	10030	1861.14248495768	2
0	10034	1861.273210356178	3
0	10036	1861.930283436128	4
0	10038	1862.305465826733	5
0	10041	1862.988815900966	4
0	10048	1864.097623327332	3
0	10054	1865.813231011937	4
0	10057	1870.571907921648	3
0	10063	1871.458039382696	4
0	10064	1871.479095077484	3
0	10070	1874.047993083231	4
0	10072	1874.379922769626	5
0	10077	1874.870583878143	4
0	10081	1875.659307882779	5
0	10087	1876.600019921976	6
0	10090	1878.267730238456	5
0	10096	1878.466438469199	6
0	10097	1878.847998533929	5
0	10103	1879.288857428683	4
0	10108	1879.452727501504	3
0	10113	1879.529160486033	2
0	10119	1879.639398007554	1
0	10124	1879.658249228873	0
0	10137	1881.151416918796	1
0	10138	1881.315079186223	0
0	10159	1883.297432182078	1
0	10163	1885.260831978738	0
0	10174	1886.688605336104	1
0	10176	1886.847014282763	2
0	10179	1888.303057281875	1
0	10184	1889.302652335512	0
0	10188	1889.368848991175	1
0	10200	1893.595517003433	2
0	10201	1894.203228889041	1
0	10206	1894.44186581311	0
0	10221	1896.261919613601	1
0	10224	1898.558220169198	0
0	10230	1898.714688392847	1
0	10234	1899.17457749605	2
0	10237	1899.809634062256	3
0	10238	1899.913478309217	2
0	10243	1900.672399874857	1
0	10248	1900.97428423517	0
0	10252	1901.36944413683	1
0	10254	1902.341748188578	2
0	10259	1904.037231597609	1
0	10263	1906.414242185348	2
0	10266	1907.893502314302	1
0	10270	1910.200606330051	2
0	10272	1911.871950235153	3
0	10277	1914.221890838536	2
0	10282	1916.119279834125	1
0	10286	1916.717993040721	2
0	10288	1917.78353887996	3
0	10293	1919.111235130049	2
0	10299	1920.983344166234	3
0	10304	1921.76368123528	4
0	10306	1921.867446983434	5
0	10307	1922.060203403443	4
0	10313	1922.214326822865	5
0	10314	1922.61516630794	4
0	10321	1926.836935099844	3
0	10326	1929.763464283914	2
0	10331	1931.819184242621	1
0	10339	1932.953321391985	0
0	10345	1933.161145425778	1
0	10346	1933.281208498779	0
0	10350	1933.519649445247	1
0	10354	1935.282812950347	2
0	10358	1936.144897098034	3
0	10360	1936.352610093807	4
0	10365	1940.529246602799	3
0	10371	1940.826084847501	4
0	10381	1942.367398280753	5
0	10382	1942.524059013889	4
0	10386	1942.558265545444	5
0	10390	1943.744715063047	4
0	10397	1944.403603715152	5
0	10401	1945.131334565499	6
0	10405	1946.245265234395	7
0	10407	1947.012665862903	6
0	10414	1947.318301573309	5
0	10420	1947.961722860834	6
0	10423	1948.726026913583	5
0	10430	1949.985832556291	4
0	10435	1950.387045502208	3
0	10439	1950.445927530101	4
0	10442	1951.918945663458	3
0	10448	1952.814776555324	4
0	10449	1953.255899321337	3
0	10455	1955.417814309629	4
0	10457	1955.50276614275	5
0	10460	1956.811745731194	4
0	10466	1957.550096876543	5
0	10467	1958.407125045755	4
0	10471	1958.900784277961	5
0	10473	1959.254669265922	6
0	10475	1959.64485324776	7
0	10480	1962.814830673701	6
0	10484	1963.14087149896	7
0	10486	1963.658369354994	8
0	10488	1964.066119847031	9
0	10490	1964.464949763631	10
0	10492	1964.489068532728	11
0	10496	1965.464064335211	12
0	10499	1968.128367135972	11
0	10503	1968.324834562195	12
0	10506	1969.958773428832	11
0	10512	1972.717273675871	12
0	10513	1973.152362415523	11
0	10518	1973.476815304635	10
0	10524	1974.942807911432	11
0	10531	1977.813701252674	10
0	10535	1977.860875109049	11
0	10537	1978.094742800626	12
0	10539	1978.552440144585	13
0	10542	1979.402330671182	12
0	10547	1981.056717577107	11
0	10556	1984.725507469564	10
0	10560	1985.350974822947	11
0	10563	1987.75011171617	10
0	10568	1988.352847779708	9
0	10576	1989.388478791876	10
0	10578	1989.714395123472	11
0	10579	1990.301393251073	10
0	10584	1991.231904564544	9
0	10588	1992.043895303451	10
0	10590	1993.563070601854	11
0	10592	1994.192954026064	12
0	10598	1996.460755544279	13
0	10605	1998.35299829968	14
0	10607	1998.909680527369	15
0	10611	2000.199384023697	14
0	10620	2000.745548750732	15
0	10622	2001.528123300066	16
0	10623	2002.186301500085	15
0	10628	2002.26039671854	14
0	10633	2002.348053870806	13
0	10641	2004.089058192274	14
0	10643	2004.5111715647	15
0	10644	2004.727537666523	14
0	10650	2005.475659897262	15
0	10653	2007.500779012755	14
0	10657	2008.031167286677	15
0	10660	2008.2962247386	14
0	10664	2010.540148099564	15
0	10667	2010.851611117723	14
0	10671	2011.556554492614	15
0	10674	2012.668453089744	14
0	10678	2013.836973269386	15
0	10685	2015.569802820043	16
0	10688	2015.862048355031	15
0	10696	2017.201438088711	14
0	10701	2017.558628673679	13
0	10706	2017.938960284245	12
0	10712	2017.946792994418	13
0	10718	2019.35806098244	14
0	10719	2019.5567917641	13
0	10726	2022.749350084364	12
0	10733	2024.537819102303	13
0	10734	2024.786384597578	12
0	10741	2024.919859798854	13
0	10744	2025.675313238967	14
0	10745	2025.858832734272	13
0	10751	2026.557781046993	14
0	10753	2026.64440836057	15
0	10754	2026.813153465504	14
0	10760	2027.371315102592	15
0	10762	2027.914297279429	16
0	10763	2028.294566394139	15
0	10773	2029.737073227322	14
0	10779	2030.744960175501	13
0	10785	2030.993491901483	14
0	10786	2031.410120933011	13
0	10793	2032.611241785582	12
0	10799	2032.70347140778	13
0	10801	2032.740909381772	14
0	10802	2032.834369396331	13
0	10806	2033.218199272002	14
0	10810	2034.779963060486	13
0	10816	2035.119691563562	14
0	10817	2036.806607469336	13
0	10822	2039.212675137933	12
0	10828	2040.941195168359	13
0	10829	2041.009752859926	12
0	10833	2041.282626308628	13
0	10835	2041.604862063625	14
0	10840	2042.462804055604	13
0	10848	2047.213849311805	12
0	10855	2047.518921000004	11
0	10860	2050.885863626919	10
0	10865	2051.016248471255	9
0	10870	2051.586883429592	8
0	10879	2052.946526344775	9
0	10881	2052.952828681394	10
0	10883	2053.057393234593	11
0	10884	2055.308085802365	10
0	10893	2056.079548048626	9
0	10899	2056.940061694404	10
0	10900	2056.994202401897	9
0	10906	2060.368867108434	8
0	10913	2060.854373486858	7
0	10917	2061.115239849746	8
0	10924	2061.707777896462	7
0	10930	2062.098588297614	8
0	10935	2063.339767174026	7
0	10940	2063.697606954635	6
0	10945	2063.708438305248	5
0	10950	2063.731701730134	4
0	10957	2066.271468388497	5
0	10959	2066.855807906787	4
0	10964	2067.420930380781	3
0	10969	2067.461814592467	2
0	10975	2068.390454818582	1
0	10983	2069.582246832889	2
0	10984	2069.909566678568	1
0	10988	2072.756241161776	2
0	10992	2073.095631716883	3
0	10993	2073.524171404029	2
0	10997	2074.586098940593	3
0	10999	2075.773151781997	4
0	11006	2076.800234371195	5
0	11008	2077.501774268135	4
0	11013	2077.51767983326	3
0	11018	2078.137733293184	2
0	11024	2079.768097674069	1
0	11029	2080.47507035471	0
0	11033	2080.979084234328	1
0	11036	2082.63030071738	0
0	11058	2085.541137317016	1
0	11061	2085.810269397325	0
0	11067	2085.958874486183	1
0	11073	2086.611883596	2
0	11074	2086.728537471679	1
0	11081	2087.478168047908	2
0	11082	2087.667664485303	1
0	11087	2088.242894069499	0
0	11098	2088.435429702666	1
0	11099	2089.292005132822	0
0	11103	2089.383227682782	1
0	11108	2090.350636218501	0
0	11112	2090.844928701855	1
0	11115	2091.271477892302	0
0	11127	2092.406164706273	1
0	11131	2093.659410409633	2
0	11132	2094.332126237157	1
0	11138	2094.640070286101	2
0	11139	2094.734283386064	1
0	11146	2095.454751035964	2
0	11151	2097.46236170085	3
0	11153	2097.777410677166	4
0	11154	2097.82106739319	3
0	11159	2098.308317477224	2
0	11164	2098.375563625539	1
0	11169	2099.350645792562	0
0	11177	2101.520205984278	1
0	11179	2101.995533753587	2
0	11181	2102.807387551403	3
0	11182	2102.981646826228	2
0	11187	2104.863169411692	1
0	11194	2106.627911197255	0
0	11229	2108.998716897403	1
0	11231	2109.283603756457	0
0	11242	2110.144770023043	1
0	11245	2112.0270595087	0
0	11285	2117.341548835925	1
0	11287	2117.865306616841	2
0	11288	2119.899020601191	1
0	11295	2120.283942336987	2
0	11298	2121.333665467702	1
0	11303	2122.048008801736	0
0	11323	2123.439993416147	1
0	11324	2123.753899853729	0
0	11331	2124.127286970083	1
0	11333	2124.713711247303	0
0	11350	2127.942550600412	1
0	11352	2128.384394401225	2
0	11354	2128.645534653348	3
0	11358	2129.91052448048	2
0	11365	2131.033730502816	3
0	11366	2131.313811545868	2
0	11371	2131.998316083993	1
0	11377	2132.709980868736	0
0	11399	2134.001194196899	1
0	11409	2137.608020831693	2
0	11415	2138.603916631695	3
0	11417	2138.714603067554	4
0	11418	2139.127296795031	3
0	11425	2139.282574801785	4
0	11427	2140.197380081588	3
0	11432	2140.572318984924	2
0	11437	2140.808295210979	1
0	11442	2141.035324224649	0
0	11448	2141.648077042334	1
0	11452	2143.949033822192	2
0	11457	2144.257152940512	1
0	11463	2144.469035123822	0
0	11467	2146.504894175205	1
0	11471	2146.677676939137	2
0	11474	2148.762741753259	1
0	11482	2148.984409606014	0
0	11496	2149.698227827361	1
0	11497	2149.839362808606	0
0	11513	2150.462498646378	1
0	11519	2151.852289252393	2
0	11520	2152.031887696215	1
0	11527	2153.345782004889	0
0	11550	2154.07871943486	1
0	11551	2154.509275883801	0
0	11561	2154.947290640364	1
0	11562	2155.465404267426	0
0	11574	2156.391447122058	1
0	11578	2157.765903670297	0
0	11584	2157.785497805207	1
0	11586	2158.193786998482	2
0	11588	2159.141308751928	1
0	11595	2159.664951727538	0
0	11606	2160.133277526703	1
0	11608	2161.539948370823	0
0	11614	2162.0136196028	1
0	11615	2162.508202206556	0
0	11625	2163.761236679653	1
0	11626	2163.921307038539	0
0	11630	2165.023116706102	1
0	11636	2166.058830796941	0
0	11649	2166.844431743173	1
0	11652	2167.032054760839	2
0	11654	2167.688866865745	1
0	11660	2167.923275533673	0
0	11664	2169.277132621598	1
0	11667	2169.742308530702	0
0	11671	2169.866048302308	1
0	11675	2171.655088527377	0
0	11705	2174.690654568233	1
0	11709	2175.568578856004	2
0	11713	2176.215320508483	3
0	11714	2176.218325842201	2
0	11720	2176.566414345288	3
0	11721	2178.388888705401	2
0	11727	2178.576797340848	3
0	11731	2179.600502476291	2
0	11737	2180.134849622021	3
0	11739	2180.638772137389	2
0	11747	2181.645639737801	3
0	11752	2182.935297564022	2
0	11758	2183.048110708156	3
0	11759	2183.614402562821	2
0	11765	2183.740418096128	3
0	11767	2183.980718446031	2
0	11773	2184.806841382967	1
0	11779	2188.74650142827	0
0	11809	2193.498830123782	1
0	11811	2194.098104423847	2
0	11812	2194.599384590651	1
0	11819	2195.186936771009	2
0	11820	2195.22902201857	1
0	11829	2196.758499201444	0
0	11860	2199.869526553247	1
0	11862	2199.947781479535	0
0	11876	2201.776844055245	1
0	11877	2203.037122950453	0
0	11895	2206.235061963083	1
0	11899	2206.334640182115	2
0	11902	2206.984194347023	1
0	11907	2207.08074318256	0
0	11918	2207.645054208595	1
0	11927	2210.953473774986	2
0	11929	2211.584464125678	3
0	11930	2212.675987468443	2
0	11936	2213.187680977108	1
0	11942	2213.307690247741	2
0	11944	2213.576764448106	1
0	11951	2214.67992288854	0
0	11968	2216.172875842808	1
0	11970	2216.912088321313	2
0	11972	2217.061048638467	3
0	11975	2218.25636681447	2
0	11980	2219.615410810794	1
0	11986	2220.33119558746	0
0	11998	2222.266776418605	1
0	11999	2222.793502928284	0
0	12006	2222.872723693949	1
0	12007	2223.384730471617	0
0	12021	2225.972658658075	1
0	12025	2227.071413759818	2
0	12028	2228.211867864856	3
0	12030	2230.448017405323	4
0	12031	2230.792520414073	3
0	12036	2230.990171152363	2
0	12045	2232.661339647531	1
0	12050	2233.041651185155	0
0	12064	2233.938196825488	1
0	12066	2234.968731608271	2
0	12067	2235.205701967655	1
0	12073	2235.435610941108	2
0	12074	2236.468986698946	1
0	12082	2238.099226355112	2
0	12084	2238.475278245369	1
0	12090	2238.986198462854	2
0	12094	2239.716156264814	3
0	12096	2239.830776296693	4
0	12099	2241.185248943698	3
0	12108	2242.465313686682	2
0	12113	2242.823927845134	1
0	12118	2243.433940457394	0
0	12122	2243.651777249636	1
0	12126	2243.894493272836	2
0	12129	2245.666859730059	1
0	12135	2246.730046912398	2
0	12136	2247.393141260893	1
0	12141	2249.639152837009	0
0	12145	2249.755654180535	1
0	12147	2250.691491908225	2
0	12150	2251.644852164526	1
0	12154	2251.788529702824	2
0	12160	2252.993553825627	1
0	12166	2254.434889508884	0
0	12192	2260.254182795767	1
0	12193	2260.543980167642	0
0	12224	2263.314599868718	1
0	12225	2263.714252505319	0
0	12234	2264.370609313824	1
0	12241	2267.096134982718	2
0	12243	2267.4659361021	1
0	12248	2267.589180191416	0
0	12258	2270.533130694762	1
0	12260	2271.342679257666	2
0	12261	2271.413124176084	1
0	12266	2271.92642816814	0
0	12287	2273.408140644175	1
0	12295	2274.581838907512	0
0	12308	2276.073260943535	1
0	12309	2276.145053153349	0
0	12342	2278.068624170362	1
0	12343	2280.320122066937	0
0	12349	2280.453901647937	1
0	12351	2280.536943546383	2
0	12352	2280.798222267335	1
0	12362	2281.705680673463	0
0	12369	2281.940519182587	1
0	12371	2283.247000080306	0
0	12378	2284.221894286726	1
0	12380	2284.251271390512	2
0	12381	2285.816867016272	1
0	12388	2288.46829853849	0
0	12407	2291.088514894274	1
0	12409	2291.910901530527	0
0	12432	2293.825898671781	1
0	12433	2294.501248946317	0
0	12458	2296.216678938086	1
0	12461	2296.721273004726	0
0	12489	2303.071079606313	1
0	12492	2303.490880805368	0
0	12498	2304.027076698914	1
0	12501	2304.770182095853	2
0	12508	2305.850842515191	1
0	12513	2305.945097875752	0
0	12520	2307.079859110098	1
0	12521	2307.54922874312	0
0	12585	2317.888687199036	1
0	12588	2318.151680740641	0
0	12597	2320.019751549438	1
0	12599	2321.499737803195	2
0	12601	2321.657869090944	3
0	12606	2322.489785284011	2
0	12612	2323.670590643086	1
0	12619	2324.106241436933	0
0	12631	2324.61573688055	1
0	12633	2325.243540594712	2
0	12634	2325.519991138476	1
0	12642	2326.555429753414	2
0	12647	2326.954937984122	1
0	12652	2327.751295881899	0
0	12669	2331.78366513162	1
0	12670	2331.818351696252	0
0	12715	2339.864352980027	1
0	12717	2340.869555137281	2
0	12718	2341.134665366416	1
0	12725	2342.820771304489	0
0	12741	2343.978656472281	1
0	12743	2344.303792163921	0
0	12751	2344.903481095011	1
0	12754	2345.093897483072	2
0	12755	2346.274344659848	1
0	12761	2346.68509425617	2
0	12762	2348.105439132109	1
0	12767	2348.509895504688	0
0	12799	2351.404151971059	1
0	12801	2351.529631229223	2
0	12802	2351.721211262603	1
0	12807	2351.851683065272	0
0	12821	2353.532536236594	1
0	12822	2355.045716563985	0
0	12828	2355.656992390021	1
0	12830	2355.978587912652	0
0	12842	2356.324340472372	1
0	12843	2356.369654332322	0
0	12872	2363.911877394079	1
0	12874	2363.989309921025	2
0	12875	2365.633239102831	1
0	12880	2365.747335851241	0
0	12886	2367.087569332845	1
0	12890	2367.95854632427	2
0	12891	2368.220826796793	1
0	12898	2369.728860367559	0
0	12905	2370.303656595391	1
0	12908	2371.05044568953	0
0	12956	2379.045874504521	1
0	12960	2380.832072790017	0
0	12966	2380.876303506834	1
0	12968	2380.915756301834	2
0	12970	2381.067152101926	3
0	12972	2381.155915680914	4
0	12973	2381.721164078937	3
0	12979	2381.85506024932	4
0	12981	2382.324420500454	5
0	12982	2382.3328375797	4
0	12992	2384.496581953805	5
0	12996	2386.599320721781	4
0	13001	2386.989631357326	3
0	13010	2389.839391008727	2
0	13016	2390.941142541531	3
0	13017	2391.91996894759	2
0	13022	2393.221530950779	1
0	13027	2395.577295563664	0
0	13045	2399.3704440883	1
0	13046	2399.844747159308	0
0	13095	2406.727918818362	1
0	13097	2406.751983552397	2
0	13100	2408.084700636701	1
0	13106	2408.546906998026	0
0	13120	2410.910642866362	1
0	13124	2412.613769313501	2
0	13126	2412.648736314294	3
0	13128	2413.02250527809	4
0	13131	2414.625859149913	3
0	13138	2414.767072035055	4
0	13141	2415.320998298707	5
0	13144	2416.221741423086	4
0	13150	2416.240533283513	5
0	13152	2418.188078059515	4
0	13157	2419.099713040254	3
0	13163	2420.191515992403	2
0	13168	2420.62312106946	1
0	13175	2422.815135031029	0
0	13203	2425.243914556944	1
0	13204	2425.266324224039	0
0	13221	2428.150220758559	1
0	13222	2428.496885690373	0
0	13241	2431.955905557557	1
0	13243	2432.658067738205	2
0	13249	2437.037247683681	3
0	13251	2437.945428912854	4
0	13253	2439.280286105373	5
0	13257	2439.766041659048	6
0	13258	2439.845964825111	5
0	13263	2440.184085544047	4
0	13269	2440.191808717784	5
0	13270	2440.522451370485	4
0	13276	2440.649099712958	5
0	13278	2440.897614821537	4
0	13285	2441.702112669536	3
0	13289	2442.221739716874	4
0	13292	2443.48134561488	3
0	13297	2443.75570912278	2
0	13303	2445.406390440625	1
0	13309	2445.762919743454	2
0	13312	2446.113836323451	1
0	13316	2446.398941784143	2
0	13319	2446.913152771396	1
0	13325	2448.526694810272	2
0	13326	2448.856698419255	1
0	13334	2451.048844543641	2
0	13336	2451.127923486297	3
0	13338	2451.526913231593	2
0	13342	2451.747424460906	3
0	13345	2452.221511053529	2
0	13352	2453.038918813367	1
0	13360	2455.274206111954	2
0	13361	2455.770468171468	1
0	13367	2457.577323817972	2
0	13369	2457.654463572306	3
0	13371	2458.141688472488	4
0	13376	2460.269118562892	3
0	13381	2461.234902097437	2
0	13385	2461.431840247205	3
0	13390	2465.154033806472	2
0	13401	2468.54699729423	1
0	13407	2468.751654708065	2
0	13410	2469.910684929279	1
0	13414	2470.288106150425	2
0	13417	2470.680210529439	1
0	13421	2471.197684653036	2
0	13425	2472.300578541571	3
0	13428	2472.555346533542	2
0	13432	2473.056945830993	3
0	13435	2473.44158348751	2
0	13442	2475.171992062647	1
0	13446	2475.452557304041	2
0	13452	2476.756839307148	3
0	13453	2477.002266100344	2
0	13457	2480.351012740035	3
0	13459	2480.884450800338	4
0	13462	2481.222122834626	3
0	13466	2481.234786533187	4
0	13470	2482.51729228118	5
0	13475	2485.577402436708	4
0	13479	2486.588667435114	5
0	13482	2487.110367533979	4
0	13488	2487.576417763147	3
0	13493	2487.695489285631	2
0	13500	2488.730520892916	1
0	13511	2494.68660339081	0
0	13517	2496.028456443151	1
0	13518	2496.092922555047	0
0	13547	2499.980212921337	1
0	13551	2501.442787864039	2
0	13553	2502.295140090372	3
0	13557	2504.167774398056	4
0	13559	2504.65280929057	5
0	13563	2505.669769599334	6
0	13568	2506.148222268544	7
0	13569	2507.647458504157	6
0	13574	2508.019920867963	5
0	13579	2508.430542578028	4
0	13589	2510.287313763605	3
0	13594	2511.680905442971	2
0	13600	2511.946500178295	3
0	13601	2512.620727680228	2
0	13605	2512.775324865101	3
0	13607	2514.113332831164	4
0	13610	2514.867369458295	3
0	13616	2515.493127581753	4
0	13617	2515.712687340192	3
0	13621	2516.143977320142	4
0	13623	2517.701543559892	5
0	13625	2518.595527050977	6
0	13627	2518.895017726577	7
0	13632	2519.994846110513	6
0	13638	2520.246784868918	7
0	13639	2520.356908512428	6
0	13647	2520.487054912417	7
0	13651	2522.683529345808	8
0	13653	2522.75980191868	9
0	13654	2522.95742184801	8
0	13658	2523.420275322273	9
0	13666	2527.765489805226	10
0	13667	2528.540701186615	9
0	13673	2528.677014799846	10
0	13675	2529.128111122154	11
0	13677	2530.478964596594	10
0	13685	2531.074662564404	11
0	13686	2531.178747607631	10
0	13691	2531.33174476178	9
0	13695	2531.340655935536	10
0	13697	2531.931335616837	11
0	13699	2531.98841422352	12
0	13706	2533.204933517756	11
0	13711	2534.429271517611	10
0	13718	2535.198802733174	9
0	13722	2535.203084255807	10
0	13725	2536.374134601862	9
0	13741	2539.451761546179	10
0	13745	2539.853118740106	11
0	13746	2540.174877078608	10
0	13752	2540.351014007167	11
0	13754	2540.895460281702	10
0	13760	2541.220274629303	11
0	13761	2541.78606243985	10
0	13766	2542.233187649225	9
0	13772	2543.673008580052	10
0	13773	2545.380199984942	9
0	13779	2547.030484035863	10
0	13782	2548.36058146178	9
0	13787	2548.96258661039	8
0	13792	2549.240773314596	7
0	13796	2549.356018406271	8
0	13800	2549.976039027956	9
0	13801	2551.525675859785	8
0	13807	2552.21022893296	7
0	13817	2553.824761693796	6
0	13822	2553.91831877543	5
0	13826	2554.24922296107	6
0	13828	2554.477409582355	7
0	13830	2555.206064700026	8
0	13832	2555.649801538979	9
0	13840	2559.084428416754	8
0	13846	2559.282918936654	9
0	13849	2559.695695501714	10
0	13851	2560.189507639196	11
0	13853	2560.275560434047	12
0	13856	2561.088793197634	11
0	13861	2561.433647787075	10
0	13867	2561.500209704157	9
0	13873	2562.022008560824	10
0	13875	2562.02816991948	11
0	13876	2562.449634289797	10
0	13881	2562.529834894195	9
0	13887	2563.251061697705	10
0	13889	2563.864840560201	11
0	13890	2565.847498714991	10
0	13898	2566.443352275015	9
0	13904	2566.446295960944	10
0	13905	2566.690508799625	9
0	13912	2568.398305297016	10
0	13914	2569.157531601535	11
0	13915	2569.696358536875	10
0	13921	2570.050417627732	9
0	13926	2570.13990257943	8
0	13930	2570.275716137848	9
0	13932	2571.490553626433	10
0	13936	2572.25971327989	11
0	13938	2573.563257126098	12
0	13939	2573.821360867762	11
0	13943	2574.986130534622	12
0	13947	2576.185865994204	11
0	13952	2577.396758326531	10
0	13956	2577.402749011981	11
0	13960	2579.632241334338	12
0	13961	2580.102968024757	11
0	13965	2580.437906892221	12
0	13970	2581.34144825233	11
0	13980	2583.62859771951	12
0	13981	2583.73308328337	11
0	13986	2583.987254067025	10
0	13991	2584.574841967922	9
0	13997	2585.392514776103	10
0	13999	2586.042710097123	11
0	14000	2586.566680854406	10
0	14004	2587.011598775298	11
0	14011	2588.735148156144	10
0	14017	2589.670836964055	11
0	14018	2589.826386476989	10
0	14023	2589.925112601846	9
0	14028	2590.245821524388	8
0	14034	2591.747216193315	9
0	14037	2592.359284777878	8
0	14041	2593.998553118487	9
0	14050	2595.284726101578	10
0	14051	2596.682007850677	9
0	14058	2597.271737534453	8
0	14062	2597.705394927389	9
0	14068	2599.737187912606	8
0	14073	2599.845384120493	7
0	14078	2601.203447357377	6
0	14085	2601.841612309076	5
0	14094	2606.434261998266	6
0	14095	2606.655481172415	5
0	14100	2606.76673376409	4
0	14104	2608.487958488874	5
0	14106	2608.698716777268	6
0	14109	2609.673856439632	5
0	14121	2612.542341998996	6
0	14123	2614.285902719879	7
0	14124	2614.423751553234	6
0	14131	2616.884781523206	5
0	14136	2617.612866700791	4
0	14141	2617.690273793629	3
0	14150	2617.889290953984	2
0	14155	2618.030295469526	1
0	14162	2618.698745821307	0
0	14166	2619.248640256581	1
0	14168	2619.643999913853	2
0	14172	2619.713797629564	3
0	14173	2619.860893653411	2
0	14177	2621.762762418901	3
0	14183	2623.21824766082	2
0	14189	2623.720969643945	3
0	14193	2625.264158513465	2
0	14200	2626.044917260136	3
0	14204	2627.880772004965	4
0	14205	2628.146566454505	3
0	14212	2628.975316664943	4
0	14213	2629.124113688028	3
0	14220	2629.625496821635	4
0	14221	2629.646839969681	3
0	14227	2631.35852253637	2
0	14234	2631.543670677763	3
0	14235	2631.820238591057	2
0	14241	2631.912263264397	3
0	14242	2632.124010398583	2
0	14247	2632.548437955583	1
0	14254	2632.761512720173	2
0	14255	2632.916716029397	1
0	14262	2634.586625299204	0
0	14284	2636.158346875444	1
0	14286	2636.99745334271	2
0	14288	2637.374290233518	3
0	14289	2637.569261557117	2
0	14294	2637.994556976186	1
0	14299	2638.49570412981	0
0	14308	2642.415635111964	1
0	14310	2642.619148371452	0
0	14334	2645.097732581108	1
0	14338	2646.639247721242	2
0	14341	2647.700945269778	1
0	14352	2654.183927386027	0
0	14372	2656.119300240992	1
0	14377	2659.11050853511	0
0	14381	2659.64446794748	1
0	14383	2660.013558833271	2
0	14387	2661.594634967266	3
0	14390	2662.164636132925	2
0	14396	2662.722293250676	3
0	14398	2663.14093106485	4
0	14400	2663.654894666896	5
0	14405	2664.623119328341	4
0	14415	2666.733966617392	5
0	14416	2666.871744061568	4
0	14425	2668.557814242969	3
0	14431	2669.020896366619	4
0	14435	2671.036663684517	3
0	14439	2672.138134501824	4
0	14444	2672.717825754778	3
0	14450	2672.964650090929	4
0	14451	2673.328366934982	3
0	14456	2673.834267887526	2
0	14463	2674.848646129062	1
0	14468	2676.642271247656	0
0	14480	2677.810169983732	1
0	14482	2678.905673718003	0
0	14527	2684.931886551269	1
0	14531	2685.504947143657	0
0	14557	2688.779580562543	1
0	14559	2689.928565320964	0
0	14566	2690.336293447865	1
0	14567	2690.725362341822	0
0	14578	2691.598820542706	1
0	14579	2691.651194959161	0
0	14588	2692.015806376132	1
0	14590	2692.58380155833	0
0	14614	2694.815065995788	1
0	14621	2695.649441938621	0
0	14625	2697.811369940177	1
0	14627	2698.464008158596	2
0	14637	2703.988309385862	1
0	14642	2704.157674509052	0
0	14666	2706.864916300345	1
0	14668	2707.041460974604	2
0	14669	2708.522396279493	1
0	14674	2708.784074035407	0
0	14680	2709.411886661454	1
0	14681	2710.56629684581	0
0	14690	2712.080058490446	1
0	14695	2714.420705530703	0
0	14709	2714.93752443021	1
0	14711	2716.479965390484	2
0	14722	2718.990201181926	3
0	14724	2719.287764635244	4
0	14727	2719.564381568235	3
0	14734	2720.290354399924	4
0	14735	2720.333085543292	3
0	14742	2721.448801710454	2
0	14747	2721.952867788946	1
0	14754	2722.70264302042	0
0	14786	2726.740693283494	1
0	14790	2728.710414130648	0
0	14801	2730.606097380376	1
0	14803	2730.709964547203	2
0	14805	2730.808967096722	3
0	14806	2730.886302727621	2
0	14812	2731.055313666471	1
0	14818	2731.483073804389	0
0	14837	2734.53049504053	1
0	14838	2734.602689540478	0
0	14845	2734.883119836192	1
0	14851	2737.160437664577	2
0	14852	2737.2209618439	1
0	14857	2739.489662901343	0
0	14863	2740.481444535041	1
0	14867	2741.340175011633	2
0	14869	2742.149099527811	3
0	14874	2744.057082955786	2
0	14879	2744.785342332801	1
0	14884	2746.281772393555	0
0	14888	2746.578221472597	1
0	14893	2748.221398666503	0
0	14905	2749.144752310347	1
0	14906	2751.988346720746	0
0	14910	2752.466892817844	1
0	14914	2754.553464801823	2
0	14916	2754.856073442558	1
0	14921	2755.154954135507	0
0	14925	2755.204206998507	1
0	14929	2756.268841195912	0
0	14946	2757.797792986542	1
0	14947	2758.474011731635	0
0	14951	2759.096896096907	1
0	14955	2759.69807021289	0
0	14972	2762.144006952183	1
0	14977	2763.242716888499	2
0	14979	2764.111497008053	1
0	14984	2764.799333188686	0
0	14990	2765.256020047619	1
0	14993	2766.682013168646	0
0	14999	2766.785231052755	1
0	15001	2767.747182504962	2
0	15007	2769.082750282316	3
0	15008	2769.222093964713	2
0	15012	2770.28012570378	3
0	15014	2770.67132182409	4
0	15020	2771.582654828961	3
0	15025	2772.256007023999	2
0	15031	2773.198291111495	1
0	15036	2773.278556489464	0
0	15040	2773.660805219513	1
0	15042	2774.975980956457	2
0	15044	2775.38901438129	3
0	15050	2777.282849963777	4
0	15052	2778.841598802817	3
0	15060	2779.736211780919	4
0	15061	2780.004019243974	3
0	15065	2780.976307009099	4
0	15067	2781.686042540883	5
0	15070	2783.218161606299	4
0	15075	2784.341037137146	3
0	15081	2785.545321275385	4
0	15083	2785.627236919187	5
0	15084	2785.843355657051	4
0	15088	2786.103621231622	5
0	15091	2787.936007441787	4
0	15097	2788.062212315982	3
0	15102	2788.094752004015	2
0	15107	2789.663626664419	1
0	15114	2791.965198091038	0
0	15137	2794.544778427726	1
0	15141	2795.446634697199	2
0	15142	2795.617813688848	1
0	15147	2795.701392609283	0
0	15184	2801.767953959076	1
0	15185	2802.800647854396	0
0	15202	2806.887828621839	1
0	15204	2809.169857893446	2
0	15206	2809.209901512046	3
0	15210	2810.389929438123	4
0	15211	2810.960415144676	3
0	15216	2811.553885448491	2
0	15222	2812.073028739867	3
0	15223	2812.124827543983	2
0	15228	2812.294500689771	1
0	15232	2812.641835795913	2
0	15234	2813.606497580405	3
0	15237	2813.706690236289	2
0	15243	2814.487396187283	3
0	15245	2814.713153623272	4
0	15248	2815.855674307363	3
0	15252	2816.00028523378	4
0	15254	2816.233728191772	5
0	15259	2817.689814938211	4
0	15265	2818.403176885375	5
0	15270	2819.727342758575	6
0	15271	2819.75135625791	5
0	15277	2820.534298444124	4
0	15282	2821.234935607023	3
0	15286	2821.362745997427	4
0	15290	2821.876339385876	3
0	15296	2822.108323511002	4
0	15297	2822.741193073646	3
0	15302	2824.177353924337	2
0	15307	2824.655902771473	1
0	15314	2826.093999305422	0
0	15318	2828.347844950879	1
0	15326	2831.908524718367	2
0	15327	2832.088418996741	1
0	15332	2832.719446705806	0
0	15336	2833.051828986511	1
0	15343	2835.99117198409	2
0	15344	2837.351445043104	1
0	15350	2837.404585931843	2
0	15352	2839.091563430493	1
0	15358	2839.276977168507	2
0	15359	2839.399096788381	1
0	15364	2844.802357026376	0
0	15368	2844.945342954055	1
0	15371	2845.104479650857	0
0	15375	2845.200956807372	1
0	15379	2845.766291042974	2
0	15382	2846.479918886376	1
0	15388	2848.280855103085	0
0	15433	2853.320633737848	1
0	15438	2854.016068030958	0
0	15444	2854.046092084074	1
0	15446	2854.211930132506	0
0	15464	2855.421066735424	1
0	15465	2856.009042703545	0
0	15484	2859.153826806404	1
0	15486	2859.481610341997	2
0	15490	2860.543149506852	3
0	15492	2861.058123439265	4
0	15493	2861.667831706462	3
0	15500	2861.841727070472	2
0	15508	2862.896585051131	1
0	15517	2863.795532948461	0
0	15523	2864.050203111114	1
0	15524	2865.660874473426	0
0	15553	2867.70433135937	1
0	15556	2868.154994704777	0
0	15560	2870.072503392443	1
0	15566	2871.070929643614	0
0	15627	2879.350268137695	1
0	15629	2879.488567904851	2
0	15631	2879.584936357667	3
0	15632	2880.394845324912	2
0	15637	2880.609179636563	1
0	15643	2881.763162355984	0
0	15650	2883.187600102901	1
0	15651	2883.481814503513	0
0	15662	2885.68999505318	1
0	15663	2885.709016158802	0
0	15669	2886.539689372121	1
0	15671	2886.738729196224	2
0	15673	2888.422923630261	3
0	15677	2890.15218073359	2
0	15682	2891.197278687663	1
0	15686	2891.368897298962	2
0	15688	2892.519390500343	3
0	15693	2895.058331793343	2
0	15697	2895.788617871481	3
0	15699	2896.834640484898	4
0	15703	2898.031562299882	5
0	15706	2898.529055817311	6
0	15707	2898.837141703535	5
0	15713	2900.492583881961	6
0	15715	2901.127668128471	7
0	15718	2903.047924566224	6
0	15722	2903.197695752633	7
0	15726	2903.58788995771	8
0	15730	2904.68125583513	9
0	15732	2905.346583370754	10
0	15735	2908.968775792708	9
0	15743	2910.99777755756	10
0	15745	2911.500513139019	11
0	15747	2912.914116152359	12
0	15751	2915.053589063654	13
0	15752	2915.73016809522	12
0	15756	2916.739283548254	13
0	15759	2917.026910815226	12
0	15766	2917.74459264608	11
0	15771	2917.955793694795	10
0	15776	2918.598614106412	9
0	15780	2919.163815693202	10
0	15785	2920.185907799018	9
0	15790	2920.810616402455	8
0	15795	2921.180907924499	7
0	15800	2921.900826109924	6
0	15804	2921.977588878254	7
0	15809	2924.18833387967	6
0	15814	2924.419981983776	5
0	15821	2924.827081123541	4
0	15825	2925.488698482306	5
0	15829	2926.992922097097	6
0	15830	2927.602675125601	5
0	15837	2932.15733936496	4
0	15841	2932.809611009996	5
0	15843	2933.310488161218	6
0	15845	2933.324993640626	7
0	15847	2933.62112006285	8
0	15853	2934.693022211685	7
0	15859	2934.701431831233	8
0	15862	2935.510163191115	7
0	15866	2936.163930257355	8
0	15871	2937.534823621295	7
0	15876	2939.64231116432	6
0	15881	2939.793162714663	5
0	15885	2940.190087330616	6
0	15887	2940.493880931472	7
0	15891	2941.982611760351	8
0	15892	2942.367473013139	7
0	15896	2944.121810062131	8
0	15898	2945.079971693842	9
0	15900	2945.774428843418	10
0	15907	2946.614805070909	11
0	15909	2948.487595573451	12
0	15910	2950.544210967563	11
0	15917	2951.536214377455	12
0	15918	2952.538270691312	11
0	15925	2953.243217325286	12
0	15928	2953.899133392451	13
0	15929	2954.330108488943	12
0	15935	2954.358452794368	13
0	15937	2954.360831195138	14
0	15938	2954.66957792249	13
0	15943	2955.325284966076	12
0	15948	2956.290679526752	11
0	15953	2956.48302975329	10
0	15960	2957.40865148819	9
[...]
5	149580	27365.197274354954	2298.0846500408
5	149591	27367.151080205287	2296.9943089488
5	149611	27371.162320811099	2300.855472004
5	149616	27372.893297662003	2301.1960372047
5	149636	27377.027318499256	2298.2992338096
5	149666	27381.047699250319	2301.4983049369
5	149671	27381.204163298271	2299.4823643355
5	149697	27386.184411869552	2292.918670259
5	149745	27392.371812139564	2296.6423838245
5	149759	27393.62754874209	2297.2890381303
5	149778	27395.274816671011	2298.1853758778
5	149792	27401.090162287834	2303.1629189158
5	149803	27401.382985208122	2302.6153795331
5	149808	27401.420574112415	2298.5028713972
5	149813	27402.233150687572	2297.7226991543
5	149829	27406.396618582946	2299.6506387276
5	149870	27411.854329261862	2304.5476076329
5	149875	27411.886552142452	2303.5094262991
5	149880	27412.603556691133	2302.9909845554
5	149896	27415.508501646339	2290.6530137245
5	149975	27427.321800592518	2301.0746902881
5	149995	27432.715348581234	2297.0409023075
5	150000	27432.797628364888	2294.3738793268
5	150009	27434.533519758304	2294.2248963483
5	150020	27435.372385019538	2294.4697911752
5	150027	27436.908482603048	2292.5300052652
5	150032	27436.941778349896	2288.7282669047
5	150037	27437.468790214708	2279.9222315917
5	150044	27437.926406219591	2279.6915636548
5	150053	27441.117509971778	2282.4943210561
5	150081	27444.369907511092	2280.992240678
5	150092	27446.210894326933	2275.0005941369
5	150099	27449.3301422437	2274.0704741336
5	150189	27463.712049155515	2286.5267708399
5	150197	27464.324344611496	2284.0522020539
5	150209	27465.250201443901	2282.9828688871
5	150214	27467.266144403872	2283.1238360897
5	150222	27469.549772052888	2276.4972797641
5	150234	27471.009718496707	2276.6190505213
5	150536	27525.183069076367	2325.6455657328
5	150543	27525.73729907358	2316.8481021596
5	150554	27527.218693561558	2314.0630576396
5	150559	27527.246278046552	2311.6606584522
5	150564	27527.739109187219	2311.4791373437
5	150577	27530.452418140465	2313.050271807
5	150628	27538.528139242047	2319.4186457872
5	150637	27539.391467443475	2320.1116231639
5	150656	27543.510199857562	2317.9556682292
5	150692	27554.152462469713	2327.7877418497
5	150840	27583.373910987547	2355.956502054
5	150850	27583.739460107158	2355.4488616044
5	150856	27585.262832911345	2356.7500245458
5	150861	27585.380421226207	2355.55361863
5	150869	27586.493771786611	2342.3142226884
5	150874	27586.843746445381	2337.11953114
5	150883	27589.474584487121	2334.47919191
5	150906	27592.454876105133	2336.3994654389
5	150921	27600.057958141801	2343.7409269472
5	150952	27610.924927245988	2354.1355491546
5	150984	27613.421722431587	2352.7799750525
5	151012	27617.854793680431	2351.8948176277
5	151022	27619.480308544143	2352.7949944229
5	151094	27631.16829833036	2364.468711811
5	151100	27632.646366156108	2360.3444450331
5	151105	27632.681330038233	2353.5839043309
5	151118	27637.585114571496	2343.6283486174
5	151227	27657.148672086742	2356.5294204389
5	151232	27657.589908605226	2353.8964891494
5	151242	27658.034390158113	2352.4422700546
5	151254	27659.433917058519	2352.5880182526
5	151333	27669.520320706878	2360.8232447873
5	151350	27674.851028848184	2360.575737207
5	151370	27675.799179995801	2350.6673437091
5	151380	27679.121063198927	2342.03010829
5	151391	27682.705357775944	2343.780419796
5	151407	27683.32848433054	2335.764729495
5	151426	27690.11354108635	2341.6310232932
5	151469	27697.086152855324	2342.1081620193
5	151480	27698.087306186565	2336.2276944689
5	151513	27702.327497217605	2336.6324545274
5	151526	27704.264611948612	2334.9758836545
5	151545	27706.446079189686	2316.4292280945
5	151691	27738.226052445553	2347.87915867
5	151703	27739.035501692713	2348.4715762456
5	151772	27752.391154106158	2350.9106714488
5	151777	27752.613719495382	2349.1275676126
5	151782	27753.243952567239	2345.9599988431
5	151799	27761.203304110093	2353.4548290196
5	152260	27856.442030281521	2435.4626510026
5	152265	27856.657419516483	2435.4424920437
5	152273	27857.098351733396	2427.621936113
5	152286	27859.080154164273	2427.7375341992
5	152291	27859.634942886938	2425.9071143654
5	152302	27862.039462058262	2427.5593618881
5	152318	27863.283403193533	2427.9833222594
5	152332	27866.523489007947	2428.3432301913
5	152339	27866.989523484139	2419.6082151967
5	152360	27871.49523401544	2422.782131362
5	152380	27874.071099422796	2425.3208099526
5	152391	27875.525675425849	2424.7746856866
5	152400	27875.946732662326	2424.4553642656
5	152438	27880.683577595348	2426.4307230726
5	152444	27881.536051352366	2424.7275000897
5	152449	27882.46880644803	2423.0447541765
5	152462	27884.548525791526	2419.0895407049
5	152515	27895.23196750805	2429.6964345718
5	152520	27895.362404860777	2428.7329421015
5	152530	27896.654738767065	2427.9100621214
5	152540	27897.531976715071	2428.1678654193
5	152918	27964.687943677589	2485.2854186992
5	153007	27989.198952953972	2505.5212246205
5	153020	27991.632423802536	2507.9292098316
5	153027	27992.975060440288	2509.1005377941
5	153045	27995.817424791766	2511.6122895013
5	153057	27996.208868690588	2510.7790251947
5	153068	27997.4525206833	2511.0555878258
5	153079	27998.337317060339	2503.7274629945
5	153089	27999.538196963374	2504.214759549
5	153098	28001.129032360476	2502.8081864566
5	153112	28002.816874153814	2500.3283916391
5	153117	28003.216609185894	2499.0212437827
5	153128	28005.481945720052	2500.7781504622
5	153157	28008.686057564161	2503.2473905083
5	153163	28009.192007940989	2500.4241784101
5	153173	28010.018661133028	2498.0094139412
5	153184	28011.143375214884	2498.3456865047
5	153189	28011.266886805148	2494.3055881429
5	153196	28012.259994975542	2490.9882945253
5	153206	28013.478809828169	2491.4290035801
5	153212	28014.75939540164	2491.9067794668
5	153222	28016.887589450908	2486.2001286891
5	153235	28017.79265747944	2484.6199657151
5	153246	28019.791428817494	2483.2219815235
5	153251	28019.827330305962	2467.9469270113
5	153258	28024.112841354991	2468.3253246856
5	153278	28025.988148986306	2468.5033683463
5	153287	28030.213263824541	2463.1344779663
5	153296	28033.496393615426	2465.932401022
5	153317	28038.416128803541	2470.0453200993
5	153324	28038.638585303042	2468.9672090683
5	153335	28040.248452717426	2461.8284904256
5	153369	28043.983299575539	2458.1096246105
5	153388	28045.638649938529	2453.1866066848
5	153409	28051.952996873722	2443.613968115
5	153420	28054.517558334476	2442.5836006963
5	153484	28073.405388069734	2460.6209463287
5	153503	28078.906488526914	2455.8430683033
5	153607	28098.875866710609	2473.2777364516
5	153612	28099.12189414845	2470.2428076454
5	153627	28101.732923044652	2471.6214359494
5	153660	28105.981664293561	2458.9014487108
5	153677	28109.375583135231	2455.3273548701
5	153687	28110.6795544888	2455.0681914898
5	154091	28189.733069758132	2522.6411966187
5	154113	28196.482834121133	2529.3875460893
5	154133	28198.436421481013	2529.8963032044
5	154141	28199.878348599959	2526.8109176222
5	154148	28200.407131833648	2525.0722218571
5	154158	28200.525225405068	2522.1057686585
5	154163	28200.696584525767	2521.2893128359
5	154176	28203.406159593868	2521.3401936004
5	154301	28229.389247802079	2537.8124563603
5	154346	28235.66797041927	2543.8286574895
5	154356	28236.179247597922	2542.3953233451
5	154362	28236.587067278169	2541.2768344637
5	154373	28237.675971610943	2540.3401460178
5	154423	28245.351133154258	2542.128778887
5	154431	28245.825092373847	2534.6400796167
5	154438	28246.58566597134	2525.3859592112
5	154445	28249.55091055896	2525.0416553785
5	154465	28251.202924220731	2522.9546451149
5	154476	28252.605031075474	2520.5196624164
5	154494	28255.933066109191	2501.5744377895
5	154515	28262.434212750225	2503.5990995831
5	154557	28269.100617418719	2510.1479659673
5	154623	28282.338338644049	2522.6472199172
5	154632	28285.018901189401	2517.7820708901
5	154642	28286.528010307584	2515.4880974749
5	154652	28287.070610089779	2512.7996492324
5	154665	28290.161204179251	2511.6871110948
5	154690	28292.643868586648	2512.6882476837
5	154696	28293.097593157855	2512.6020719869
5	154701	28293.876489143232	2509.674120137
5	154722	28297.615685323291	2509.1904599989
5	154870	28330.270403849953	2540.4406665794
5	154878	28330.791441308234	2540.9281095518
5	154888	28331.236090631494	2541.1094033118
5	154893	28331.383647283251	2540.9444357496
5	154902	28332.829594935261	2533.8862730789
5	154916	28334.81504395823	2532.0235703366
5	154925	28335.391031122246	2524.2253814815
5	154931	28335.847245616635	2521.5326419549
5	154937	28336.888881635281	2520.4363039597
5	154942	28338.03336225571	2520.9713179316
5	154947	28340.141674106875	2521.0241958465
5	154955	28342.04001057482	2521.4410309179
5	154970	28345.114504401442	2516.5305736955
5	154975	28345.835923851822	2504.8505010508
5	154982	28347.547530989537	2505.4654952592
5	155029	28355.742283102658	2511.1430578324
5	155037	28358.699418838454	2512.9535943469
5	155045	28359.315075256817	2512.72246691
5	155054	28361.742662918327	2510.3905088203
5	155067	28365.776118349877	2509.4044488322
5	155074	28370.541456446149	2507.6237631481
5	155086	28373.83361664163	2505.0405586743
5	155098	28376.945608706814	2507.5731389161
5	155197	28393.503288553606	2521.0807769456
5	155205	28394.279942467622	2510.9414475787
5	155223	28397.607585029988	2511.1216128282
5	155243	28401.341895286074	2512.9479035679
5	155253	28401.703639079677	2513.1365173479
5	155258	28401.976186148792	2511.477679079
5	155263	28402.913217438389	2511.5357180081
5	155275	28405.645066069387	2510.9145496632
5	155336	28411.56504054736	2512.416219084
5	155344	28412.43589074579	2512.2374114109
5	155359	28417.140520669845	2515.9812899503
5	155510	28439.447521683591	2524.9449209228
5	155518	28440.196854182646	2521.621484684
5	155537	28443.624554406889	2517.4841946644
5	155543	28443.945104244359	2517.3160277238
5	155549	28444.517455445115	2513.6368030304
5	155556	28446.347573229547	2514.6709622718
5	155563	28447.43935520442	2509.1840410531
5	155580	28450.444860911416	2511.2911966702
5	155635	28456.629195285255	2509.2426608758
5	155645	28456.696498765583	2508.1056967995
5	155650	28456.732255456273	2502.4673373227
5	155666	28460.114619002141	2502.1802388762
5	155788	28483.272848833537	2522.6829834205
5	155793	28483.376355234896	2522.5474148134
5	155805	28487.461403027694	2523.0938476316
5	155820	28488.382041219815	2522.83233003
5	155825	28489.430591418641	2516.3283460078
5	155832	28490.729535657152	2513.3766638226
5	155849	28495.149809816237	2514.4675933125
5	155946	28511.207330257445	2523.537288444
5	155961	28513.077921217056	2521.6364489455
5	156038	28523.711477239357	2530.0275385972
5	156049	28525.061226570589	2523.2511119078
5	156062	28525.903253271115	2520.5784308591
5	156075	28529.524351561967	2522.4770005111
5	156080	28529.572445098898	2519.66356268
5	156087	28531.725160365126	2520.831541391
5	156095	28535.524908786718	2518.4179879059
5	156104	28538.245253292005	2515.8673303343
5	156116	28538.753036385739	2512.262725513
5	156127	28541.694083746096	2510.5942792821
5	156134	28542.682201650906	2507.8118565473
5	156161	28546.196281147089	2502.999128034
5	156209	28552.153812859753	2507.3285793125
5	156247	28556.86187209497	2505.6611976126
5	156256	28560.174366300083	2507.039168674
5	156287	28565.593107638463	2510.8404768549
5	156292	28566.335817761421	2506.2212974853
5	156297	28567.455477874793	2502.0849823445
5	156309	28572.152642581142	2497.0512975096
5	156329	28573.434904143362	2496.8869829518
5	156338	28574.766547082208	2497.8655180502
5	156353	28577.996594680144	2500.3242939077
5	156370	28582.53395223789	2497.4386457591
5	156385	28584.394630284709	2494.1295161044
5	156407	28587.8938068793	2495.5699869983
5	156524	28614.288916749255	2521.9287944009
5	156540	28616.018840774683	2514.8618805949
5	156546	28616.709958495515	2506.7392810347
5	156551	28616.7934825711	2504.8279085712
5	156557	28617.248567910538	2503.9488280358
5	156562	28617.298877293467	2489.6381143709
5	156569	28621.965387432239	2485.1655395544
5	156594	28630.198191451387	2491.9653755782
5	156608	28632.84212258302	2494.3332521953
5	156618	28633.20919059855	2489.0130433799
5	156627	28637.980295556138	2493.7038634238
5	156654	28644.483284952548	2490.8876701368
5	156756	28662.352074500931	2505.9148468519
5	156761	28662.534534190785	2500.7399681333
5	156767	28662.687793820958	2492.3794488072
5	156773	28665.190923743502	2488.3346120434
5	156784	28668.412999637694	2489.0813559048
5	156808	28670.767352411882	2485.5178382172
5	156819	28671.846892863218	2483.3034465001
5	156826	28673.524250521106	2484.6004499984
5	156844	28676.044453369015	2483.9840006653
5	156882	28683.403474050189	2479.3730787667
5	157128	28731.660496516193	2526.4639529012
5	157139	28736.317010002783	2520.8967343829
5	157144	28736.487152567172	2519.8364089331
5	157149	28737.073499266871	2512.8968211802
5	157154	28737.172626720573	2512.1156216966
5	157161	28740.072091503437	2514.5018811057
5	157175	28743.531360726285	2517.4179298129
5	157185	28744.386545581524	2515.0509731555
5	157193	28744.562700656172	2513.1578846639
5	157198	28744.858747533315	2508.6306957416
5	157203	28746.250440884992	2506.1634496727
5	157216	28747.573215635634	2507.0340899531
5	157515	28789.070817686342	2544.8787916757
5	157520	28789.30464732632	2540.0106151715
5	157526	28789.346799192379	2538.7560206226
5	157536	28790.787824286352	2532.8306265762
5	157549	28792.215957160351	2532.0323910786
5	157554	28792.425960378311	2528.4408456904
5	157561	28794.867946392733	2528.7741240641
5	157572	28796.676820107186	2530.1545561985
5	157634	28805.256179897858	2535.6005329246
5	157667	28812.90553733179	2539.6013724926
5	157672	28812.944229176535	2536.5929400676
5	157677	28813.556746137866	2536.1891570288
5	157684	28814.076238041023	2531.7175536048
5	157697	28815.431231512733	2531.9853180175
5	157727	28818.527237294585	2534.8465652796
5	157732	28819.417664800661	2534.9289508497
5	157741	28821.1468394386	2534.6880659552
5	157764	28824.965696754856	2534.791261941
5	157832	28839.656163880907	2536.5430839337
5	157862	28844.98601265133	2540.4032518038
5	157877	28846.798473530064	2538.6490389148
5	157894	28847.461544897565	2535.2384553082
5	157900	28848.380843732304	2532.2277160929
5	157909	28850.522568385397	2533.0240331528
5	157916	28850.592449488106	2531.9673993086
5	157928	28852.840543544811	2533.7927830942
5	157945	28855.725421790057	2533.602301965
5	157957	28856.127836851651	2520.050639393
5	157972	28859.404108712041	2522.2817551
5	157987	28861.328652950402	2524.1465789153
5	158006	28867.032853824842	2523.7137928557
5	158029	28875.216320394373	2531.3697779949
5	158034	28875.254235206775	2530.4241293765
5	158039	28875.844633194324	2530.9808165368
5	158048	28877.387214098098	2525.2356381883
5	158063	28880.223880115812	2522.8967743865
5	158080	28881.743604107269	2513.7371425671
5	158085	28882.049533083111	2512.5696990498
5	158092	28883.490940223644	2513.815402938
5	158118	28890.222465607508	2519.8204632134
5	158218	28907.988831148261	2532.7698947984
5	158236	28910.107387481421	2532.5758486133
5	158262	28914.173125703869	2532.2136885387
5	158269	28914.546080960708	2528.1709172576
5	158276	28915.379010288239	2527.793313145
5	158289	28919.49887893429	2530.3176584548
5	158333	28930.787354250172	2537.4094001399
5	158342	28931.860822508558	2531.2478495668
5	158353	28933.761105214292	2530.3359687224
5	158360	28938.125592754703	2522.279736329
5	158372	28939.555630061407	2522.0393714935
5	158394	28940.319403745744	2520.5633394933
5	158407	28942.66864369506	2516.7455361331
5	158415	28943.17359934305	2516.6076855638
5	158420	28943.988407031872	2515.1138647822
5	158427	28945.545942742751	2515.8194719526
5	158448	28951.585251448585	2517.3008480837
5	158485	28955.485037351753	2509.2078162868
5	158499	28956.493804504467	2476.0155686083
5	158505	28957.133504937387	2465.7173447369
5	158513	28958.106324802499	2463.3522426021
5	158523	28959.41642000642	2464.0690408496
5	158528	28960.116745268765	2458.9616313347
5	158537	28963.782507530945	2462.6194724359
5	158561	28968.178631779151	2464.5818241949
5	158667	28989.230792538565	2483.5916526701
5	158674	28989.504644097094	2483.8025018496
5	158692	28991.837810158718	2484.1443346534
5	158733	28995.353885800015	2479.7613291398
5	158997	29041.354389991653	2521.2541956835
5	159008	29042.513680119486	2519.3085290222
5	159026	29044.845824859117	2520.7087149333
5	159033	29048.115161191882	2521.6976741359
5	159050	29055.205296892733	2524.0142579914
5	159096	29060.283727008236	2528.6958538818
5	159142	29065.392565870914	2532.2425471221
5	159151	29067.172007818916	2532.9348782345
5	159161	29070.345148239602	2535.5006753093
5	159176	29074.143349980976	2535.0993494202
5	159182	29075.132567253061	2536.0062419236
5	159192	29076.347168679619	2537.197030537
5	159200	29076.770717610014	2533.9609279418
5	159214	29082.069879975877	2538.3943441116
5	159222	29083.654297878212	2536.4588928747
5	159237	29086.333459903592	2534.2869168506
5	159251	29087.540485988247	2529.62787988
5	159262	29087.853955890728	2527.5421518957
5	159271	29088.935399988398	2528.5301612238
5	159287	29091.515062644539	2513.5401004164
5	159298	29092.36045344707	2509.7098005919
5	159305	29092.49942197264	2507.6545256383
5	159313	29092.914921201264	2505.8087743165
5	159328	29095.736957764473	2504.2812781816
5	159359	29098.70001975423	2498.1763026496
5	159374	29101.464373490031	2495.0552893705
5	159387	29102.679654200983	2493.9211355097
5	159393	29104.751140000511	2495.0033362078
5	159399	29105.989150928108	2495.6923585137
5	159406	29107.295040153855	2495.8328131443
5	159411	29107.957023893156	2477.7619623246
5	159429	29112.811983563944	2481.5978804964
5	159771	29185.742764624129	2553.304656689
5	159778	29186.265431553897	2553.5825078484
5	159792	29187.388636446137	2553.9787006033
5	159800	29189.229470291512	2547.0330481558
5	159807	29189.5261412625	2547.1720241806
5	159821	29190.506385507784	2547.8241524715
5	159834	29191.179338746427	2545.9571428667
5	159841	29192.145159472574	2546.02922871
5	159880	29196.207161812973	2539.1140439274
5	159885	29196.412430549863	2538.0185886097
5	159890	29196.883951964588	2537.4664831409
5	159895	29198.809706552709	2537.8007901033
5	159915	29203.175857994668	2542.0006261307
5	161010	29434.650586828931	2771.5427547474
5	161074	29450.064343054691	2780.4664835467
5	161081	29450.848780499344	2779.8023437323
5	161087	29451.251611318595	2775.1196971623
5	161095	29452.027229509733	2773.1614954743
5	161125	29456.397225243405	2777.0927137843
5	161133	29458.704507268068	2774.3309993627
5	161144	29461.204453518241	2770.5196208703
5	161156	29464.690192792303	2762.9422714351
5	161388	29502.085172683474	2800.2259759679
5	161398	29503.750469129475	2799.0264189692
5	161435	29511.645563817983	2805.0039058175
5	161440	29511.782196806038	2803.0881771952
5	161447	29512.892867024083	2803.6768514092
5	161459	29515.066380291541	2804.5661589746
5	161471	29517.789247205416	2805.3000530723
5	161481	29518.865923284126	2805.8380316415
5	161489	29520.126981242749	2806.487083961
5	161497	29520.578446653138	2805.7990175112
5	161508	29523.296316767667	2805.5397610363
5	161515	29523.933120678869	2805.0456713364
5	161537	29531.445971948911	2812.0098811057
5	161603	29539.200907253813	2814.6919494448
5	161678	29550.593840652792	2823.1533833501
5	161684	29551.413272763582	2821.5823165903
5	161689	29551.495868681022	2817.6648972708
5	161694	29552.785088034713	2813.1791405212
5	161714	29558.254313529662	2816.1048357306
5	161767	29563.470754449087	2812.6381773339
5	161775	29564.111098225404	2801.0017631344
5	161783	29567.242095468147	2787.2184462932
5	161788	29567.355652105881	2777.7288667786
5	161793	29567.49368932656	2774.3335105844
5	161802	29570.085541029931	2776.7573744678
5	161843	29578.440786343045	2779.3402155148
5	163920	29980.551546179526	3173.7224018638
5	163925	29980.696302906619	3170.625018061
5	163937	29982.999488236908	3166.995191121
5	163959	29987.676247339778	3165.4244190401
5	163966	29989.74053966231	3158.5892476683
5	163975	29992.119552706279	3159.7068539307
5	163980	29992.12516045504	3157.6048916223
5	163985	29992.751531063631	3147.662132853
5	163990	29994.298614776799	3143.8748341605
5	164004	29999.680667814305	3144.3342631912

