version 2
run First-n3-16-20191016-17:03:59-15356
attr configname First-n3
attr datetime 20191016-17:03:59
attr experiment First-n3
attr inifile omnetpp.ini
attr iterationvars ""
attr iterationvarsf ""
attr measurement ""
attr network org.omnetpp.queueing.Pizza
attr processid 15356
attr repetition 16
attr replication ""
attr resultdir results
attr runnumber 16
attr seedset 16
param **.PS.maxInventoriedPS 3
param **.U1.interArrivalTime exponential(2s)
param **.U2.interArrivalTime exponential(4s)
param **.PS.serviceTimeForInventoryU1 exponential(0.8s)
param **.PS.serviceTimeForInventoryU2 exponential(1.0s)
param **.PS.serviceTimeDirectU1 exponential(1.2s)
param **.PS.serviceTimeDirectU2 exponential(1.4s)
param **.PS.probabilityProducing 0.5
param **.CS.serviceTimeU1 exponential(0.8s)
param **.CS.serviceTimeU2 exponential(1.0s)

vector 0 Pizza.EntryQueueU1 queueLength:vector ETV
attr interpolationmode sample-hold
attr title "queue length, vector"
vector 1 Pizza.CS queueLength:vector ETV
attr interpolationmode sample-hold
attr title "queue length, vector"
vector 2 Pizza.EntryQueueU2 queueLength:vector ETV
attr interpolationmode sample-hold
attr title "queue length, vector"
vector 3 Pizza.sink lifeTime:vector ETV
attr interpolationmode none
attr title "lifetime of arrived jobs, vector"
attr unit s
vector 4 Pizza.sink lifeTimeU1:vector ETV
attr interpolationmode none
attr title "lifetime of arrived jobs, vector"
attr unit s
vector 5 Pizza.sink lifeTimeU2:vector ETV
attr interpolationmode none
attr title "lifetime of arrived jobs, vector"
attr unit s
0	0	0	0
0	41	6.054260114827	1
0	44	6.951636759616	2
0	46	7.13241955071	1
0	53	7.435938215113	2
0	54	7.534487687361	1
0	61	7.791348163015	0
0	65	7.868808933336	1
0	68	7.995179258584	0
0	79	8.624216305009	1
0	81	9.703862338775	0
0	106	12.911620229762	1
0	107	13.212933255632	0
0	115	13.52284933117	1
0	116	13.633892023374	0
0	136	17.047984036675	1
0	139	18.764194584039	2
0	141	18.784872517764	3
0	142	19.382499715204	2
0	148	19.408586518476	1
0	153	19.618099622237	0
0	159	19.666251283201	1
0	161	20.660142727468	2
0	162	20.703027574977	1
0	168	22.415486066642	2
0	170	22.660967810974	1
0	175	23.989717493609	0
0	179	24.924332355148	1
0	181	26.050870373733	2
0	184	28.931592860281	1
0	188	28.952522067628	2
0	191	29.447670110468	1
0	198	31.045800163909	0
0	204	32.425853796202	1
0	205	33.077018550606	0
0	218	35.88167723863	1
0	219	35.945256931523	0
0	280	56.25841138926	1
0	284	57.140664547399	2
0	287	58.688100412849	1
0	293	59.264379735822	2
0	298	59.730231048841	3
0	301	61.165242180258	4
0	303	61.285365660297	5
0	304	61.290712658083	4
0	310	62.434344716289	5
0	311	63.456284765844	4
0	315	64.267312446586	5
0	318	65.084715316276	4
0	322	65.910841423579	5
0	324	68.042473577204	6
0	329	70.774281136308	5
0	335	72.152865813309	6
0	336	72.231853703144	5
0	342	72.508184799938	6
0	344	73.166215848367	5
0	349	73.167804946879	4
0	353	73.401227734699	5
0	356	76.169924014186	4
0	362	77.293393436472	3
0	367	77.309369637319	2
0	371	77.938820118664	3
0	373	78.555882398186	4
0	376	79.413431046118	3
0	380	79.970629418405	4
0	384	80.199748697477	5
0	387	80.60114804558	4
0	393	84.823576789617	3
0	399	86.239827934583	4
0	400	86.365281485595	3
0	405	87.139360612014	2
0	411	88.648783494356	3
0	414	89.298810714018	2
0	420	90.716580230417	3
0	424	91.561612195683	4
0	425	92.59977084976	3
0	429	92.730588188428	4
0	433	94.623139736189	5
0	434	94.92851410931	4
0	438	95.128875614601	5
0	443	96.828272876898	4
0	447	97.163308556539	5
0	452	98.59867349988	4
0	458	99.270256006522	5
0	459	99.283551923793	4
0	467	100.340946340275	5
0	468	100.389611344012	4
0	475	100.657705629052	5
0	477	101.978976273994	4
0	482	102.604886994116	3
0	488	104.232399798666	4
0	490	104.341614870204	5
0	492	104.909200125061	6
0	493	105.414161377946	5
0	498	105.515121049122	4
0	503	106.856637769323	3
0	508	107.824403231536	2
0	515	109.432922261782	1
0	520	111.16195422482	0
0	524	111.723366397632	1
0	528	112.133591906136	2
0	531	112.243934641917	1
0	536	113.605678517955	0
0	540	114.579339280135	1
0	546	117.129737224356	2
0	552	119.365229574007	3
0	553	119.696333729938	2
0	559	119.716067211345	3
0	560	120.760811123053	2
0	564	122.151614210895	3
0	569	123.005801036701	4
0	571	123.202792953396	3
0	576	123.275089338019	2
0	581	123.606387795387	1
0	587	123.848455363695	2
0	589	124.301596722169	3
0	595	126.995047908501	2
0	601	127.533889976394	1
0	608	127.850395641362	2
0	611	128.944604380372	1
0	616	129.616201489581	0
0	632	130.576097601613	1
0	635	131.133534888431	2
0	638	132.062398231341	3
0	639	132.090826495696	2
0	644	132.787000805798	1
0	649	133.543640080731	0
0	673	135.182574319073	1
0	679	135.869442863821	2
0	681	135.924434468255	3
0	686	136.831929587409	4
0	687	137.11672890033	3
0	695	139.149444445565	4
0	696	139.158245786697	3
0	701	139.316016236529	2
0	708	140.499505433094	3
0	709	140.523887412903	2
0	715	140.832004481548	1
0	721	141.193744427807	0
0	750	143.026557786444	1
0	751	143.590114318663	0
0	763	144.821168886821	1
0	765	144.832129236755	2
0	767	145.480492876852	3
0	773	148.171911528633	2
0	779	149.053716463809	3
0	780	150.208996208492	2
0	787	150.784871548389	3
0	788	151.16675459686	2
0	793	151.349760400559	1
0	799	151.675229756234	2
0	804	153.936022694733	1
0	808	154.115256658116	2
0	811	154.543259950839	1
0	815	155.12896220409	2
0	821	158.062693024143	1
0	828	158.564755831569	0
0	843	161.86247269526	1
0	844	162.395777762654	0
0	850	162.413785368623	1
0	851	162.456431568276	0
0	886	166.422467921433	1
0	891	167.104487838822	0
0	897	167.559796654145	1
0	899	167.90102333036	2
0	901	168.463863343154	1
0	908	168.6191693658	0
0	918	169.629450329937	1
0	922	170.33591627832	2
0	925	171.04860484972	3
0	927	171.251392661292	4
0	928	171.271359653502	3
0	933	171.387289939468	2
0	942	172.719714287235	1
0	949	175.461434003254	0
0	971	178.296554269614	1
0	973	178.357604774067	2
0	974	179.381563502073	1
0	980	180.130082623849	2
0	982	180.833517836968	1
0	987	181.335320018278	0
0	998	183.932183970607	1
0	999	184.139534483525	0
0	1021	187.555237730441	1
0	1024	188.055020290967	0
0	1031	188.177003513518	1
0	1033	188.75467293014	2
0	1034	188.792154618073	1
0	1039	188.94242329684	0
0	1087	201.948174982411	1
0	1089	202.203089945195	2
0	1093	202.79492396308	3
0	1095	202.861424268428	4
0	1098	205.404827022714	3
0	1103	206.423192322284	2
0	1109	207.008318610825	3
0	1113	207.546281084005	4
0	1115	208.265035906051	3
0	1120	208.381247705399	2
0	1125	208.799657817635	1
0	1129	209.201645269726	2
0	1131	209.256607384724	3
0	1136	209.979290152503	2
0	1146	212.299289623583	1
0	1154	213.548397921382	2
0	1155	213.649195950718	1
0	1161	214.452925089224	2
0	1162	216.795126325837	1
0	1169	216.828332951813	0
0	1195	220.466127520126	1
0	1198	222.235215160825	0
0	1204	222.617540615661	1
0	1206	223.119433645721	0
0	1219	224.033986991872	1
0	1224	225.212980706972	2
0	1226	225.415540900519	3
0	1228	225.537969581418	4
0	1229	226.093980753617	3
0	1234	226.289901060581	2
0	1240	226.33321408429	3
0	1241	226.531620259862	2
0	1247	226.579383438803	3
0	1249	226.799096876337	4
0	1251	227.397637275255	3
0	1256	227.763435958151	2
0	1260	227.971296670803	3
0	1264	229.344954393155	4
0	1268	231.4772951292	5
0	1270	232.611373504993	6
0	1272	233.033109797954	7
0	1276	234.661457907351	6
0	1283	234.965998789048	5
0	1288	235.442741198026	4
0	1293	235.920834757327	3
0	1298	236.659414291417	2
0	1303	238.29657685388	1
0	1308	239.457151042802	0
0	1327	243.351927310384	1
0	1331	243.527447467811	0
0	1354	245.40994963717	1
0	1355	245.419872255804	0
0	1363	246.239643370978	1
0	1364	246.243357428261	0
0	1368	246.806181477672	1
0	1375	249.106009699292	0
0	1381	249.748027706136	1
0	1383	250.445363382451	0
0	1390	251.296643181024	1
0	1391	251.462233700723	0
0	1403	251.839766015665	1
0	1404	252.016885779753	0
0	1422	252.901557055544	1
0	1424	253.802418170754	0
0	1433	255.262751936786	1
0	1434	255.284456723253	0
0	1440	255.595493465519	1
0	1444	257.48060364294	2
0	1445	257.817128893037	1
0	1450	257.965562016374	0
0	1481	263.562362708947	1
0	1483	264.478659053853	0
0	1489	264.891331955504	1
0	1490	265.033459264282	0
0	1497	265.397135582186	1
0	1501	266.963676590105	0
0	1513	269.013710160007	1
0	1515	269.856701404362	2
0	1516	269.997112883425	1
0	1521	270.395219778308	0
0	1530	270.646341015614	1
0	1534	271.412514823565	2
0	1537	272.201703080693	3
0	1538	273.326429826173	2
0	1545	275.447434534535	1
0	1552	275.983910568235	0
0	1570	276.948232462303	1
0	1573	276.988262875186	2
0	1575	277.208030880233	3
0	1578	277.856288931959	4
0	1580	278.766131536689	3
0	1586	278.850800397789	4
0	1588	278.85951438948	3
0	1593	278.871789997219	2
0	1598	279.737917465139	1
0	1602	279.997839232305	2
0	1608	281.006375874489	3
0	1609	281.368484383057	2
0	1616	281.439854529751	1
0	1623	281.772351162019	0
0	1647	283.852601559152	1
0	1649	283.894250233903	2
0	1654	284.068772184348	1
0	1662	285.758181698501	0
0	1679	287.832347760371	1
0	1682	288.95404985	0
0	1696	289.295352019765	1
0	1700	290.945133084923	2
0	1702	291.235958889374	3
0	1706	293.289391771704	4
0	1708	295.654800137449	5
0	1713	296.491079813087	4
0	1718	296.812358074	3
0	1722	297.299674689926	4
0	1726	298.232037709596	5
0	1727	299.483703901196	4
0	1735	303.849932015368	3
0	1741	304.656365662057	4
0	1743	305.40788441043	3
0	1749	306.610721948778	4
0	1752	306.676005264641	3
0	1756	307.046258877682	4
0	1760	309.391377524868	3
0	1770	311.876304768338	4
0	1772	313.266449878107	5
0	1774	313.369808557413	6
0	1775	313.564502739127	5
0	1781	314.405529787223	6
0	1782	315.135721741235	5
0	1787	315.576095275751	4
0	1793	316.479925497769	3
0	1799	317.067757184596	2
0	1805	318.007670176943	3
0	1806	318.043112595697	2
0	1813	319.106134888222	1
0	1818	319.289812739736	0
0	1829	320.200310436015	1
0	1830	321.180883654638	0
0	1834	321.42088060622	1
0	1837	322.711539534475	0
0	1871	326.059443715149	1
0	1872	326.11381439272	0
0	1893	327.83469770023	1
0	1897	330.105755427109	0
0	1919	331.20619610477	1
0	1923	332.019080329842	0
0	1930	334.147111287552	1
0	1932	334.262870934654	2
0	1933	334.524110746351	1
0	1938	334.533970925278	0
0	1959	337.861742471749	1
0	1966	339.176485377666	0
0	1981	341.866020853871	1
0	1983	341.871195325128	2
0	1985	342.391097024963	3
0	1987	342.71119538397	4
0	1989	342.926501465054	5
0	1993	344.283126928148	6
0	1997	344.67298765651	5
0	2003	345.426962369209	4
0	2011	346.234627840654	3
0	2017	346.330771343589	2
0	2022	346.566714761858	1
0	2028	346.897414555105	0
0	2032	346.919246741181	1
0	2036	348.624717550653	2
0	2039	349.033092615856	1
0	2046	350.106818972141	0
0	2069	354.744185154068	1
0	2072	355.326770240618	0
0	2081	358.072866542407	1
0	2084	359.120843058442	0
0	2133	365.20070998679	1
0	2136	366.4736540619	0
0	2171	375.65114442608	1
0	2175	376.891034245161	2
0	2176	377.646298354641	1
0	2181	377.76093398874	0
0	2192	378.53668939028	1
0	2200	380.590945538919	0
0	2217	382.03711216772	1
0	2219	382.493280565481	0
0	2231	384.539914229544	1
0	2232	384.78718415226	0
0	2346	405.918837747141	1
0	2348	406.398956052834	2
0	2349	406.505494575865	1
0	2354	406.559702194938	0
0	2394	413.927235641348	1
0	2397	415.098617023964	0
0	2403	415.506383615685	1
0	2404	415.709587369462	0
0	2410	415.898526225351	1
0	2414	417.008272541106	0
0	2442	425.159271081508	1
0	2445	425.655287424593	0
0	2503	437.449726552582	1
0	2507	437.764627931228	2
0	2509	437.871908479881	3
0	2512	437.961376417895	2
0	2519	440.959729973933	1
0	2524	441.553082762497	0
0	2564	454.962601193065	1
0	2566	455.133940476223	2
0	2568	455.360166304211	3
0	2570	456.198409552454	4
0	2574	456.951169840496	3
0	2579	456.993247447729	2
0	2584	458.730990598077	1
0	2590	460.087592213016	0
0	2612	465.207648442948	1
0	2613	465.435015700861	0
0	2678	478.111196111255	1
0	2679	478.693618585805	0
0	2685	479.267983669585	1
0	2686	480.098807477316	0
0	2692	481.161825962093	1
0	2693	481.722547039939	0
0	2710	483.777144676033	1
0	2711	484.172838107411	0
0	2715	486.050267980228	1
0	2721	487.437643285173	2
0	2722	487.797285353854	1
0	2727	489.121311671	0
0	2794	503.978484536979	1
0	2797	504.420055902033	2
0	2798	505.499517302324	1
0	2804	507.640641391737	0
0	2810	508.053946249385	1
0	2812	508.196381964004	0
0	2852	516.77965233723	1
0	2854	517.282656009014	2
0	2859	520.18022577981	1
0	2866	520.843291180948	0
0	2883	522.600964555585	1
0	2885	522.967833035471	2
0	2886	523.572172592288	1
0	2891	524.126841354141	0
0	2902	524.620667497188	1
0	2903	524.624047652505	0
0	2921	528.061958706567	1
0	2922	528.187578198548	0
0	2999	558.717243019701	1
0	3001	558.907099107708	2
0	3003	559.698119692477	3
0	3004	559.726831289008	2
0	3010	559.873743435044	3
0	3012	560.527297193526	4
0	3014	560.563674897934	5
0	3015	560.993023031261	4
0	3019	562.734671741203	5
0	3023	566.140753413712	6
0	3024	566.170835900031	5
0	3031	566.83894514636	4
0	3035	567.845765699523	5
0	3039	568.772446833553	4
0	3044	570.497840526491	3
0	3048	571.118400836147	4
0	3052	571.167771414914	5
0	3058	572.177878607581	4
0	3063	572.380649645639	3
0	3068	574.359351181154	2
0	3074	576.458846310907	3
0	3076	577.496467340544	4
0	3077	578.853963013741	3
0	3082	579.827139253573	2
0	3088	582.282668082263	3
0	3090	582.511007981676	4
0	3091	583.576329700751	3
0	3098	585.579062632896	2
0	3104	587.415734125199	1
0	3110	587.67083827248	2
0	3112	588.323591372211	1
0	3119	589.483797711048	2
0	3120	590.061415991908	1
0	3127	591.836615240351	0
0	3145	594.086027915959	1
0	3148	595.848648619667	2
0	3151	596.242326776981	3
0	3152	596.751524434509	2
0	3156	596.873134427373	3
0	3159	597.695008222059	2
0	3163	598.594556076618	3
0	3168	599.927341465749	2
0	3173	600.207143212981	1
0	3179	600.341064503439	2
0	3180	600.780513977106	1
0	3184	600.92466551412	2
0	3191	602.431633222505	1
0	3199	604.106846800323	2
0	3200	604.209572150789	1
0	3207	604.98562373804	2
0	3209	604.992377368492	3
0	3212	605.676495981214	2
0	3218	605.699471284356	3
0	3219	605.70420910718	2
0	3226	607.432666590923	1
0	3230	608.020576196633	2
0	3233	608.495789334592	1
0	3238	609.453829270718	0
0	3242	609.818240498952	1
0	3247	613.385029043721	0
0	3267	614.873930955908	1
0	3271	616.47881133309	0
0	3282	617.541844248843	1
0	3285	618.033626808749	0
0	3317	619.499460536488	1
0	3319	619.729069871261	2
0	3321	621.008473608103	1
0	3326	621.058112313651	0
0	3358	624.754742153276	1
0	3360	625.282531529669	2
0	3363	625.614934048172	1
0	3370	627.439883559402	0
0	3376	627.44134504887	1
0	3377	627.825680363486	0
0	3398	630.336577113797	1
0	3400	630.728272300455	2
0	3403	631.561831917683	3
0	3405	632.092488957044	4
0	3406	632.963864586278	3
0	3412	634.14340850721	2
0	3418	635.101953167754	1
0	3423	635.20674216258	0
0	3427	635.465764403197	1
0	3430	637.719770656306	0
0	3434	638.207401153826	1
0	3438	639.388588933512	0
0	3463	642.899118795007	1
0	3465	644.147969007306	0
0	3471	644.469905734569	1
0	3472	644.996025206445	0
0	3478	645.73434533687	1
0	3484	648.945777862702	2
0	3485	649.611230482262	1
0	3491	649.846421967564	2
0	3494	650.324844808292	1
0	3499	651.129688296352	0
0	3535	661.225993949834	1
0	3536	661.917114289911	0
0	3557	664.871500735343	1
0	3560	665.440448726355	0
0	3598	670.801019918832	1
0	3599	671.123901788775	0
0	3603	671.92685194348	1
0	3605	672.029180208977	2
0	3609	672.757129666866	3
0	3614	674.083177784828	2
0	3620	674.269116973484	3
0	3623	674.752849235652	2
0	3628	675.289498268346	1
0	3632	675.435360152752	2
0	3641	677.406556839779	1
0	3647	677.654579525794	2
0	3648	678.173806205479	1
0	3654	682.82407532813	2
0	3656	683.251353031327	3
0	3660	685.599263172259	4
0	3661	686.749140830434	3
0	3670	688.334752276775	4
0	3671	689.523790570267	3
0	3678	691.286175569307	2
0	3683	691.705346420248	1
0	3688	692.31785309496	0
0	3692	694.020749276401	1
0	3695	694.744333032944	0
0	3719	700.481886275829	1
0	3720	700.560655757949	0
0	3735	704.350133686422	1
0	3736	704.668652576335	0
0	3747	705.615565753496	1
0	3749	706.237221118498	2
0	3752	706.609932569686	1
0	3760	706.947767437676	2
0	3762	707.173325082686	3
0	3763	708.304041846601	2
0	3768	709.359234684362	1
0	3774	710.168297085043	2
0	3778	710.453217608485	1
0	3783	710.526322844481	0
0	3787	711.312935367653	1
0	3790	713.377200158566	0
0	3836	716.393152419582	1
0	3839	716.582192540472	0
0	3849	717.812956698857	1
0	3850	717.825411242746	0
0	3856	718.051493530982	1
0	3859	718.1512528592	2
0	3862	718.288127783635	1
0	3870	720.619914272586	0
0	3894	722.893396985678	1
0	3896	723.038663395938	2
0	3897	723.046171566479	1
0	3902	723.599645590914	0
0	3911	724.60788862277	1
0	3914	726.206545740684	0
0	3940	730.94359452319	1
0	3941	730.94690003063	0
0	3948	731.380756194838	1
0	3950	731.949863378113	0
0	3956	732.061129583227	1
0	3959	733.478871365173	0
0	4010	751.550631058645	1
0	4012	751.935748827608	2
0	4013	752.231910868415	1
0	4023	752.837414611197	2
0	4024	753.328320847488	1
0	4030	753.442862824914	2
0	4035	755.465150669814	1
0	4041	755.599529625553	2
0	4043	757.007715459538	3
0	4045	757.977293360836	4
0	4046	758.078169232766	3
0	4052	758.240419712708	4
0	4054	760.129656580121	5
0	4056	760.885273178712	6
0	4057	760.889564159422	5
0	4063	760.988878405015	4
0	4068	761.689872696731	3
0	4078	764.549322901656	4
0	4079	765.194201145417	3
0	4087	767.545083375194	2
0	4092	767.842056722528	1
0	4097	768.6679235918	0
0	4138	776.874739304381	1
0	4139	777.491879551563	0
0	4147	777.794879956953	1
0	4149	777.842787590034	2
0	4151	778.6458741278	3
0	4153	779.018924568459	2
0	4158	779.463754517313	1
0	4164	779.753702460766	0
0	4187	780.953346427934	1
0	4188	781.097809189025	0
0	4207	781.743630240671	1
0	4214	784.216565366034	2
0	4216	785.038317292775	3
0	4218	785.112042413099	4
0	4219	785.736283102617	3
0	4224	786.481617440524	2
0	4229	786.692262233219	1
0	4236	787.473190775544	0
0	4244	787.992562844094	1
0	4246	788.477964902352	2
0	4248	788.603962362778	3
0	4249	788.779435248348	2
0	4255	789.724493427692	1
0	4260	790.046169008225	0
0	4315	801.19678530618	1
0	4317	801.294121498388	2
0	4318	801.563638300996	1
0	4323	801.75949123046	0
0	4329	801.853922803393	1
0	4332	802.415251359331	2
0	4333	802.510688285005	1
0	4338	803.362041973189	0
0	4351	807.976625116603	1
0	4354	808.775412954025	0
0	4372	810.238412127245	1
0	4376	811.659111535863	0
0	4382	812.970745017554	1
0	4383	813.157791854016	0
0	4387	813.432072583683	1
0	4390	814.449115020286	0
0	4394	814.837154022878	1
0	4397	815.351193326633	0
0	4408	817.391924115348	1
0	4409	817.399043045352	0
0	4473	828.017959157209	1
0	4475	828.838257386614	2
0	4478	829.984643401343	1
0	4483	830.786948111845	0
0	4489	830.984848537522	1
0	4490	831.116282523166	0
0	4522	835.764790042784	1
0	4524	836.150878764383	0
0	4537	837.022356991661	1
0	4538	838.556466555878	0
0	4549	843.479495768772	1
0	4551	844.637669589616	2
0	4554	845.412971716099	1
0	4558	846.254804303677	2
0	4563	848.967398734227	1
0	4569	850.314881727057	2
0	4570	850.322486092437	1
0	4575	850.514149660563	0
0	4586	851.084223286539	1
0	4587	851.190593618704	0
0	4591	852.132477799207	1
0	4593	852.13465045526	2
0	4595	852.349237947844	3
0	4599	853.319997707012	2
0	4604	853.922761065422	1
0	4609	854.674166648198	0
0	4657	863.121918057486	1
0	4658	863.151833447876	0
0	4672	864.22645625168	1
0	4673	864.776252679206	0
0	4706	873.623465356184	1
0	4707	873.762767010671	0
0	4753	885.148667585274	1
0	4754	885.801817616326	0
0	4778	890.014953903723	1
0	4779	890.189491973764	0
0	4799	891.992847245154	1
0	4801	892.320078250666	0
0	4847	896.8687249071	1
0	4851	898.032516423981	2
0	4852	898.102390228315	1
0	4859	901.431033461714	0
0	4902	914.693596893642	1
0	4905	914.756855614999	0
0	4916	916.114770484595	1
0	4920	916.912084365095	0
0	4928	917.446579937944	1
0	4930	917.959120121007	0
0	4936	918.210374327509	1
0	4938	918.513608566956	0
0	4983	927.318801020421	1
0	4992	929.854481355635	0
0	5073	947.838308044547	1
0	5075	947.984431126017	2
0	5076	948.199904607508	1
0	5091	954.081181621119	0
0	5095	954.837477095997	1
0	5097	955.21161830706	2
0	5099	955.409989222409	3
0	5102	956.177819680071	2
0	5107	956.402530373841	1
0	5115	957.901951779174	2
0	5116	958.074229910796	1
0	5121	959.117763382223	0
0	5142	960.416317615093	1
0	5146	960.720292144715	2
0	5147	961.379926963792	1
0	5152	961.95362141391	0
0	5156	962.325229629187	1
0	5160	963.197023751919	2
0	5161	963.226604506454	1
0	5167	965.565157047434	2
0	5173	966.416515775019	3
0	5176	968.534532990676	2
0	5182	968.860899452904	3
0	5183	969.030100305017	2
0	5190	971.295147365456	1
0	5198	973.013551401017	0
0	5224	980.56835182436	1
0	5225	981.471857279916	0
0	5237	981.999770757046	1
0	5238	983.945680424134	0
0	5247	985.743172926049	1
0	5250	986.942308553381	0
0	5256	986.999551436432	1
0	5258	987.416406388734	2
0	5259	987.824864329158	1
0	5264	988.002542232696	0
0	5268	988.172524806144	1
0	5273	988.982366206951	0
0	5277	989.106086424017	1
0	5281	989.853642833179	2
0	5285	990.187917338385	3
0	5287	990.503656979382	4
0	5295	992.485313402973	3
0	5299	992.928864667415	4
0	5304	996.071372901209	5
0	5306	996.329751187787	4
0	5313	996.64666743909	3
0	5321	997.721297080923	2
0	5326	997.922450293899	1
0	5334	999.27299526678	2
0	5340	1001.983194108558	1
0	5347	1002.982695501142	2
0	5349	1004.389028249128	1
0	5355	1004.546055952035	0
0	5372	1006.492692436054	1
0	5375	1009.200474117365	0
0	5413	1013.049266080569	1
0	5416	1015.881740613235	0
0	5428	1016.352149485583	1
0	5430	1018.001929350047	0
0	5444	1019.15151806907	1
0	5445	1019.572985959106	0
0	5456	1021.643180503594	1
0	5459	1022.391497989617	2
0	5461	1022.753677701889	1
0	5466	1023.383925308073	0
0	5480	1025.36906288834	1
0	5481	1025.56704035118	0
0	5487	1025.612151692208	1
0	5493	1027.544848169358	0
0	5500	1027.798865707644	1
0	5501	1028.016622573873	0
0	5509	1028.594698634735	1
0	5513	1029.473330770019	0
0	5519	1029.530152209486	1
0	5520	1029.535204780047	0
0	5527	1030.753343300875	1
0	5528	1030.82151169777	0
0	5539	1032.041500275806	1
0	5541	1032.578228263313	2
0	5543	1033.889205266603	1
0	5549	1035.379760810462	0
0	5566	1037.167070689947	1
0	5570	1038.280327983228	0
0	5608	1043.168292604216	1
0	5610	1043.517751736292	2
0	5614	1046.028459597084	1
0	5619	1046.10947954618	0
0	5648	1051.54069720321	1
0	5649	1051.545182735431	0
0	5663	1054.46368603939	1
0	5672	1056.883005779352	0
0	5679	1057.223046888756	1
0	5680	1057.354568310887	0
0	5695	1060.255295480333	1
0	5696	1060.308434580719	0
0	5702	1061.106547678102	1
0	5704	1061.129269144734	2
0	5706	1061.791859097951	1
0	5713	1062.212263577257	2
0	5715	1062.776785707962	1
0	5720	1063.088827107865	0
0	5795	1078.519873449125	1
0	5796	1078.547273159823	0
0	5802	1078.651069836325	1
0	5804	1078.973455320138	0
0	5820	1083.052883750217	1
0	5824	1086.189498230405	0
0	5836	1087.435417382892	1
0	5839	1087.689493577753	0
0	5852	1089.076034345274	1
0	5854	1089.556996208452	2
0	5859	1091.448523368048	3
0	5860	1091.506286622715	2
0	5866	1091.940411437555	1
0	5871	1091.984632322505	0
0	5885	1092.42783897332	1
0	5890	1093.777133246968	2
0	5892	1094.576356915975	3
0	5893	1095.390179052497	2
0	5898	1095.636403574937	1
0	5906	1097.233538347834	2
0	5907	1098.693357617206	1
0	5913	1098.870293360103	2
0	5917	1099.115267520536	3
0	5918	1099.508234747928	2
0	5923	1099.983486410808	1
0	5928	1100.244327485268	0
0	5932	1101.310420484808	1
0	5936	1101.467574969339	2
0	5937	1101.820333220351	1
0	5942	1103.178250437525	0
0	5965	1104.405617510078	1
0	5971	1105.440715824408	2
0	5975	1106.481465011462	3
0	5976	1107.400345721838	2
0	5984	1110.162406804189	3
0	5985	1110.667495334523	2
0	5991	1111.005052794117	3
0	5992	1112.326122445303	2
0	5998	1112.72229251469	1
0	6004	1112.785995668705	2
0	6005	1113.333806699504	1
0	6016	1116.036676601118	2
0	6017	1116.272657461783	1
0	6024	1117.305760931314	0
0	6068	1123.24376160984	1
0	6070	1123.604583304168	0
0	6084	1125.525656430774	1
0	6087	1126.096135658834	0
0	6103	1127.830303939446	1
0	6108	1128.78723177608	0
0	6121	1132.04845515327	1
0	6122	1132.15984456373	0
0	6128	1132.502356550412	1
0	6129	1132.988343806675	0
0	6135	1132.994232513497	1
0	6136	1133.055193192188	0
0	6140	1133.338772954268	1
0	6142	1134.253293869273	2
0	6145	1136.610521831507	1
0	6150	1137.182517651214	0
0	6157	1139.262209676232	1
0	6158	1139.3133301691	0
0	6172	1139.607127988985	1
0	6173	1139.834867695747	0
0	6186	1142.105153399722	1
0	6189	1143.6730128782	2
0	6191	1143.773227688072	3
0	6195	1143.922685687902	2
0	6200	1144.732788069933	1
0	6205	1145.017118754739	0
0	6231	1149.300593548896	1
0	6234	1150.115291435995	0
0	6238	1150.918124854973	1
0	6243	1152.602019788878	2
0	6244	1153.492304031477	1
0	6251	1154.059957421036	0
0	6311	1174.160278793568	1
0	6312	1174.714856324187	0
0	6369	1186.45438023398	1
0	6370	1186.480976284335	0
0	6383	1188.523068438228	1
0	6386	1188.90427009657	0
0	6408	1192.450709317108	1
0	6409	1193.952875614897	0
0	6442	1202.648890249222	1
0	6444	1203.032608744816	2
0	6448	1204.285228284149	1
0	6453	1204.421837586539	0
0	6464	1206.04617938317	1
0	6466	1206.053975236315	2
0	6468	1206.240275021226	3
0	6470	1208.036397709673	4
0	6473	1209.748221321149	3
0	6478	1210.98192449222	2
0	6482	1211.104838982754	3
0	6485	1211.640133845349	2
0	6489	1212.213306414618	3
0	6491	1215.244519541987	4
0	6493	1216.336487607506	5
0	6495	1216.692667965542	6
0	6498	1217.395994435775	5
0	6503	1218.633177438478	4
0	6508	1219.973582739267	3
0	6513	1220.724152964033	2
0	6518	1221.47859174419	1
0	6526	1222.327842690537	0
0	6563	1235.483229332265	1
0	6564	1235.899744318785	0
0	6599	1239.982983390017	1
0	6602	1241.788787993134	0
0	6608	1243.427684736163	1
0	6614	1244.935620529675	2
0	6618	1247.737899891016	1
0	6623	1248.366888439262	0
0	6627	1248.854667347891	1
0	6630	1249.70282820735	0
0	6636	1250.244515026197	1
0	6638	1250.778229021534	2
0	6642	1251.222743180074	3
0	6643	1251.416750970578	2
0	6650	1253.678708513421	1
0	6654	1253.699258620015	2
0	6657	1254.100904839479	1
0	6661	1254.312070115371	2
0	6665	1255.562681057201	1
0	6672	1256.010605215187	2
0	6673	1256.133090005004	1
0	6679	1256.465487535565	2
0	6683	1257.532562821316	3
0	6684	1257.581857125059	2
0	6688	1257.91590390718	3
0	6692	1259.387908633217	4
0	6697	1261.292436351639	3
0	6703	1262.85918824806	4
0	6705	1263.28595805157	3
0	6711	1263.811944031242	2
0	6716	1264.226290757154	1
0	6722	1265.024156391357	2
0	6723	1265.158880204209	1
0	6727	1265.695354391801	2
0	6731	1266.52147570075	3
0	6735	1267.795105114524	4
0	6736	1267.877502370228	3
0	6743	1270.432796731569	2
0	6747	1270.627492841268	3
0	6749	1271.23902715098	4
0	6756	1274.517670643858	3
0	6761	1275.134831816969	2
0	6767	1275.412271313827	1
0	6776	1276.748080726817	0
0	6800	1278.480320695692	1
0	6801	1278.807421316536	0
0	6826	1282.889146272709	1
0	6829	1283.684826066847	0
0	6855	1288.808563204696	1
0	6857	1289.180323996867	2
0	6859	1289.906714822122	1
0	6867	1290.45224424351	2
0	6868	1290.86501588831	1
0	6873	1292.290837168519	0
0	6893	1294.682374849561	1
0	6894	1294.777673657869	0
0	6907	1295.677617346582	1
0	6910	1297.439096635506	0
0	6927	1300.43991377732	1
0	6928	1301.121982939994	0
0	6935	1301.612118616725	1
0	6936	1301.634270497955	0
0	6942	1301.653100154013	1
0	6945	1302.225371812969	2
0	6947	1302.934891052686	1
0	6953	1303.038085249364	2
0	6954	1303.430529718726	1
0	6963	1304.601553167619	0
0	6976	1306.241478156729	1
0	6977	1306.25257333603	0
0	6988	1307.012394971781	1
0	6989	1307.42515183622	0
0	7023	1311.084109783551	1
0	7026	1312.329161627596	0
0	7037	1312.959990571819	1
0	7040	1313.314888646953	2
0	7044	1314.4551211902	3
0	7046	1315.056577368166	2
0	7051	1315.235948856251	1
0	7056	1315.462951666373	0
0	7086	1321.155623126276	1
0	7087	1321.566328454808	0
0	7151	1331.560388194347	1
0	7157	1334.337126740541	2
0	7158	1335.47114495406	1
0	7163	1336.094380458008	0
0	7169	1336.120786936459	1
0	7173	1336.874539980632	0
0	7192	1338.086881305272	1
0	7193	1338.109156935235	0
0	7201	1338.961218253817	1
0	7203	1339.367546562956	2
0	7204	1340.460247529358	1
0	7210	1341.615511061692	0
0	7229	1345.262990521676	1
0	7231	1345.603112858126	2
0	7232	1345.638780898387	1
0	7237	1345.697595496733	0
0	7248	1347.003619855041	1
0	7250	1347.292416244835	2
0	7253	1347.589710979726	1
0	7258	1347.6877818554	0
0	7276	1351.305537098308	1
0	7278	1352.350434523047	2
0	7279	1352.541787354895	1
0	7284	1352.693270969567	0
0	7355	1363.283811663333	1
0	7356	1363.404530644771	0
0	7360	1363.419052784676	1
0	7363	1365.031806108413	0
0	7367	1365.187251457236	1
0	7370	1366.476884275087	0
0	7374	1366.685560911881	1
0	7376	1367.378509828331	2
0	7386	1368.859254253558	1
0	7391	1369.563990407093	0
0	7421	1373.208104925311	1
0	7423	1373.684804260748	2
0	7424	1373.911402620934	1
0	7429	1373.941718876593	0
0	7437	1374.850301996386	1
0	7441	1375.434950589448	2
0	7442	1376.161100450324	1
0	7448	1376.529599134653	2
0	7450	1379.729662648685	1
0	7455	1379.759736087692	0
0	7463	1381.052574243382	1
0	7466	1382.895871511488	0
0	7472	1383.391767841672	1
0	7475	1385.376511082495	0
0	7481	1386.820302825236	1
0	7482	1387.07016107497	0
0	7488	1390.392218596777	1
0	7489	1390.521465767397	0
0	7520	1396.748951451441	1
0	7521	1397.275565693151	0
0	7535	1399.089898500815	1
0	7541	1400.082070486399	2
0	7542	1400.270379162438	1
0	7547	1401.305493372299	0
0	7598	1410.234388680086	1
0	7600	1410.408708358694	2
0	7602	1411.017260157779	3
0	7604	1411.625854328445	2
0	7610	1411.776849461722	3
0	7613	1412.208687557631	2
0	7618	1412.461157120529	1
0	7624	1412.725753769569	2
0	7628	1413.389678255271	3
0	7629	1413.73447095593	2
0	7638	1415.213762022443	1
0	7643	1417.113945782317	0
0	7666	1421.286385215475	1
0	7667	1421.304675401028	0
0	7681	1423.259733193827	1
0	7684	1423.575494712755	2
0	7685	1425.416702666333	1
0	7690	1425.61220370573	0
0	7734	1430.965010246086	1
0	7737	1431.23669647476	2
0	7738	1431.252396642135	1
0	7747	1432.604619994485	0
0	7766	1435.942383266154	1
0	7768	1436.689206350608	2
0	7771	1437.183006945449	1
0	7776	1438.360668093012	0
0	7788	1439.589984435397	1
0	7790	1439.598910271577	2
0	7791	1439.710225665647	1
0	7803	1441.25180434299	0
0	7858	1454.783181345913	1
0	7859	1454.827563417094	0
0	7866	1455.666457878791	1
0	7867	1455.942921946396	0
0	7879	1456.522237157041	1
0	7882	1457.257122532381	0
0	7928	1464.666762602347	1
0	7929	1464.793894283975	0
0	7933	1468.659847209274	1
0	7935	1469.118753860738	2
0	7938	1470.399781043679	1
0	7943	1472.697303481197	0
0	7947	1472.788637175951	1
0	7949	1472.82262010906	2
0	7953	1474.732072617203	3
0	7954	1475.33305700201	2
0	7959	1476.469488842063	1
0	7964	1477.820048121886	0
0	7979	1479.544959806419	1
0	7981	1480.217884151332	0
0	7993	1481.599087285735	1
0	7994	1482.3206890026	0
0	8019	1487.381474919948	1
0	8020	1487.844742978566	0
0	8026	1487.932613542075	1
0	8027	1488.090370828233	0
0	8057	1508.697748816747	1
0	8061	1508.806319030966	2
0	8062	1509.10203258924	1
0	8068	1509.290786092024	2
0	8069	1509.871852935338	1
0	8077	1510.13552848253	2
0	8078	1510.866290700009	1
0	8083	1511.787984483884	0
0	8089	1513.471771453687	1
0	8091	1513.611209051502	2
0	8092	1513.786912121683	1
0	8100	1515.00719969694	2
0	8101	1515.22406930326	1
0	8105	1515.984029154249	2
0	8109	1516.644799875413	3
0	8110	1516.890047562728	2
0	8118	1517.884091989595	3
0	8119	1518.509545291183	2
0	8125	1518.975443570734	3
0	8126	1519.186535337872	2
0	8131	1519.271927066077	1
0	8136	1520.937948244116	0
0	8140	1521.167299371681	1
0	8144	1523.707197968523	0
0	8156	1524.356422305581	1
0	8157	1524.422111773191	0
0	8168	1525.708217782875	1
0	8169	1526.226360258462	0
0	8187	1527.169557230466	1
0	8188	1527.26679194393	0
0	8194	1528.596713867407	1
0	8197	1529.154186806293	0
0	8203	1531.686927684171	1
0	8206	1532.914384847005	0
0	8214	1533.506392325091	1
0	8215	1534.016922494828	0
0	8221	1534.117279173138	1
0	8223	1534.302191665754	2
0	8225	1534.818650530235	1
0	8229	1535.138642398417	2
0	8233	1535.524302820906	3
0	8235	1537.132895135748	4
0	8240	1537.710715819264	3
0	8246	1538.458145411823	2
0	8254	1540.03416381271	1
0	8260	1540.936224371008	2
0	8262	1541.211520588201	1
0	8268	1541.860884267318	2
0	8270	1542.208065025274	3
0	8271	1542.32345372403	2
0	8277	1544.648727413592	1
0	8283	1544.706816606545	2
0	8284	1544.902338928427	1
0	8290	1546.065908853361	0
0	8296	1546.568288262019	1
0	8297	1546.659914589912	0
0	8301	1546.921178933344	1
0	8305	1548.798761366074	0
0	8311	1550.137994684417	1
0	8318	1552.064668381367	0
0	8340	1552.994626504697	1
0	8342	1553.534302642852	0
0	8365	1560.022559630899	1
0	8366	1560.042385502496	0
0	8385	1564.531886631714	1
0	8386	1564.559555304837	0
0	8397	1565.529391278599	1
0	8400	1565.911675145484	2
0	8403	1566.402878474897	1
0	8407	1567.088035799258	2
0	8409	1567.328477493537	3
0	8412	1567.969706645095	2
0	8419	1568.853425869121	1
0	8423	1569.038505863997	2
0	8426	1569.526419845102	1
0	8434	1570.308385370308	0
0	8446	1572.896401939509	1
0	8447	1574.170798319783	0
0	8451	1574.368272480096	1
0	8453	1575.891267485081	2
0	8456	1577.840029816902	1
0	8462	1578.083617222293	0
0	8483	1580.114376309536	1
0	8489	1582.48640033569	2
0	8490	1582.61028610107	1
0	8495	1583.301590434011	0
0	8505	1584.906170893654	1
0	8508	1585.491292054453	2
0	8509	1586.383623223589	1
0	8515	1587.477945968405	0
0	8547	1593.737892108337	1
0	8549	1594.323066951145	2
0	8550	1595.764207899549	1
0	8556	1595.991876909194	2
0	8557	1596.080762492834	1
0	8563	1596.128038432185	2
0	8564	1596.267200944444	1
0	8570	1597.208371017505	2
0	8572	1597.481652829967	3
0	8574	1597.509568183418	4
0	8575	1597.565557886271	3
0	8579	1598.577098996695	4
0	8582	1599.595360086805	3
0	8588	1599.945940586589	4
0	8591	1601.251032184224	3
0	8597	1601.884312454389	2
0	8603	1602.025003403557	3
0	8604	1602.302314457455	2
0	8609	1602.449229234236	1
0	8614	1603.625524009375	0
0	8624	1604.436277806682	1
0	8626	1604.552948878218	2
0	8628	1604.595468419722	3
0	8629	1605.065387050321	2
0	8634	1605.128222708147	1
0	8642	1606.260694573136	2
0	8644	1606.324462558343	1
0	8649	1606.778948199032	0
0	8655	1607.919342391486	1
0	8659	1608.814231893489	2
0	8660	1608.844454313777	1
0	8664	1610.339799150037	2
0	8670	1614.311619041837	1
0	8678	1615.08330445738	0
0	8688	1615.488173358185	1
0	8689	1615.774566282636	0
0	8696	1615.948492448833	1
0	8697	1616.390829098599	0
0	8704	1617.125711974595	1
0	8705	1617.626640383977	0
0	8720	1619.993710494385	1
0	8721	1621.027355879966	0
0	8746	1624.091594221343	1
0	8748	1624.780167481807	0
0	8797	1636.914521870029	1
0	8798	1637.451125999102	0
0	8804	1637.496700347011	1
0	8805	1638.25555222591	0
0	8813	1639.755375804158	1
0	8814	1640.06893748748	0
0	8878	1651.745002833609	1
0	8880	1652.925174321326	0
0	8916	1660.944912550878	1
0	8917	1661.036373090421	0
0	8949	1667.974940877277	1
0	8950	1669.477973972814	0
0	9001	1685.875016650679	1
0	9003	1686.442273402299	2
0	9004	1686.535542605945	1
0	9011	1686.883411168042	0
0	9023	1688.708545573567	1
0	9028	1690.131166928067	0
0	9083	1706.356163190611	1
0	9086	1707.171453095572	0
0	9142	1713.550918370441	1
0	9150	1716.51108932845	2
0	9151	1716.570590402976	1
0	9156	1717.425258629038	0
0	9195	1727.924341109439	1
0	9196	1729.311693875115	0
0	9204	1730.198977488538	1
0	9206	1730.394097185965	2
0	9207	1730.963762896949	1
0	9211	1732.241613602337	2
0	9216	1735.573044067593	1
0	9220	1735.837611632823	2
0	9223	1736.262630690298	1
0	9230	1737.694274550213	2
0	9231	1737.901317955024	1
0	9237	1739.214236489909	2
0	9238	1739.831134044347	1
0	9243	1741.237612556597	0
0	9289	1747.284918071748	1
0	9290	1747.581773848581	0
0	9299	1748.059233512543	1
0	9303	1749.632570219075	2
0	9312	1751.419932950764	1
0	9318	1751.494743449049	2
0	9320	1751.732351143227	1
0	9325	1752.817445803306	0
0	9332	1753.326581004055	1
0	9334	1753.349193979697	2
0	9335	1753.369194169209	1
0	9341	1753.459512020982	0
0	9345	1755.4513674122	1
0	9349	1756.805868420844	2
0	9353	1757.672113503626	3
0	9354	1757.848235637574	2
0	9364	1759.218286599948	3
0	9366	1759.780164077359	4
0	9367	1760.167534369716	3
0	9374	1762.878331568679	2
0	9379	1763.170247620969	1
0	9385	1763.453049393124	2
0	9386	1763.579552422329	1
0	9393	1764.650117835644	0
0	9405	1765.760549053941	1
0	9407	1765.907045430222	2
0	9410	1767.977653580545	1
0	9422	1769.13174951603	2
0	9425	1771.511897925642	3
0	9426	1771.645328508748	2
0	9431	1771.810818266614	1
0	9438	1773.837863010415	0
0	9447	1774.580072952655	1
0	9458	1776.140703622473	0
0	9475	1778.49243165296	1
0	9476	1778.637182752887	0
0	9493	1781.633267340843	1
0	9498	1783.300271481831	0
0	9508	1784.423373341814	1
0	9510	1785.815999830119	2
0	9512	1785.896779686694	3
0	9516	1789.879430615475	4
0	9518	1790.524439853961	5
0	9520	1790.767581602519	6
0	9523	1791.676688107217	5
0	9529	1792.392748458883	6
0	9530	1792.426092798636	5
0	9537	1793.328308641507	6
0	9539	1793.492297507555	5
0	9546	1794.248278261509	4
0	9553	1794.441712798021	5
0	9557	1795.149740970885	6
0	9558	1795.187371836249	5
0	9563	1795.268441174296	4
0	9567	1795.879231949453	5
0	9569	1796.308401176955	6
0	9575	1797.086651717079	5
0	9581	1797.250511299412	4
0	9586	1798.560168157805	3
0	9597	1800.30507660974	4
0	9598	1800.352885997084	3
0	9607	1802.608570970924	2
0	9614	1802.783814268383	1
0	9620	1803.170841428075	2
0	9621	1803.211759763032	1
0	9625	1803.317019290933	2
0	9627	1803.366768938083	3
0	9631	1804.349505144571	2
0	9637	1805.083438652597	3
0	9638	1805.293116841072	2
0	9642	1805.703754786583	3
0	9648	1807.823169714464	4
0	9651	1808.506917084526	3
0	9655	1809.215384076353	4
0	9657	1809.306227004002	5
0	9663	1810.247026861788	6
0	9664	1813.045754928489	5
0	9669	1813.637632108615	4
0	9676	1816.954261103225	3
0	9680	1817.413724665374	4
0	9682	1818.765489858866	5
0	9687	1820.515394883893	4
0	9692	1823.155331698049	3
0	9697	1823.369990857234	2
0	9702	1824.224575120135	1
0	9707	1824.458723351237	0
0	9725	1825.667276578049	1
0	9729	1826.754818120518	0
0	9735	1827.216817989393	1
0	9737	1827.288466298491	2
0	9738	1827.36876589103	1
0	9745	1827.794995647812	2
0	9747	1829.109879617468	1
0	9755	1829.329138346866	2
0	9757	1829.595073230464	1
0	9764	1829.970820343874	0
0	9771	1830.594358915691	1
0	9772	1830.755383020278	0
0	9783	1831.6924774448	1
0	9785	1832.295167286022	0
0	9822	1836.700028676026	1
0	9825	1837.693860793394	0
0	9842	1840.342917814981	1
0	9845	1840.848184284933	0
0	9863	1842.255511945255	1
0	9865	1842.49905045339	2
0	9868	1843.960835109616	3
0	9870	1843.967472036699	4
0	9872	1844.05287511992	5
0	9873	1844.245936015089	4
0	9878	1844.370927351469	3
0	9884	1844.552771921775	2
0	9890	1844.946610414566	1
0	9896	1845.045849589646	2
0	9897	1845.57804511158	1
0	9909	1847.70820865597	2
0	9912	1848.415573244722	1
0	9919	1852.281226973587	0
0	9930	1852.832997837324	1
0	9932	1853.224497840948	0
0	9936	1853.309457118347	1
0	9944	1854.402057076397	2
0	9946	1854.778627446143	1
0	9953	1855.084459636478	0
0	9981	1858.168549573606	1
0	9985	1858.318145567584	2
0	9987	1858.415037972639	3
0	9989	1858.852928448959	2
0	9994	1859.149132228592	1
0	10005	1859.975403446646	0
0	10036	1864.094284159021	1
0	10037	1864.717739010698	0
0	10049	1865.404591223403	1
0	10050	1865.554749121332	0
0	10064	1867.052117738942	1
0	10065	1868.220957601999	0
0	10074	1869.360499114537	1
0	10076	1869.688389247186	2
0	10081	1870.262295221813	1
0	10087	1871.461583152546	0
0	10094	1871.969298553713	1
0	10095	1872.925271909941	0
0	10109	1874.324720654644	1
0	10113	1877.571349087508	2
0	10116	1878.352931548715	1
0	10122	1878.411501262092	0
0	10128	1879.161595938722	1
0	10129	1879.981006927329	0
0	10171	1887.639246702954	1
0	10172	1888.054308716914	0
0	10188	1889.698563245029	1
0	10190	1889.874689982976	0
0	10205	1891.463035087039	1
0	10208	1892.635867216114	0
0	10219	1893.58791695427	1
0	10220	1894.39528818046	0
0	10235	1896.176404956099	1
0	10237	1896.227197344923	2
0	10240	1896.858717825557	1
0	10246	1897.489613974795	0
0	10259	1898.67163491581	1
0	10262	1899.125839995292	0
0	10268	1899.327279106755	1
0	10269	1899.599226916171	0
0	10316	1904.339067965656	1
0	10318	1905.195337161516	2
0	10320	1906.146530050108	3
0	10322	1906.982753808598	4
0	10325	1908.175036656063	3
0	10331	1909.454652567138	2
0	10337	1909.590630262779	3
0	10339	1909.705012215346	4
0	10340	1909.753117039649	3
0	10345	1909.841496078594	2
0	10350	1911.376416869662	1
0	10354	1911.401528142086	2
0	10358	1912.29954895546	3
0	10362	1913.458673550516	2
0	10366	1915.073047239032	3
0	10368	1915.123437257679	4
0	10372	1916.093292467104	3
0	10377	1916.592590688342	2
0	10382	1917.882893135699	1
0	10388	1920.394377531823	0
0	10400	1921.365784429655	1
0	10402	1921.383071350099	2
0	10404	1921.768692512745	1
0	10411	1922.612755452358	2
0	10412	1923.802392734767	1
0	10418	1924.70029204785	2
0	10419	1925.570261009198	1
0	10423	1925.767291218533	2
0	10427	1926.895647759039	1
0	10432	1927.140765797735	0
0	10465	1934.03522623187	1
0	10466	1934.646169365862	0
0	10477	1940.824186995352	1
0	10479	1940.99920589785	2
0	10482	1942.151293996896	1
0	10488	1942.654894757454	0
0	10502	1943.40267729691	1
0	10504	1943.517612867253	2
0	10505	1944.330142533491	1
0	10510	1944.516069888999	0
0	10519	1946.596493545466	1
0	10520	1946.639032502353	0
0	10532	1948.040725559511	1
0	10533	1948.119891050889	0
0	10551	1951.704401960657	1
0	10554	1951.819477094667	0
0	10565	1954.384368061721	1
0	10566	1954.398200937226	0
0	10582	1957.373351729899	1
0	10583	1957.775415428286	0
0	10589	1958.800900924889	1
0	10590	1959.149105965811	0
0	10603	1961.695623237919	1
0	10605	1962.670893385859	0
0	10611	1962.844054598064	1
0	10613	1963.10970457955	0
0	10617	1963.778163550837	1
0	10620	1964.533318231443	0
0	10624	1966.03973895889	1
0	10629	1966.606095547877	0
0	10667	1972.823150251375	1
0	10669	1973.587121879458	0
0	10692	1979.706187842081	1
0	10693	1980.159684220613	0
0	10712	1981.96409460116	1
0	10716	1984.485289079413	0
0	10723	1985.171477604914	1
0	10726	1985.801665486484	0
0	10758	1989.612300201185	1
0	10764	1990.356312533893	2
0	10767	1990.626165656202	1
0	10773	1991.365733736316	0
0	10786	1993.43027297403	1
0	10787	1993.459595138338	0
0	10796	1994.439655773551	1
0	10798	1994.716919192398	2
0	10800	1994.838417258467	3
0	10802	1994.942314101251	4
0	10804	1995.12684067005	5
0	10805	1995.778497721736	4
0	10810	1995.83134377369	3
0	10814	1996.673938259632	4
0	10817	1998.628353545023	3
0	10827	2002.593712582413	2
0	10833	2002.740799145689	3
0	10834	2002.913842022587	2
0	10839	2003.895954448695	1
0	10843	2003.948737910559	2
0	10847	2006.091080396961	1
0	10853	2006.388720197334	2
0	10854	2006.928571028637	1
0	10860	2007.910392940273	2
0	10863	2009.385529576793	1
0	10867	2010.277068083856	2
0	10869	2010.438777312292	3
0	10872	2012.376974714587	2
0	10876	2013.763940381105	3
0	10881	2015.262538392302	4
0	10884	2015.605686636181	5
0	10886	2016.059224918262	4
0	10892	2016.780119615762	3
0	10899	2019.229601067898	4
0	10900	2019.487509047499	3
0	10905	2019.694378528884	2
0	10910	2021.54798846306	1
0	10915	2021.818019018813	0
0	10919	2021.821601476972	1
0	10923	2022.384423784513	0
0	10929	2022.441796592892	1
0	10933	2022.707100717205	2
0	10936	2022.96346033525	1
0	10940	2023.094264813858	2
0	10942	2024.081606363985	3
0	10950	2026.17049930518	2
0	10957	2026.510671616982	3
0	10959	2026.538318462618	4
0	10962	2029.925223216298	3
0	10967	2030.7131883162	2
0	10972	2031.140383697538	1
0	10977	2031.644907106056	0
0	10983	2032.512009304891	1
0	10985	2032.829201440369	0
0	11005	2034.766979934459	1
0	11006	2034.767468578808	0
0	11025	2036.742255910735	1
0	11027	2037.803449969401	2
0	11032	2038.543145861655	3
0	11033	2040.674782493955	2
0	11039	2040.844724781705	3
0	11042	2041.342564200949	4
0	11047	2042.497210003207	5
0	11048	2042.555641804485	4
0	11054	2042.585892019149	5
0	11055	2042.62611386322	4
0	11062	2042.95492634978	5
0	11063	2043.513035010157	4
0	11068	2043.526379799828	3
0	11073	2043.961966690662	2
0	11079	2044.198060766496	3
0	11082	2045.944170297971	2
0	11086	2046.454028267839	3
0	11089	2047.382092808264	2
0	11094	2047.9748387807	1
0	11098	2048.176432962142	2
0	11103	2049.519664118257	1
0	11107	2049.627132780691	2
0	11109	2050.296011831051	3
0	11111	2051.686855901659	4
0	11116	2053.207276394849	5
0	11119	2053.901704956405	4
0	11124	2054.7717181046	3
0	11128	2054.846284265047	4
0	11133	2055.686985437782	3
0	11140	2058.33421670245	2
0	11146	2059.45390219089	3
0	11149	2061.569234339803	2
0	11159	2062.274638859666	3
0	11161	2062.864628059567	4
0	11162	2063.699838994334	3
0	11167	2064.150785095464	2
0	11174	2064.663776872101	1
0	11179	2068.339568467021	0
0	11185	2070.41359002379	1
0	11187	2071.215157330901	0
0	11203	2072.467444385782	1
0	11211	2073.747701456837	0
0	11234	2077.496725215754	1
0	11235	2078.266551698117	0
0	11247	2079.724139251018	1
0	11248	2079.955477253672	0
0	11279	2082.308375400038	1
0	11280	2082.552442118302	0
0	11289	2083.374879120702	1
0	11292	2084.742614891332	0
0	11326	2089.62536738508	1
0	11327	2089.872723217036	0
0	11354	2094.837898480144	1
0	11355	2094.969889889928	0
0	11367	2096.915656771447	1
0	11368	2097.563203924331	0
0	11379	2098.23056033278	1
0	11380	2098.369553683209	0
0	11399	2102.48960276322	1
0	11401	2103.513417678029	2
0	11405	2105.334717897699	3
0	11407	2106.594657389192	2
0	11412	2106.793542063277	1
0	11417	2107.61914246544	0
0	11423	2108.944288962069	1
0	11428	2109.348828008655	0
0	11442	2111.18936495705	1
0	11444	2112.153031838354	0
0	11448	2112.172765793126	1
0	11450	2112.703159768758	2
0	11452	2113.347506599405	3
0	11454	2113.658133679118	4
0	11456	2114.037975650814	5
0	11460	2114.869005506776	6
0	11464	2115.801973488177	7
0	11465	2116.279630758047	6
0	11469	2116.507896564548	7
0	11472	2117.685588818741	6
0	11476	2118.040598347939	7
0	11481	2119.232847516729	6
0	11485	2119.737780320344	7
0	11488	2120.222132685405	6
0	11493	2120.326486317746	5
0	11497	2120.676054195652	6
0	11503	2122.535386700833	5
0	11510	2124.683275460222	4
0	11517	2128.536350990159	5
0	11518	2128.749782904115	4
0	11525	2131.566369185093	3
0	11532	2133.281996232698	2
0	11538	2133.610607441943	3
0	11539	2133.825444845632	2
0	11544	2133.906840862512	1
0	11550	2134.708145451926	2
0	11551	2136.050451744897	1
0	11555	2136.3071775131	2
0	11562	2137.839836445639	1
0	11568	2138.589335603549	2
0	11569	2138.819396009981	1
0	11574	2139.091261126915	0
0	11623	2147.052850559248	1
0	11624	2147.246155490174	0
0	11630	2149.291221393529	1
0	11631	2149.623298622662	0
0	11640	2150.743091915506	1
0	11643	2151.274618110726	2
0	11644	2151.341884057012	1
0	11650	2151.721504452499	2
0	11652	2151.763027725741	3
0	11653	2151.909109597087	2
0	11659	2152.036567769851	3
0	11660	2152.22171188422	2
0	11665	2152.507991280505	1
0	11670	2152.865315618171	0
0	11700	2157.217800057553	1
0	11705	2158.052261008893	0
0	11767	2163.51030773506	1
0	11768	2163.541726225085	0
0	11781	2166.270039452586	1
0	11785	2168.072068161479	2
0	11789	2169.501766282768	1
0	11799	2170.352827630201	0
0	11869	2181.74471656766	1
0	11873	2183.760863558888	2
0	11878	2184.659821255454	1
0	11883	2184.972308598853	0
0	11948	2198.965315977218	1
0	11949	2199.141124235968	0
0	11964	2200.847071538797	1
0	11967	2201.733011713634	2
0	11968	2202.120335770833	1
0	11974	2202.390996891665	2
0	11977	2202.428514473997	1
0	11983	2203.83099947156	0
0	11987	2204.234500466169	1
0	11991	2204.625000504553	2
0	11992	2204.748431400396	1
0	11996	2204.818406797342	2
0	12000	2207.017406958439	3
0	12003	2207.470113045204	2
0	12009	2208.441378425768	3
0	12011	2208.507922949607	4
0	12012	2208.604498809726	3
0	12020	2209.748681488644	4
0	12021	2210.690779932064	3
0	12026	2211.001128496797	2
0	12031	2211.189670594987	1
0	12036	2215.023568439497	0
0	12066	2221.447763231233	1
0	12069	2223.450637476073	0
0	12132	2233.111719278057	1
0	12133	2233.534662536798	0
0	12156	2238.513159034772	1
0	12158	2238.92999992597	2
0	12159	2238.961844781581	1
0	12163	2239.512870742044	2
0	12167	2239.984315311151	1
0	12172	2240.690888044819	0
0	12176	2240.856348242571	1
0	12179	2241.57226482824	0
0	12190	2244.641710954645	1
0	12193	2245.568897566374	0
0	12197	2246.109084574344	1
0	12202	2248.434868869434	0
0	12206	2249.871892790577	1
0	12208	2250.151896702102	2
0	12211	2251.279777796413	1
0	12216	2252.018766899696	0
0	12245	2255.091147934387	1
0	12246	2255.280286652352	0
0	12250	2255.542194941746	1
0	12253	2256.622422419253	0
0	12318	2272.733677592359	1
0	12320	2274.572142831269	0
0	12331	2275.444652879952	1
0	12333	2275.705168381419	2
0	12335	2276.201189317595	1
0	12340	2276.370065204081	0
0	12354	2279.174190758506	1
0	12356	2279.54649566144	2
0	12357	2279.683468216173	1
0	12363	2280.057163298362	2
0	12364	2280.560524625877	1
0	12369	2281.694421086092	0
0	12373	2282.016330804298	1
0	12377	2285.447835780081	2
0	12379	2286.301281348367	3
0	12380	2286.341037112843	2
0	12386	2288.76377942898	1
0	12392	2289.159503440684	2
0	12394	2289.573345201939	3
0	12395	2289.784027913826	2
0	12400	2291.857309188907	1
0	12406	2292.601233982222	2
0	12408	2293.254221403799	1
0	12413	2293.521979917398	0
0	12419	2294.007927171991	1
0	12422	2294.393729359827	0
0	12426	2295.135248274534	1
0	12428	2295.23093942127	2
0	12431	2295.716537870297	1
0	12435	2296.004498992515	2
0	12438	2296.623393871993	1
0	12442	2296.922145337321	2
0	12445	2297.439376579568	1
0	12451	2297.744345542727	2
0	12452	2298.05164084575	1
0	12457	2298.247266551421	0
0	12465	2299.940845266168	1
0	12466	2300.758422008594	0
0	12544	2314.530639247358	1
0	12545	2314.838122932316	0
0	12551	2315.419869037422	1
0	12552	2315.464799906973	0
0	12562	2317.528029056335	1
0	12565	2319.172936109491	0
0	12607	2329.87187608738	1
0	12608	2330.288646260118	0
0	12650	2340.498452587267	1
0	12651	2340.785019628546	0
0	12671	2342.988241554919	1
0	12674	2343.805427497256	0
0	12680	2344.920487891491	1
0	12683	2345.089730542882	2
0	12685	2346.087094089606	1
0	12690	2346.152014235887	0
0	12702	2347.579346331361	1
0	12707	2349.801005491381	2
0	12709	2350.951497670498	3
0	12711	2351.206052979081	4
0	12715	2353.667816128822	5
0	12716	2354.337009663558	4
0	12721	2354.635789907672	3
0	12728	2355.734994408603	4
0	12729	2356.789275775191	3
0	12735	2357.539994818505	4
0	12736	2358.944567764598	3
0	12741	2359.318490573423	2
0	12746	2360.808331442618	1
0	12751	2364.219054993652	0
0	12755	2365.163834653306	1
0	12757	2365.28876030964	2
0	12762	2368.184690503219	1
0	12767	2368.61385293175	0
0	12773	2371.269692953929	1
0	12775	2371.805491255668	2
0	12777	2372.490833683892	3
0	12782	2372.85008168274	2
0	12791	2376.902737834963	3
0	12792	2377.179891628381	2
0	12797	2377.321558345122	1
0	12801	2377.575878612605	2
0	12805	2378.434283460066	3
0	12808	2379.346968031768	2
0	12814	2380.642386012712	3
0	12821	2381.326788217781	2
0	12829	2381.996212008512	1
0	12837	2383.008988932214	2
0	12838	2383.136237544376	1
0	12843	2384.074771166174	0
0	12859	2385.004727570242	1
0	12863	2386.128923207593	0
0	12885	2392.945728158258	1
0	12887	2393.624305847015	2
0	12890	2394.596660398634	1
0	12897	2395.594733495146	2
0	12899	2395.948197542081	3
0	12900	2396.228184638763	2
0	12905	2397.759717893839	1
0	12911	2398.925545857267	0
0	12915	2399.060218692427	1
0	12917	2399.142188240205	2
0	12919	2399.765385699264	3
0	12921	2400.190494993725	4
0	12923	2400.352626614333	5
0	12925	2401.380023848759	6
0	12927	2401.441271734281	7
0	12931	2402.475471873826	6
0	12935	2402.950184868895	7
0	12942	2408.117841638123	6
0	12947	2409.693133594798	5
0	12955	2411.388838855103	4
0	12961	2411.945655903744	5
0	12962	2411.974089909178	4
0	12966	2412.069933666057	5
0	12970	2412.845266996205	6
0	12971	2413.634864846494	5
0	12975	2413.64440033839	6
0	12978	2414.084307943791	5
0	12982	2415.621188479959	6
0	12984	2416.02372425988	7
0	12987	2418.017333295544	6
0	12991	2418.134610408731	7
0	12999	2422.657054732804	8
0	13000	2422.884130365328	7
0	13007	2424.206041521073	6
0	13011	2424.980681055032	7
0	13015	2426.123354412895	8
0	13019	2426.36860829058	7
0	13024	2426.466604287479	6
0	13037	2429.193115314025	7
0	13038	2429.194496608969	6
0	13044	2429.643819725043	5
0	13051	2429.870195063478	6
0	13052	2432.63694740229	5
0	13057	2433.134229591099	4
0	13062	2433.583705787482	3
0	13066	2434.173504453329	4
0	13069	2434.594996242614	3
0	13073	2434.907190332278	4
0	13080	2436.933062150742	5
0	13082	2437.126500549818	6
0	13084	2437.243037827855	7
0	13085	2440.568079911591	6
0	13092	2441.192146181067	7
0	13093	2441.233946029412	6
0	13098	2441.291065506645	5
0	13103	2441.46397368261	4
0	13109	2442.142656720593	5
0	13110	2442.656811340794	4
0	13115	2444.240903901552	3
0	13120	2444.37999015135	2
0	13126	2444.980254690355	3
0	13128	2445.460027046696	4
0	13129	2446.315576401873	3
0	13133	2447.123877200137	4
0	13135	2447.222334506885	5
0	13140	2447.568897793953	4
0	13146	2448.068932864852	5
0	13147	2448.263793545677	4
0	13151	2448.554513652841	5
0	13154	2449.390334204003	4
0	13162	2450.262702052402	5
0	13167	2451.306342961807	4
0	13171	2454.461776090699	5
0	13175	2456.607151136294	4
0	13181	2457.02879084801	3
0	13187	2457.04466804647	4
0	13189	2457.825893583805	3
0	13194	2457.933644784224	2
0	13200	2458.448544610716	3
0	13202	2458.618146076807	4
0	13205	2459.28944369172	3
0	13210	2460.783115288479	2
0	13216	2461.25198910292	3
0	13221	2466.486256715176	2
0	13226	2466.802059733368	1
0	13231	2470.556880848849	0
0	13251	2473.728650512384	1
0	13253	2474.443366372613	0
0	13284	2477.727588271119	1
0	13285	2477.825816062342	0
0	13293	2479.259990470149	1
0	13296	2480.437406406034	0
0	13308	2480.89189280803	1
0	13310	2481.181046648219	0
0	13316	2481.265687153387	1
0	13317	2481.271098491374	0
0	13335	2482.218704708775	1
0	13337	2482.329076963718	2
0	13339	2483.498618294266	1
0	13348	2484.847720186666	2
0	13349	2485.560795517044	1
0	13354	2486.125410915438	0
0	13368	2488.088943437809	1
0	13369	2488.19211269464	0
0	13396	2492.62274706205	1
0	13398	2492.920437204928	0
0	13414	2494.288549522437	1
0	13415	2494.640616373677	0
0	13429	2497.999611039902	1
0	13431	2498.546196955371	2
0	13434	2499.038856835265	1
0	13439	2499.073133261806	0
0	13453	2502.07718680815	1
0	13457	2502.926616593425	2
0	13459	2503.300116104788	3
0	13462	2504.050693136516	2
0	13467	2505.01489896171	1
0	13471	2505.188235923436	2
0	13474	2507.05338952899	1
0	13478	2508.514778526741	2
0	13483	2511.401090208567	1
0	13489	2512.035664630645	2
0	13491	2512.138608595786	1
0	13498	2513.335738398651	0
0	13535	2518.651913102997	1
0	13536	2518.849051230594	0
0	13545	2520.793332143103	1
0	13549	2521.341956135528	2
0	13553	2522.866795853118	1
0	13558	2523.169756678052	0
0	13577	2525.154463186547	1
0	13578	2525.503929839891	0
0	13589	2527.031155741864	1
0	13591	2528.266946575589	0
0	13605	2528.902987747913	1
0	13612	2530.983852110976	0
0	13621	2532.051445691764	1
0	13627	2533.029553111137	0
0	13635	2533.993887668456	1
0	13637	2534.393586736711	0
0	13644	2534.967480092384	1
0	13646	2535.061282919044	2
0	13647	2535.80671797097	1
0	13652	2536.21670971444	0
0	13678	2539.284596306214	1
0	13680	2540.2120311135	2
0	13682	2540.452647656489	3
0	13684	2543.031823313604	4
0	13686	2543.166722632119	5
0	13692	2544.646432444295	6
0	13694	2545.507103672175	7
0	13696	2546.300068389088	8
0	13698	2546.493078596952	9
0	13700	2547.680104702309	10
0	13703	2548.255129535803	9
0	13707	2548.49465750568	10
0	13709	2548.640937322164	11
0	13712	2548.732834264862	10
0	13718	2550.395107386181	11
0	13722	2553.235482079432	10
0	13726	2553.23589515015	11
0	13734	2555.135425174273	12
0	13736	2555.406292818543	11
0	13742	2556.919925024057	12
0	13743	2556.980519202388	11
0	13748	2560.115088023894	10
0	13755	2561.586651945483	11
0	13759	2562.856434519536	10
0	13764	2562.909659418224	9
0	13769	2563.28814142952	8
0	13773	2564.528794460501	9
0	13776	2564.857992826917	8
0	13782	2565.439487683361	9
0	13784	2565.537445723534	10
0	13787	2566.427624358185	9
0	13795	2567.466544358368	10
0	13797	2567.758088176205	11
0	13798	2567.899587806495	10
0	13802	2568.360594286267	11
0	13806	2569.151078688859	12
0	13808	2569.90389266553	13
0	13811	2570.133589012339	12
0	13816	2571.159354037992	11
0	13820	2572.015324934631	12
0	13822	2572.225537000011	13
0	13825	2572.766252996018	12
0	13829	2573.188857494086	13
0	13834	2575.672711416569	12
0	13838	2580.90663172235	13
0	13841	2581.254310089917	12
0	13846	2581.548277086878	11
0	13854	2584.279784662715	10
0	13861	2584.583160952772	11
0	13862	2584.793710969154	10
0	13868	2587.98773716331	9
0	13875	2589.003816941751	8
0	13881	2590.154075552175	9
0	13890	2591.966724970422	8
0	13897	2593.022461581425	7
0	13911	2595.587635138717	6
0	13916	2596.582727237142	5
0	13921	2596.608964543159	4
0	13926	2597.036501133501	3
0	13935	2598.792609021196	2
0	13940	2599.294773932548	1
0	13945	2600.152445602361	0
0	13949	2600.706828554399	1
0	13951	2602.253398177798	2
0	13954	2603.103197910931	1
0	13959	2604.435697947955	0
0	13967	2607.375506141044	1
0	13969	2607.611367270593	2
0	13972	2608.754094845088	1
0	13976	2609.918977362548	2
0	13980	2611.269847591355	1
0	13985	2611.758936137916	0
0	13993	2614.337245806234	1
0	13994	2614.384569239268	0
0	13998	2614.494236464084	1
0	14001	2614.70860845622	0
0	14067	2624.944573258008	1
0	14071	2627.11288896885	0
0	14080	2627.512290382068	1
0	14082	2628.072103856323	2
0	14084	2628.827872402853	3
0	14088	2630.876673890253	2
0	14094	2631.791008595803	1
0	14101	2632.458577428172	2
0	14102	2632.813680684881	1
0	14109	2633.335458246467	2
0	14110	2633.386632556561	1
0	14116	2635.931552106656	2
0	14118	2635.966941343184	3
0	14120	2636.363477041492	4
0	14122	2637.253081391105	5
0	14126	2638.904007732113	4
0	14131	2639.084674035643	3
0	14135	2639.698333116938	4
0	14142	2642.884062980034	3
0	14147	2643.518766347524	2
0	14152	2643.825667911337	1
0	14158	2644.331332403598	2
0	14163	2646.60827739995	1
0	14170	2648.061135642459	2
0	14172	2648.067037321266	3
0	14173	2648.352554916807	2
0	14181	2648.698938876675	1
0	14186	2651.117642980171	0
0	14192	2651.178518141873	1
0	14193	2651.462159809155	0
0	14199	2652.772709733761	1
0	14202	2653.717663799652	0
0	14208	2655.874913190019	1
0	14211	2657.111237742865	0
0	14215	2657.216054630317	1
0	14218	2658.245877053349	0
0	14224	2659.08049621269	1
0	14225	2659.394251851578	0
0	14236	2662.126496369434	1
0	14247	2663.980747348749	2
0	14248	2664.024621561346	1
0	14253	2664.073753336738	0
0	14264	2664.960372910271	1
0	14266	2665.567140162995	2
0	14269	2666.386559633664	1
0	14275	2666.722674364061	2
0	14276	2667.038015167375	1
0	14281	2667.582837197487	0
0	14316	2672.652484950807	1
0	14320	2673.706607297001	2
0	14325	2674.783956155645	1
0	14331	2674.928741506767	2
0	14333	2675.139893729871	1
0	14340	2676.193770981412	0
0	14351	2676.987751496228	1
0	14353	2678.546262374653	0
0	14399	2683.490601492428	1
0	14402	2684.291782496242	0
0	14409	2684.702724987821	1
0	14410	2685.146000741808	0
0	14435	2687.338414188844	1
0	14437	2688.124077389243	2
0	14439	2688.359353428214	3
0	14441	2690.177337268351	4
0	14442	2690.274360603485	3
0	14448	2690.280615200393	4
0	14451	2691.582146698505	3
0	14456	2691.928725521139	2
0	14462	2692.396826193589	3
0	14464	2692.912257208304	4
0	14467	2693.673576293287	3
0	14473	2694.866250185091	2
0	14482	2696.468385482167	3
0	14484	2696.730560667981	4
0	14486	2696.975482640999	5
0	14487	2697.17008563932	4
0	14493	2698.44931351943	3
0	14499	2699.753167479497	2
0	14506	2700.096475060906	1
0	14511	2700.132695298449	0
0	14519	2701.077331780926	1
0	14521	2701.301637486379	0
0	14527	2701.857172871494	1
0	14528	2701.921153807961	0
0	14543	2704.746023543396	1
0	14546	2705.789158009608	0
0	14559	2708.876463565484	1
0	14560	2708.946412440279	0
0	14597	2713.871645101869	1
0	14600	2715.583114808854	0
0	14614	2719.836748910836	1
0	14615	2720.276184887579	0
0	14629	2723.121632980631	1
0	14633	2724.961989107676	0
0	14656	2731.971266641286	1
0	14658	2732.848942761336	2
0	14660	2734.407410700584	3
0	14663	2736.116310552956	2
0	14670	2736.411098637742	1
0	14675	2736.544714580579	0
0	14686	2738.367946030464	1
0	14690	2739.857594099636	2
0	14701	2742.620405805156	1
0	14708	2743.143726803622	0
0	14723	2744.500044410601	1
0	14724	2746.19521216872	0
0	14750	2750.824052541356	1
0	14752	2751.012045133475	0
0	14775	2753.636431304625	1
0	14776	2753.647020086773	0
0	14788	2754.574729241726	1
0	14790	2755.689231360548	2
0	14791	2755.717977886099	1
0	14796	2755.835669532454	0
0	14805	2756.678872680761	1
0	14807	2756.835082932612	2
0	14811	2756.997512834956	3
0	14820	2758.824515539272	4
0	14821	2759.132512054395	3
0	14826	2759.249087327009	2
0	14833	2760.036748994251	1
0	14838	2760.69361019083	0
0	14844	2761.371893350138	1
0	14845	2761.538435294549	0
0	14868	2762.552264440475	1
0	14872	2763.542905226481	2
0	14874	2764.39253207133	3
0	14875	2764.468685835384	2
0	14881	2764.513214302466	3
0	14885	2764.79294560302	4
0	14888	2765.382382821736	3
0	14896	2766.973985697037	4
0	14897	2767.351446287881	3
0	14901	2768.037389597211	4
0	14905	2769.614191658555	5
0	14906	2769.753759576369	4
0	14910	2770.864387738745	5
0	14913	2772.213853918208	4
0	14918	2774.47153307435	3
0	14922	2774.814136499258	4
0	14925	2774.913546851345	3
0	14930	2776.385237820141	2
0	14936	2776.952139131387	3
0	14937	2776.985130491536	2
0	14946	2777.577627587469	3
0	14947	2778.407494119231	2
0	14952	2778.548912297892	1
0	14958	2778.820489148568	2
0	14963	2780.026477587513	1
0	14969	2783.714916628398	0
0	14993	2785.504550000587	1
0	14994	2786.580441332184	0
0	15000	2787.367495945288	1
0	15004	2788.557819811357	2
0	15011	2791.735675129242	3
0	15014	2792.040966052777	2
0	15021	2792.203641965922	3
0	15023	2792.394245224193	4
0	15025	2792.917016200931	5
0	15028	2794.185037593916	4
0	15034	2794.186190281223	5
0	15037	2794.962014693425	6
0	15038	2796.046915416902	5
0	15045	2796.506860229053	4
0	15050	2796.547014881889	3
0	15055	2796.904848719323	2
0	15059	2797.299428627174	3
0	15063	2799.12304965993	2
0	15074	2800.078731704827	3
0	15079	2801.84779324032	2
0	15084	2802.818766188108	1
0	15089	2802.876528706636	0
0	15100	2802.937504296769	1
0	15104	2803.74424940879	0
0	15129	2806.574736056416	1
0	15131	2807.051427771573	2
0	15132	2807.06692938323	1
0	15137	2807.092584223624	0
0	15168	2812.945428985974	1
0	15169	2813.094078051412	0
0	15175	2813.293752268218	1
0	15176	2813.344848227341	0
0	15219	2821.794634512832	1
0	15221	2822.858362174029	0
0	15273	2828.325235244484	1
0	15274	2828.715984605996	0
0	15290	2829.228727651522	1
0	15292	2829.991389425063	0
0	15302	2833.593150110332	1
0	15305	2833.901023454949	0
0	15321	2839.739800857061	1
0	15323	2841.32631286552	2
0	15325	2841.408081671765	3
0	15326	2841.505487967252	2
0	15331	2842.329688566722	1
0	15336	2842.369969215426	0
0	15370	2845.937419103862	1
0	15372	2845.989507786765	2
0	15374	2847.734855447468	1
0	15382	2848.650821757271	0
0	15427	2860.432298666123	1
0	15428	2860.912473205633	0
0	15448	2866.12604712952	1
0	15449	2866.407629331022	0
0	15460	2870.675981704124	1
0	15463	2871.826133852308	0
0	15476	2878.137578605386	1
0	15479	2878.497962298993	0
0	15510	2883.274463466575	1
0	15512	2885.338982241206	0
0	15525	2888.878335935287	1
0	15528	2889.423065711164	0
0	15534	2893.994314462781	1
0	15539	2899.039368180999	0
0	15543	2899.601930375125	1
0	15545	2902.185051994031	2
0	15547	2902.69791159238	3
0	15551	2903.601256078224	4
0	15553	2903.867112030307	5
0	15554	2904.870398355727	4
0	15558	2906.001777718431	5
0	15561	2906.361617894034	4
0	15565	2906.548086149276	5
0	15570	2908.518177065134	6
0	15572	2908.769074989206	5
0	15578	2909.768273812266	4
0	15583	2909.822119117224	3
0	15588	2910.33863928107	2
0	15595	2910.873645196158	1
0	15604	2912.822316788065	0
0	15628	2915.571251867552	1
0	15629	2916.45163556549	0
0	15635	2918.819828769837	1
0	15638	2921.997102030224	0
0	15642	2922.312187834196	1
0	15644	2922.550311951271	2
0	15647	2923.409512080907	1
0	15653	2924.75771350949	2
0	15654	2925.113134963884	1
0	15661	2927.038606091977	2
0	15662	2927.101625320489	1
0	15667	2927.319787634676	0
0	15671	2927.544105026601	1
0	15673	2929.81707993641	2
0	15675	2930.398067883761	3
0	15677	2931.309532616836	4
0	15681	2933.303315860545	5
0	15686	2935.444697160572	4
0	15694	2935.913568192164	3
0	15699	2935.981417938648	2
0	15704	2936.016313286564	1
0	15709	2936.989974119913	0
0	15715	2937.435299263157	1
0	15718	2938.389869804532	0
0	15769	2945.411514096268	1
0	15773	2945.968053247934	2
0	15774	2946.867421999201	1
0	15781	2947.097914308724	2
0	15783	2947.747879927669	3
0	15784	2948.733664179338	2
0	15790	2948.733813873229	3
0	15791	2948.901207278033	2
0	15797	2949.262500222328	3
0	15799	2949.417522338259	4
0	15801	2952.036194800588	5
0	15802	2952.125918914464	4
0	15807	2952.128262038089	3
0	15813	2952.816080721102	2
0	15818	2953.192435177506	1
0	15827	2955.389177375308	0
0	15835	2957.392137689842	1
0	15836	2957.638067865445	0
0	15840	2957.859456660388	1
0	15843	2958.541347290298	0
0	15854	2960.406921246992	1
0	15856	2960.866934504707	0
0	15868	2961.994896238434	1
0	15869	2962.328000789379	0
0	15875	2962.407249257189	1
0	15877	2962.617621215496	2
0	15878	2962.726823523421	1
0	15882	2963.149126212454	2
0	15884	2963.657373194419	3
0	15887	2964.268184750741	2
0	15895	2964.82398237922	1
0	15901	2965.238606085601	0
0	15945	2974.280449203774	1
0	15947	2974.93929765432	2
0	15951	2975.031282076095	3
0	15954	2977.045932838372	2
0	15958	2980.404523099939	3
0	15961	2981.508226934527	2
0	15968	2983.22573031647	1
0	15975	2984.287504621246	2
0	15977	2986.185712516099	3
0	15978	2987.618411582936	2
0	15985	2988.416611541528	1
0	15989	2988.558111262844	2
0	15993	2990.710529407774	3
0	15994	2991.350256248889	2
0	16000	2992.642932700121	3
0	16002	2992.659085171683	4
0	16006	2993.292014194997	5
0	16007	2993.659397059343	4
0	16016	2997.044519397512	3
0	16021	2997.161719644454	2
0	16030	2999.199504160404	1
0	16035	2999.246579923847	0
0	16054	3003.106370192865	1
0	16057	3003.92297347727	2
0	16058	3004.520828951923	1
0	16064	3004.977953565083	2
0	16065	3005.691771456989	1
0	16070	3007.439901416614	0
0	16084	3010.487918134828	1
0	16088	3011.751399157999	2
0	16092	3012.802433099453	3
0	16093	3013.006190577448	2
0	16101	3013.451377437416	1
0	16107	3013.795028374172	0
0	16118	3014.449823074506	1
0	16119	3014.496526131422	0
0	16125	3014.567523822258	1
0	16126	3015.017222967772	0
0	16137	3015.886261767292	1
0	16138	3016.303977842637	0
0	16146	3018.017647824675	1
0	16149	3018.627785330527	0
0	16179	3021.684394488788	1
0	16180	3022.194521117844	0
0	16264	3046.235634282929	1
0	16267	3046.634900486376	0
0	16274	3046.837097684739	1
0	16278	3047.004593263918	2
0	16280	3047.320595557324	3
0	16281	3048.77205726528	2
0	16286	3051.137383221818	1
0	16291	3051.477776358749	0
0	16303	3052.019406775841	1
0	16306	3053.143063809947	2
0	16310	3054.93639507828	3
0	16312	3055.894332828551	4
0	16313	3056.057838016113	3
0	16321	3056.543073143929	2
0	16326	3056.787999494782	1
0	16333	3057.281754080923	0
0	16339	3057.582637081488	1
0	16340	3057.883236643801	0
0	16352	3061.520759620928	1
0	16354	3061.538757837225	2
0	16355	3061.649140394219	1
0	16360	3061.81455195512	0
0	16382	3066.190441597708	1
0	16384	3066.746225347619	0
0	16454	3077.316529336559	1
0	16456	3077.694556963169	2
0	16458	3078.025957248146	3
0	16460	3078.54915337865	4
0	16462	3079.616833484909	5
0	16464	3080.361973656683	6
0	16466	3080.727735257534	7
0	16467	3080.813269729364	6
0	16477	3081.273095356648	5
0	16482	3081.724739374886	4
0	16487	3081.789350298742	3
0	16491	3083.41929147527	4
0	16495	3083.506912846875	3
0	16499	3084.602610280036	4
0	16502	3085.033235372229	3
0	16506	3085.046437468606	4
0	16510	3087.470655270808	5
0	16515	3088.19676178029	6
0	16516	3089.462327305075	5
0	16521	3090.178730613145	4
0	16525	3091.418435123853	5
0	16527	3091.673265565635	6
0	16530	3091.907699951084	5
0	16535	3092.50765531953	4
0	16539	3092.555870588852	5
0	16543	3093.360428983876	6
0	16547	3096.577066973591	7
0	16552	3097.512982579587	6
0	16556	3097.717145451602	7
0	16559	3098.422134728259	6
0	16564	3099.329503983068	5
0	16571	3100.809223339164	4
0	16577	3101.693358187438	5
0	16579	3102.788898309555	6
0	16585	3103.492360459903	7
0	16586	3103.638325410325	6
0	16592	3103.894340726211	7
0	16593	3103.996966279813	6
0	16599	3105.648772393134	7
0	16601	3106.216993734529	8
0	16604	3106.939288709944	7
0	16611	3108.691311970814	6
0	16618	3109.666685174201	7
0	16620	3109.753149965576	8
0	16622	3110.18886564538	9
0	16623	3110.324638720194	8
0	16628	3110.374515564862	7
0	16634	3111.109598167921	8
0	16636	3111.163973036343	9
0	16637	3111.272822984646	8
0	16642	3112.14736626	7
0	16649	3112.386416077669	8
0	16651	3112.681844007843	7
0	16659	3114.445858452879	8
0	16661	3115.31192099009	9
0	16662	3115.3558637223	8
0	16667	3115.552656907531	7
0	16674	3119.951707885542	6
0	16680	3120.902311589876	7
0	16682	3121.200600324435	8
0	16686	3122.006996425774	9
0	16688	3122.409230328173	8
0	16693	3122.76458911721	7
0	16697	3123.776439100887	8
0	16700	3126.498041150462	7
0	16705	3128.169874634391	6
0	16712	3129.12997432831	5
0	16717	3129.305377727329	4
0	16722	3130.803280761635	3
0	16728	3131.194626930318	4
0	16729	3131.308060512464	3
0	16733	3131.614568542622	4
0	16736	3133.322888547983	3
0	16744	3134.163127691506	4
0	16745	3134.71763416052	3
0	16751	3134.964489544263	4
0	16753	3135.49416592103	5
0	16754	3138.050418424715	4
0	16759	3138.566375428529	3
0	16765	3139.252386657127	4
0	16766	3139.29572499885	3
0	16772	3141.492330999513	4
0	16775	3143.20356880819	3
0	16783	3145.228493585718	4
0	16785	3145.806691631084	5
0	16786	3145.848192109662	4
0	16793	3147.092675925243	3
0	16797	3147.322931974821	4
0	16801	3148.176020184718	5
0	16802	3148.479569162792	4
0	16806	3149.336104327197	5
0	16808	3151.482631430948	6
0	16812	3152.85642377002	5
0	16820	3153.544010849294	4
0	16825	3154.380672787673	3
0	16830	3155.72604092411	2
0	16836	3156.147234378846	3
0	16837	3157.276567359613	2
0	16843	3157.754082443668	3
0	16844	3158.749267563868	2
0	16849	3159.208819160525	1
0	16853	3161.036854528747	2
0	16856	3161.851839002542	1
0	16863	3163.754917789694	0
0	16867	3164.324893220271	1
0	16869	3164.765979592223	2
0	16873	3165.149416106714	3
0	16874	3165.335465726672	2
0	16878	3165.513123602672	3
0	16881	3165.656436984903	2
0	16885	3166.147679170489	3
0	16890	3168.408684378927	2
0	16894	3168.884460549544	3
0	16896	3168.890077358156	4
0	16898	3170.136666119638	5
0	16902	3171.463616907181	6
0	16904	3171.881836563756	5
0	16910	3172.661404364308	6
0	16911	3173.122911581265	5
0	16915	3173.322917301361	6
0	16920	3173.83824721898	5
0	16925	3174.229210094123	4
0	16929	3174.666907312309	5
0	16933	3176.630313767927	6
0	16935	3176.635858733424	7
0	16937	3177.219104785318	8
0	16938	3177.716678762183	7
0	16944	3180.013779198613	8
0	16946	3181.365963514005	7
0	16951	3181.888624777715	6
0	16955	3182.471069999596	7
0	16962	3186.376744645841	6
0	16970	3189.005891141935	7
0	16974	3190.614668666069	8
0	16977	3190.74166180057	9
0	16978	3191.535916005862	8
0	16986	3192.347713716208	9
0	16987	3192.442966552185	8
0	16991	3193.558052101931	9
0	16996	3194.041592482139	10
0	16997	3194.205563701737	9
0	17003	3194.694244784512	10
0	17005	3195.23543729	9
0	17011	3196.087018209488	8
0	17016	3197.539109543234	7
0	17020	3198.489386420014	8
0	17022	3198.546589423597	9
0	17024	3199.212647195758	10
0	17026	3199.296000542337	11
0	17032	3201.648980683223	12
0	17034	3201.944340364058	13
0	17037	3202.067477709015	12
0	17042	3202.418288144312	11
0	17049	3202.793219776948	10
0	17053	3203.171916209871	11
0	17056	3206.634589933228	10
0	17062	3209.273096989299	9
0	17069	3210.865166187448	8
0	17074	3210.950002687318	7
0	17079	3211.579884536343	6
0	17083	3212.608323201225	7
0	17085	3212.631607523091	8
0	17088	3213.684759462489	7
0	17092	3214.048530549344	8
0	17094	3215.171009401459	9
0	17096	3215.331600715951	10
0	17099	3215.459411652997	9
0	17107	3217.599287759239	8
0	17112	3217.751771930757	7
0	17118	3219.036077814976	6
0	17124	3220.013392688195	5
0	17129	3220.134506390922	4
0	17135	3220.35557509186	3
0	17140	3221.461649227224	2
0	17144	3222.101385954997	3
0	17147	3223.267580749058	2
0	17156	3225.723911796339	1
0	17161	3226.900696911254	0
0	17167	3227.402945849291	1
0	17168	3227.488921926166	0
0	17176	3228.143097122563	1
0	17178	3229.237788994785	2
0	17179	3229.651914134861	1
0	17185	3230.121903031554	0
0	17191	3233.243065821807	1
0	17192	3233.632708408126	0
0	17198	3233.717254475695	1
0	17199	3234.58863101901	0
0	17203	3234.617529035046	1
0	17206	3237.583569686255	0
0	17218	3238.332266194775	1
0	17220	3238.862307887817	0
0	17228	3239.33934551441	1
0	17229	3240.634848721885	0
0	17243	3242.380649919937	1
0	17244	3242.490450570924	0
0	17256	3244.960358084429	1
0	17257	3246.374881126794	0
0	17274	3247.838628395174	1
0	17276	3247.889666334052	2
0	17280	3248.565935331542	3
0	17282	3248.884384183245	4
0	17285	3250.209581727398	5
0	17286	3250.84924363122	4
0	17291	3250.88753704064	3
0	17296	3251.430317725276	2
0	17303	3252.869409972537	3
0	17304	3253.440211907899	2
0	17311	3254.512197417841	1
0	17316	3255.381650918932	0
0	17320	3255.461581390383	1
0	17330	3259.486880009126	2
0	17331	3259.652702834943	1
0	17336	3260.368262524121	0
0	17357	3262.677884259561	1
0	17358	3263.447287086292	0
0	17365	3264.388586410799	1
0	17366	3264.603524940805	0
0	17372	3264.657859202982	1
0	17375	3264.708896065956	0
0	17379	3265.770074416572	1
0	17387	3266.92177793702	2
0	17389	3267.718713141398	3
0	17392	3268.360640170207	2
0	17398	3269.092506793363	1
0	17404	3269.159880683253	2
0	17405	3269.316124890235	1
0	17410	3270.083732213728	0
0	17447	3273.536862155653	1
0	17448	3274.705084440692	0
0	17454	3275.028402181414	1
0	17456	3275.98869496334	2
0	17457	3276.069526373802	1
0	17462	3276.524245448174	0
0	17469	3276.936572590704	1
0	17471	3278.406130392202	0
0	17483	3280.881997081729	1
0	17484	3281.673262053866	0
0	17504	3284.132500614072	1
0	17505	3284.516429631759	0
0	17513	3284.967032652783	1
0	17515	3285.710241478417	2
0	17517	3286.176979365335	1
0	17523	3286.797631416625	0
0	17531	3288.132334484125	1
0	17533	3289.105490601724	0
0	17558	3291.780896366706	1
0	17560	3293.915198388976	2
0	17562	3294.066218584188	3
0	17563	3294.542933342607	2
0	17569	3295.15972329278	3
0	17570	3295.160100239746	2
0	17575	3295.336417773766	1
0	17580	3295.373422180006	0
0	17584	3295.943519097972	1
0	17586	3296.755217958528	2
0	17588	3297.140613677769	3
0	17590	3297.686353705685	4
0	17593	3299.402641464511	3
0	17599	3301.054204409177	4
0	17603	3301.952173925437	3
0	17607	3302.012278875336	4
0	17610	3303.670246754595	3
0	17614	3304.510915978981	4
0	17616	3304.72583482259	5
0	17620	3304.78037440681	6
0	17623	3305.276496778284	5
0	17631	3306.695262716601	6
0	17632	3306.870531657168	5
0	17637	3307.429909262501	4
0	17649	3309.249030257284	5
0	17650	3309.455792575784	4
0	17660	3312.531675610676	3
0	17666	3313.691921469633	4
0	17667	3315.785018515723	3
0	17672	3316.11942564763	2
0	17680	3317.508588202627	3
0	17681	3318.714446457252	2
0	17689	3321.491392276598	1
0	17694	3321.533872330033	0
0	17717	3324.666008762248	1
0	17719	3325.447806005033	0
0	17734	3327.292433559605	1
0	17736	3327.512333465766	2
0	17738	3327.787768736503	3
0	17740	3327.924621803424	4
0	17744	3329.534796338238	5
0	17746	3332.429248487483	6
0	17750	3335.825451260159	5
0	17756	3336.068513080778	4
0	17761	3336.718641480889	3
0	17766	3336.792821947718	2
0	17782	3340.054799161499	1
0	17788	3340.271249503318	0
0	17818	3343.574949156593	1
0	17819	3343.981173974179	0
0	17850	3348.022023166937	1
0	17852	3348.153603244209	2
0	17856	3348.609249864167	3
0	17860	3350.0217379908	2
0	17865	3350.522711460096	1
0	17870	3351.52481834194	0
0	17916	3356.498627228099	1
0	17917	3356.778541749839	0
0	17927	3357.817251488679	1
0	17932	3359.728744625905	2
0	17933	3360.431703865539	1
0	17938	3360.54122369753	0
0	17949	3361.275080446835	1
0	17956	3363.871845831472	2
0	17957	3363.947369776685	1
0	17963	3364.083149597771	2
0	17965	3364.883974193709	1
0	17972	3365.925268645764	0
0	17987	3367.095462482085	1
0	17988	3367.356720088008	0
0	17992	3367.371374560254	1
0	17997	3369.049034486911	0
0	18003	3369.390217382871	1
0	18005	3370.026589685997	0
0	18009	3370.414597774778	1
0	18015	3372.625795971808	2
0	18016	3372.8881960423	1
0	18022	3373.406775481183	0
0	18030	3373.934209850049	1
0	18033	3374.83223161367	0
0	18050	3378.731187165563	1
0	18052	3380.282655532731	2
0	18053	3380.361873590856	1
0	18059	3380.541542483357	2
0	18061	3381.320120677851	3
0	18062	3384.371395737274	2
0	18066	3384.674397768844	3
0	18072	3385.369778020035	4
0	18073	3385.376514174689	3
0	18079	3386.286687503729	4
0	18081	3386.930767712865	3
0	18088	3388.773424311958	2
0	18094	3389.398784856067	3
0	18096	3389.468131012315	4
0	18097	3390.387383904437	3
0	18102	3390.770465570423	2
0	18106	3390.947017476292	3
0	18109	3392.749462668744	2
0	18113	3392.905405059658	3
0	18115	3393.28574682929	4
0	18117	3393.594622969348	5
0	18120	3396.548826825407	4
0	18124	3397.537012811528	5
0	18127	3399.116170700523	4
0	18132	3399.647646757044	3
0	18136	3400.634997213484	4
0	18141	3401.593906374804	3
0	18147	3401.983531032105	4
0	18149	3402.976872680114	5
0	18152	3404.295674542331	4
0	18157	3404.507448001728	3
0	18162	3405.299870073061	2
0	18169	3407.296769615592	1
0	18175	3408.644858026867	2
0	18178	3409.530595923789	1
0	18186	3409.88716223642	0
0	18216	3413.526673755563	1
0	18218	3414.149980097482	2
0	18220	3414.351826987318	3
0	18222	3414.539227900324	4
0	18226	3414.995916029705	5
0	18229	3415.578032865998	4
0	18235	3416.345536956418	5
0	18239	3418.737927878433	4
0	18244	3418.789391667585	3
0	18249	3419.017503592364	2
0	18253	3419.035975807919	3
0	18255	3419.187375182234	4
0	18261	3419.833492975036	5
0	18264	3421.646533737174	4
0	18269	3423.212188357149	3
0	18273	3423.240944677745	4
0	18275	3425.846828714277	5
0	18278	3426.687430551661	4
0	18283	3426.851539172292	3
0	18289	3428.587303003179	2
0	18293	3428.884101446818	3
0	18295	3429.139384280743	4
0	18297	3429.696889466094	5
0	18299	3430.593663094038	6
0	18301	3430.756992681426	7
0	18303	3431.004771457088	8
0	18306	3431.721972939671	7
0	18312	3432.268855518609	6
0	18317	3432.413246587891	5
0	18323	3433.56327149774	6
0	18324	3433.913068487145	5
0	18328	3434.246931205995	6
0	18330	3434.854752403825	7
0	18337	3436.630267060165	8
0	18338	3436.653117926324	7
0	18343	3436.877000713257	6
0	18351	3438.165056184563	5
0	18358	3439.139642863776	6
0	18359	3439.219833229099	5
0	18365	3439.615914917972	6
0	18368	3439.894207702347	5
0	18372	3440.002601264942	6
0	18375	3443.197611756223	5
0	18380	3445.985022161549	4
0	18385	3446.637818664219	3
0	18391	3447.651824227745	4
0	18392	3449.865977382596	3
0	18400	3454.384631884718	2
0	18408	3454.672220614615	3
0	18410	3455.847741374	4
0	18414	3456.773377092106	5
0	18415	3456.782916759219	4
0	18422	3457.749807773806	3
0	18427	3458.28709905998	2
0	18435	3459.320130978634	1
0	18440	3459.453576841715	0
0	18444	3459.8148615008	1
0	18446	3459.950788582637	2
0	18451	3461.099624700471	1
0	18455	3461.240819945847	2
0	18457	3461.39559701277	3
0	18460	3462.516410611248	2
0	18467	3463.822516607482	1
0	18471	3465.569861422435	2
0	18473	3466.022279316589	3
0	18477	3467.894251946155	4
0	18481	3469.710596534635	5
0	18482	3470.126676449229	4
0	18488	3470.788213881177	5
0	18489	3471.695593175682	4
0	18495	3473.275802940812	3
0	18500	3473.397060694306	2
0	18504	3473.652612629966	3
0	18509	3473.891672150466	2
0	18514	3474.478938750259	1
0	18518	3475.333624090815	2
0	18522	3476.17885170149	3
0	18523	3477.152739834253	2
0	18530	3479.466278813062	1
0	18534	3479.538832275287	2
0	18538	3479.935835278592	3
0	18539	3480.756803053407	2
0	18543	3481.695285213177	3
0	18545	3483.184002231136	4
0	18548	3483.765713511519	3
0	18557	3485.410554285499	4
0	18558	3485.440479354827	3
0	18563	3486.178743270772	2
0	18567	3486.311844112953	3
0	18571	3486.472609891371	4
0	18572	3486.536635371776	3
0	18581	3487.215191810701	2
0	18585	3487.746002876868	3
0	18589	3489.631713980259	4
0	18592	3490.546495364984	3
0	18599	3492.214783326973	2
0	18605	3494.68642546281	3
0	18606	3494.919981629309	2
0	18612	3496.575875516034	3
0	18615	3497.348349065	2
0	18622	3498.288026776359	1
0	18632	3500.010004933176	2
0	18634	3500.215323953456	1
0	18640	3500.313004976501	2
0	18641	3500.472622293952	1
0	18645	3500.587384915627	2
0	18649	3502.402864166082	3
0	18651	3502.480372440978	4
0	18653	3503.003241494653	5
0	18654	3503.117591459938	4
0	18660	3503.956756766006	5
0	18662	3504.276810508798	6
0	18666	3505.413685361712	5
0	18672	3506.189368165688	6
0	18673	3506.271105217314	5
0	18679	3508.328164144921	4
0	18684	3508.418046783322	3
0	18688	3509.677839460189	4
0	18691	3509.778352950647	3
0	18695	3509.960686504022	4
0	18701	3511.069590047225	3
0	18709	3511.487819632162	4
0	18710	3512.132020322076	3
0	18718	3512.724776213644	2
0	18723	3514.528422436005	1
0	18729	3516.005450355972	0
0	18735	3516.447424887299	1
0	18738	3516.578381610026	0
[...]
5	152456	27882.201256018963	3822.3453098365
5	152486	27885.135406329296	3822.3014286669
5	152493	27885.566572842747	3820.6283540283
5	152513	27891.956995167741	3824.9464082318
5	152796	27954.816870576496	3887.7745801056
5	152801	27954.976056153263	3881.3446284193
5	152811	27957.243885835954	3878.7050647972
5	152851	27961.714053467448	3880.8030202358
5	152860	27964.942872672625	3874.3611855077
5	152899	27968.31055546885	3875.0603147148
5	152904	27968.365951000953	3874.3859016675
5	152920	27972.847022360337	3877.0867268603
5	152946	27979.089959487935	3880.2583606729
5	152957	27980.060491947648	3879.6487466859
5	152964	27980.503818997764	3877.3354257795
5	152971	27981.313665820225	3875.6922387871
5	152982	27982.349135346193	3875.6577280216
5	152993	27985.274380682261	3873.266045958
5	153387	28058.539375776837	3941.9400540197
5	153712	28124.545145185686	4000.4525916398
5	153717	28124.612892584275	3999.5053621683
5	153728	28126.892685615611	3991.1190061082
5	153751	28132.08168270022	3991.1026265784
5	153775	28136.210231152682	3995.0906516344
5	153780	28136.552713421842	3994.2910712344
5	153792	28138.374942720278	3994.8158516148
5	153833	28142.998729731521	3999.1909356196
5	153894	28154.016890534756	4009.8436690986
5	153905	28154.782589346082	4003.7463503401
5	153915	28155.077714505561	3995.9711795991
5	153924	28158.132398506179	3992.5385366239
5	153940	28160.759462831649	3994.8741911788
5	153966	28168.15646610243	4001.6571383668
5	153977	28168.910680207573	3999.1358471614
5	153985	28170.043792859434	3996.6945381371
5	153996	28172.471850593301	3998.7040259822
5	154004	28173.676477263261	3993.1103543358
5	154020	28176.987151461715	3995.7857499313
5	154028	28177.584650231061	3991.4797207136
5	154033	28178.593312352759	3988.9851012946
5	154042	28181.274136084629	3986.9179800238
5	154289	28231.300060296986	4036.8578704333
5	154294	28231.431885954025	4035.6265666835
5	154300	28232.965757711602	4031.5641760216
5	154305	28235.081789125768	4031.7101913123
5	154316	28237.22588278749	4031.175828304
5	154348	28242.342672531856	4034.3942981503
5	154353	28242.671207982343	4031.2868041038
5	154358	28242.764660987231	4018.7094347167
5	154379	28248.069649841832	4023.7822604953
5	154440	28255.219649526771	4027.5992133847
5	154462	28258.10308907455	4029.8515365196
5	154467	28258.486324663657	4028.6324272868
5	154472	28258.685763389891	4028.5448862929
5	154482	28260.694753255581	4020.1446112754
5	154499	28261.505121643101	4018.6219085901
5	154507	28262.638934126899	4018.5036969254
5	154512	28262.754528924673	4014.9225359988
5	154520	28265.527524110207	4007.5078771128
5	154525	28265.986996040853	4007.9275320129
5	154534	28270.736948388274	4009.7756597978
5	154550	28273.457502545569	4011.0844728425
5	154572	28276.74022590613	4013.7141931926
5	154633	28287.169744457981	4016.3539028628
5	154644	28290.64657759736	4019.7096274941
5	154658	28292.606795450986	4015.367226725
5	154679	28296.965382945151	4007.9757840186
5	154693	28300.452738369097	4009.4019939801
5	154698	28301.1952498748	4007.7992932028
5	154703	28301.331766138622	3996.5065715168
5	154712	28305.405416608407	3997.5941555042
5	154735	28307.276765546994	3970.7997517497
5	154752	28309.842119295264	3963.386940564
5	154782	28317.459561386025	3963.9866992592
5	154787	28318.215299676089	3959.4123150442
5	154798	28320.338001496978	3945.1519808405
5	154826	28323.755488467776	3944.7532453373
5	154832	28324.092239645258	3945.0233443702
5	154839	28325.398558830181	3940.6679436172
5	154844	28325.695506645656	3937.5915946608
5	154850	28325.836263146109	3936.8907827763
5	154858	28327.689219830179	3938.1943448278
5	154870	28329.961814902251	3934.8040193357
5	154875	28330.065459248593	3931.737215399
5	154880	28332.461360050569	3928.4577626445
5	154887	28335.934726333405	3929.9806605744
5	154899	28339.185853793187	3928.3275624908
5	154912	28341.203222158961	3928.7129204323
5	154955	28346.515554240168	3932.4935619325
5	154975	28350.760073987415	3931.1350889258
5	155040	28365.3484423117	3945.5502445026
5	155082	28374.718436659666	3947.9495714972
5	155087	28376.270471527067	3947.8297744968
5	155092	28376.441011007227	3947.7751172671
5	155102	28378.558002439772	3947.5469843822
5	155125	28379.905678290994	3948.4536524621
5	155724	28492.416911805745	4060.5668713807
5	155729	28492.77578691366	4057.9011176164
5	155737	28493.843344815134	4058.2351207378
5	155783	28506.300478772041	4066.1479441511
5	155814	28509.729343003181	4052.8783669067
5	155834	28511.768781467715	4053.5169148677
5	155839	28511.977558301075	4050.4524367532
5	155849	28515.166567139564	4050.6310377341
5	155865	28519.597818883607	4052.2892824268
5	156255	28598.718004075759	4130.3217952509
5	156268	28599.730287815057	4129.5441853851
5	156278	28599.924475560698	4127.9335768879
5	156284	28602.029872862877	4126.2610102685
5	156300	28606.082453928319	4125.8859185686
5	156358	28614.685686053304	4133.8986405911
5	156363	28614.990041673807	4133.9164983992
5	156368	28615.226362099026	4126.6218176089
5	156375	28617.587508152439	4125.4663181105
5	156380	28618.352318253512	4124.6390222207
5	156394	28620.646980031036	4120.6998843347
5	156425	28624.22397478787	4122.0862853738
5	156442	28627.224111791901	4121.9331570888
5	156447	28627.559502804273	4121.3501663377
5	156458	28634.468042374588	4127.2210067339
5	156471	28635.908201488413	4126.9862485913
5	156596	28658.461964717481	4148.5533604139
5	156602	28658.715951123555	4142.5845628089
5	156616	28661.026790089569	4143.3129423824
5	156627	28661.438720122725	4142.3692416129
5	156632	28661.588888530886	4142.0498253775
5	156638	28662.530156293672	4138.9522529483
5	156656	28666.476805718834	4142.1933943415
5	156709	28675.876767818001	4149.5882037956
5	156720	28676.934542208506	4147.5110976471
5	156736	28679.198719120714	4146.479486149
5	156768	28681.964465655505	4142.9024617251
5	156773	28682.253323971077	4125.3155897343
5	156780	28682.73393539464	4124.9095213418
5	156788	28683.193634424474	4124.90603753
5	156806	28685.876268868748	4122.999877075
5	156815	28686.382263318653	4117.5740945425
5	156820	28686.803179992033	4117.180386248
5	156826	28688.234973765765	4115.7806065812
5	156831	28688.537645846239	4115.886302355
5	156840	28692.167010853001	4111.5614493416
5	156848	28693.656556073663	4101.9136467225
5	156854	28694.054227326659	4101.0092010442
5	156866	28695.499976797287	4098.5750020206
5	156886	28699.511042854612	4097.7791137696
5	156892	28700.407634388006	4094.6252689592
5	156899	28702.08024619579	4093.9202098431
5	156909	28702.222616309551	4093.8277451034
5	156920	28705.041523167191	4095.9392351433
5	156932	28708.530404335872	4096.3737378141
5	156943	28709.836547440338	4097.436154218
5	156983	28714.045912944285	4098.5920270817
5	156990	28714.375519500506	4097.5755844568
5	157019	28717.940412121697	4100.3902216066
5	157024	28718.07923888661	4095.9614633447
5	157031	28719.641929125318	4091.5134947665
5	157036	28721.668797178378	4091.7939695289
5	157049	28722.430460359562	4091.7497988812
5	157104	28733.382060245872	4102.3101551913
5	157113	28735.837928622369	4101.9190389664
5	157164	28743.604750718394	4103.2584756185
5	157177	28745.541494454037	4098.1387709573
5	157187	28746.385306669874	4097.034475807
5	157193	28747.51377333748	4091.2975030532
5	157200	28748.95699498426	4089.7501362588
5	157216	28752.29743526973	4092.8061341009
5	157238	28757.287126470925	4087.0813636291
5	157243	28757.768437606199	4075.6325942782
5	157250	28758.839751149729	4072.6083059588
5	157273	28764.502365508238	4067.2381051769
5	157295	28767.478217467728	4069.466363033
5	157300	28767.988934289289	4069.7552800033
5	157305	28768.866966035728	4068.0168164152
5	157321	28776.936436031923	4075.8371362673
5	157347	28780.964634345806	4077.740208019
5	157358	28781.844041817323	4065.8379463325
5	157371	28783.465003241476	4067.0418835377
5	157455	28794.289896130557	4070.6685056597
5	157460	28794.5563050854	4070.3577660146
5	157465	28794.632096449684	4063.3857258297
5	157476	28797.083791174462	4062.4620036459
5	157490	28798.522881224061	4054.3845863074
5	157500	28799.651614740634	4051.1842918995
5	157518	28802.15003559746	4048.7418404611
5	157524	28802.545134689671	4042.666154302
5	157533	28804.930033487595	4042.9669525389
5	157591	28818.180325810731	4050.7232111129
5	157597	28818.316390952658	4043.7036521628
5	157604	28818.868440062675	4040.638289096
5	157619	28821.831896088958	4031.4796541223
5	157636	28822.577339482206	4027.0387949415
5	157643	28823.281671481006	4027.280082601
5	157652	28827.18254054482	4027.1466197379
5	157725	28837.935907065979	4037.8905637697
5	157734	28839.415080844149	4036.3341889627
5	157777	28845.92410664499	4036.021542544
5	157782	28846.216088539123	4029.2919883931
5	157798	28850.363681758053	4031.5873408032
5	157924	28873.673219088977	4052.2048077116
5	157945	28875.405396368417	4051.2989748497
5	157952	28875.848070406816	4051.2612890364
5	157964	28876.176869921966	4051.14255039
5	157977	28878.378183216796	4053.2153012668
5	158014	28885.587883077299	4058.1455598711
5	158024	28886.07201786482	4057.3690125067
5	158043	28890.462763803997	4061.1063629512
5	158602	28990.560971582306	4158.0863908486
5	158638	28994.654854149849	4157.3390468728
5	158648	28994.873864712626	4153.6918124188
5	158653	28994.888908401235	4152.9248407077
5	158658	28994.952835330836	4146.9487990254
5	158669	28997.533642685628	4144.1346401718
5	158703	29004.093978933238	4147.0108724467
5	158708	29004.367933907123	4142.0249152424
5	158717	29007.077246344824	4143.7480660436
5	158732	29011.371224783795	4147.6284039712
5	158754	29015.795014349125	4149.5392992492
5	158770	29018.339802289714	4151.2134820056
5	158780	29019.808321970734	4140.621980525
5	158798	29021.860499302735	4140.5416393661
5	158845	29030.940107990929	4144.0968283294
5	158851	29031.620917080067	4143.1237473932
5	158860	29032.504798770134	4142.6123029239
5	158865	29032.532568094448	4139.0112678347
5	158876	29033.811772232391	4140.2009816753
5	158924	29041.93252695212	4138.7195292705
5	158933	29043.445336637078	4129.3226079757
5	158938	29043.602810230662	4127.3090369776
5	158943	29045.490048614888	4118.1345884931
5	158952	29048.609624370217	4121.2411249068
5	159011	29057.141561382328	4129.1267254192
5	159018	29057.31469835627	4119.3173390185
5	159031	29059.863125024177	4113.2014681626
5	159048	29062.04333087737	4105.4097383594
5	159055	29063.253536146461	4106.5569401141
5	159065	29063.495604939962	4099.325550992
5	159072	29064.272203121049	4099.35038082
5	159101	29070.996722901071	4105.0441449124
5	159126	29077.229833319428	4109.1151559669
5	159140	29080.044288900103	4106.877135351
5	159163	29085.737436226499	4108.4558229615
5	159186	29087.038120372774	4108.9056780806
5	159192	29087.980233192992	4106.8084068361
5	159197	29088.480600241811	4106.0226718595
5	159202	29088.698952920752	4103.4960240165
5	159209	29089.151099899872	4102.7377842475
5	159222	29091.231953426684	4102.3036230956
5	159237	29094.586771578833	4097.189778388
5	159258	29097.665528335093	4097.6641735907
5	159270	29099.760166681418	4095.4106280773
5	159277	29100.975816425487	4088.2670712542
5	159287	29101.70456705615	4082.7094602391
5	159297	29102.250396339961	4079.7185192761
5	159306	29105.503629786012	4079.2889254303
5	159334	29109.022687054844	4082.3393510577
5	159339	29109.479804408796	4081.1908356795
5	159349	29111.862735783619	4080.9213476393
5	159359	29113.365606227381	4080.1127699824
5	159369	29118.651590666289	4084.8218767614
5	159391	29122.023684304147	4080.4052095775
5	159417	29123.616030541055	4081.7553780845
5	159473	29132.362915186269	4088.4989464053
5	159492	29135.43783612411	4091.2863144228
5	159507	29137.760860294484	4090.0110955555
5	159525	29140.457545583446	4091.6746533806
5	159537	29143.321615033756	4092.9580697133
5	159549	29144.614344683275	4090.601480543
5	159562	29148.47694049224	4094.4192743311
5	159575	29148.855673222069	4091.8697530982
5	159584	29150.632493136169	4091.5632393423
5	159614	29157.640424777226	4095.9388743953
5	159816	29190.946710039573	4126.2455626802
5	159822	29192.888582724484	4125.2679243679
5	159827	29194.156120039007	4125.4580833637
5	159834	29194.799440644841	4122.0207941354
5	159849	29196.162460973141	4123.288529224
5	159911	29209.236965549926	4133.8288666173
5	159985	29216.951003332269	4141.0124287675
5	159991	29217.398020390829	4140.0173668848
5	160002	29218.898862780029	4137.00202264
5	160048	29227.743747918208	4138.7574179976
5	160061	29229.744026427618	4138.2437047227
5	160076	29233.455107690787	4131.8829021963
5	160101	29238.648156118592	4126.3870235276
5	160112	29240.190603364263	4123.3259111767
5	160154	29252.897889235097	4132.3856189844
5	160164	29253.973118427093	4120.3209157474
5	160173	29255.147299831641	4118.1667212811
5	160204	29258.085134098085	4118.2916157045
5	160209	29258.315403178659	4116.7963036639
5	160216	29259.258041008125	4109.4108728783
5	160236	29265.438189331231	4113.8951509983
5	160242	29265.720879332019	4113.9550608092
5	160255	29269.211536555645	4111.2968734564
5	160297	29274.226219305362	4107.8206940969
5	160304	29274.773880931129	4106.0973651707
5	160309	29275.090625720716	4103.1297720913
5	160326	29277.707934629228	4101.1422554313
5	160348	29282.255077615788	4105.4202595576
5	160355	29283.926769336338	4103.9233340061
5	160400	29289.635155513457	4100.2704248116
5	160405	29290.164489331958	4100.0124967855
5	160410	29291.178473904117	4096.4348059225
5	160418	29292.728139901244	4094.1955733141
5	160454	29295.71661223018	4092.4828109616
5	160459	29296.75252912406	4091.8052238607
5	160469	29298.022303847168	4091.162034857
5	160514	29305.058033301243	4096.3654464719
5	160519	29305.969911863464	4095.9729149682
5	160530	29308.108069351973	4094.6972141194
5	160559	29312.289709850665	4088.4479178303
5	160589	29316.884181645695	4087.2982691876
5	160600	29317.210304824937	4086.5437408541
5	160605	29318.015503711725	4085.0417144711
5	160612	29319.429006864267	4075.0157300745
5	160633	29322.305276644825	4070.6056326413
5	160640	29322.962148090495	4070.362087295
5	161007	29414.623881126602	4156.9875682655
5	161022	29415.322662011099	4151.4104953414
5	161027	29415.741606011933	4145.892002133
5	161037	29417.462209999023	4141.9120352476
5	161053	29419.284085079665	4129.2133345942
5	161063	29419.903815348592	4128.0568022118
5	161069	29420.267809175354	4105.3206735011
5	161074	29420.921374096579	4094.6129652504
5	161082	29422.037204125867	4093.9321457397
5	161113	29427.206888824385	4096.1472285425
5	161118	29427.935729157783	4092.5503002176
5	161128	29430.392974553881	4082.2157018036
5	161152	29432.877893485277	4077.9311463894
5	161157	29433.131013443693	4077.2090080396
5	161162	29433.350179365496	4064.623957436
5	161167	29433.623038734398	4042.4797764389
5	161172	29438.531752507334	4046.8362923713
5	161183	29441.81782647787	4045.973657817
5	161204	29444.635282595768	4040.4375390427
5	161255	29449.169961820633	4044.0032174549
5	161268	29449.843421879835	4039.0720215553
5	161278	29450.217019170541	4033.1945738958
5	161289	29451.771080062671	4021.9858614934
5	161326	29457.923652416313	4025.3054191405
5	161339	29459.847134792581	4019.5356269297
5	161350	29464.617908476068	4020.5410019064
5	161374	29469.661930016795	4017.1744701166
5	161391	29471.922535973567	4019.236216437
5	161398	29475.844097841911	4019.7459061195
5	161458	29485.984970211943	4027.8597116494
5	161497	29492.218297530988	4033.4589237865
5	161504	29492.878216332543	4032.7847174185
5	161511	29493.127859146477	4030.9450900122
5	161517	29493.21098383028	4029.7479206936
5	161528	29500.804953426911	4036.3917193523
5	161549	29506.741390968358	4042.1682911142
5	161564	29509.461675201739	4043.730935456
5	161571	29510.391394029747	4040.1612912374
5	161590	29512.385341762954	4031.7533266747
5	161599	29514.998473374436	4031.6111179652
5	161611	29515.273968209733	4027.711764099
5	161620	29517.314050208386	4029.7469640799
5	161632	29518.290131910421	4028.945627293
5	161642	29519.03028050838	4016.4746983038
5	161657	29522.163761915171	4018.1203709438
5	161667	29524.966373572554	4018.1888064083
5	161674	29526.196046593814	4017.6563931475
5	161681	29527.323687741684	4015.3853244567
5	161696	29528.0746384464	4011.547188244
5	161704	29528.396364979213	4011.2174204703
5	161749	29533.652268098107	4010.4143427945
5	161825	29551.096910940507	4020.7596068013
5	161831	29551.500464160306	4020.3675896005
5	161842	29552.916055440317	4018.0643027691
5	161860	29557.302115509132	4021.7757500326
5	161901	29562.990572406579	4017.2100064467
5	161906	29563.042653518515	4016.1996282839
5	161914	29563.865960556467	4015.5326448021
5	161927	29567.594087328051	4017.0171730164
5	161941	29569.960459783451	4018.7819718086
5	162207	29625.908284722876	4067.0346010702
5	162212	29626.386571762562	4063.2005846073
5	162217	29626.904500108467	4063.1043928026
5	162224	29628.044303920501	4052.7026613054
5	162238	29632.288145435971	4040.0736277375
5	162309	29642.317545569879	4043.885268626
5	162326	29644.045748998146	4037.5805967101
5	162337	29647.333533490587	4034.8037820466
5	162363	29652.89221210384	4039.9146108142
5	162370	29653.848362676581	4037.2916715852
5	162377	29655.006937077095	4038.3805509546
5	162384	29655.905557178497	4037.2989881359
5	162389	29655.981485941222	4034.7618896349
5	162398	29657.079199117236	4032.8628956511
5	162407	29661.428948706866	4036.4905498101
5	162433	29665.246942494811	4040.0841480012
5	162446	29667.684801777134	4034.3464656185
5	162471	29670.100426006883	4035.3211107564
5	162502	29675.659788977093	4036.195082007
5	162592	29694.06741217162	4049.1722235404
5	162599	29694.834090761337	4048.564583341
5	162742	29727.818802705097	4077.1363902606
5	162747	29728.551819729874	4069.0356708582
5	162753	29729.225945531411	4069.2581985489
5	162760	29729.798229403885	4063.2700179301
5	162772	29731.81684128025	4064.7689303616
5	162787	29733.059082940999	4065.1830306768
5	162808	29736.321837893644	4062.7488493484
5	162821	29736.89662222107	4058.6461565125
5	162838	29739.696201118029	4057.9951797109
5	162868	29742.571612354299	4058.5718413351
5	162877	29742.893884384539	4055.7736130781
5	162906	29748.70057254635	4061.0401470031
5	162978	29761.248900382325	4069.0996159385
5	162987	29763.499119192503	4066.358304843
5	163007	29767.649480407355	4065.874060173
5	163017	29771.408443120044	4069.5596408607
5	163023	29772.475999602923	4069.7940808737
5	163028	29773.46394801496	4065.3795400523
5	163035	29775.191024332653	4066.4624579489
5	163050	29776.392399771539	4066.0121488597
5	163067	29777.832948303076	4057.1123149039
5	163072	29778.012802578851	4055.5340243626
5	163086	29784.473985353813	4060.8527417594
5	163104	29786.166910178838	4060.1531256438
5	163114	29788.330029475111	4056.3777471693
5	163119	29788.421572999443	4044.823469936
5	163129	29792.982834250328	4049.2069475057
5	163147	29794.479576002175	4047.6981179755
5	163162	29797.961861240701	4051.0319604488
5	163173	29799.232601106202	4046.1336907579
5	163178	29799.285245785735	4044.047848261
5	163183	29799.421149389944	4041.7947034107
5	163188	29799.656675287289	4040.7577553803
5	163196	29802.52320364617	4039.0525102401
5	163206	29802.890701060632	4038.478997307
5	163227	29808.694829189477	4042.5079906029
5	163271	29817.100712307996	4045.1471946495
5	163286	29818.254222486817	4044.6393066771
5	163299	29818.824463967543	4036.0778686017
5	163368	29830.614242957886	4045.0280197381
5	163377	29831.767304552022	4033.6741209052
5	163389	29834.34548406987	4031.7926774988
5	163555	29862.250695941437	4055.0563925549
5	163563	29863.807612893485	4054.532290288
5	163573	29863.949370756267	4051.0641404543
5	163592	29868.606140431696	4054.8408804549
5	163638	29879.457144686014	4060.9680523545
5	163647	29879.92024363509	4059.0663575649
5	163677	29884.721324926871	4063.3193179013
5	163697	29888.563255158828	4066.3738033258
5	163703	29889.543372516101	4062.0261810375
5	163713	29891.226986725528	4060.4675112793
5	163761	29901.916462947794	4064.9957575172
5	163794	29910.461938160102	4065.906724372
5	163812	29912.45001810435	4061.6806480544
5	163818	29913.077754361093	4060.4011782095
5	163831	29915.896177341104	4059.6703718862
5	164178	29991.297527703387	4124.8861549176

