version 2
run First-n4-9-20191016-14:52:53-11280
attr configname First-n4
attr datetime 20191016-14:52:53
attr experiment First-n4
attr inifile omnetpp.ini
attr iterationvars ""
attr iterationvarsf ""
attr measurement ""
attr network org.omnetpp.queueing.Pizza
attr processid 11280
attr repetition 9
attr replication ""
attr resultdir results
attr runnumber 9
attr seedset 9
param **.PS.maxInventoriedPS 4
param **.U1.interArrivalTime exponential(2s)
param **.U2.interArrivalTime exponential(4s)
param **.PS.serviceTimeForInventoryU1 exponential(0.8s)
param **.PS.serviceTimeForInventoryU2 exponential(1.0s)
param **.PS.serviceTimeDirectU1 exponential(1.2s)
param **.PS.serviceTimeDirectU2 exponential(1.4s)
param **.PS.probabilityProducing 0.5
param **.CS.serviceTimeU1 exponential(0.8s)
param **.CS.serviceTimeU2 exponential(1.0s)

vector 0 Pizza.EntryQueueU1 queueLength:vector ETV
attr interpolationmode sample-hold
attr title "queue length, vector"
vector 1 Pizza.CS queueLength:vector ETV
attr interpolationmode sample-hold
attr title "queue length, vector"
vector 2 Pizza.EntryQueueU2 queueLength:vector ETV
attr interpolationmode sample-hold
attr title "queue length, vector"
vector 3 Pizza.sink lifeTime:vector ETV
attr interpolationmode none
attr title "lifetime of arrived jobs, vector"
attr unit s
vector 4 Pizza.sink lifeTimeU2:vector ETV
attr interpolationmode none
attr title "lifetime of arrived jobs, vector"
attr unit s
0	0	0	0
0	28	3.075591881666	1
0	30	3.154630015333	2
0	32	3.397227905087	1
0	41	5.223509751997	0
0	65	10.973359897441	1
0	67	11.194012119284	2
0	69	11.565794993076	3
0	71	11.731071802341	4
0	74	13.203534908592	5
0	75	13.30940327011	4
0	82	14.554069553248	5
0	83	14.887061572649	4
0	91	15.830683422209	3
0	96	19.3660772737	2
0	101	20.016860304902	1
0	108	21.869103463023	0
0	116	22.440121943106	1
0	119	24.949075655396	0
0	153	27.751167222538	1
0	154	27.980123395678	0
0	201	34.20938426639	1
0	202	34.264414242541	0
0	210	35.284814336784	1
0	212	35.71244289784	0
0	232	37.939098593446	1
0	240	39.847771712153	2
0	242	40.079290536347	3
0	243	41.151876612489	2
0	248	41.184225375415	1
0	253	41.271233112529	0
0	322	63.588277656745	1
0	324	64.163120704532	2
0	325	65.557895788772	1
0	330	65.569333688972	0
0	336	65.842156524367	1
0	337	66.24527981106	0
0	359	69.196214442133	1
0	360	69.459725475	0
0	374	72.583873822008	1
0	377	72.925721410784	0
0	381	73.411543791891	1
0	383	74.019375547678	2
0	386	74.434676811813	1
0	392	76.603883140873	2
0	394	78.549737461965	1
0	399	78.798943061619	0
0	405	80.308391066203	1
0	408	80.869723340496	2
0	409	82.184177570643	1
0	414	82.798281489162	0
0	425	83.303033739153	1
0	427	83.470304614691	2
0	428	83.559711720673	1
0	432	83.929208661863	2
0	436	85.150756427657	3
0	439	86.385397322355	2
0	447	88.239105777257	3
0	449	88.244400167058	4
0	451	89.046638233948	3
0	459	89.490278622568	4
0	461	89.627699358391	3
0	466	91.457912538881	2
0	474	93.961621611051	1
0	481	94.508516619035	2
0	482	94.534628740666	1
0	488	94.808577175999	2
0	489	95.352931018569	1
0	494	96.403752360137	0
0	522	101.118706805109	1
0	526	101.56758975852	2
0	527	101.871302951492	1
0	537	104.118634773977	0
0	558	106.268523371384	1
0	559	106.661795263257	0
0	565	108.463896484061	1
0	566	108.591334866729	0
0	637	116.732869884655	1
0	643	117.534204684818	2
0	644	117.812576016577	1
0	649	117.871515148221	0
0	658	118.11452659806	1
0	663	118.449424638564	0
0	670	119.314582517474	1
0	671	119.470606973898	0
0	677	119.809520193347	1
0	679	120.23171529313	2
0	683	120.671478568283	1
0	688	120.849185567845	0
0	747	133.707360242835	1
0	749	133.90004475109	2
0	752	134.603075720779	3
0	754	135.235036184264	4
0	755	135.72345355983	3
0	761	136.918091652443	2
0	769	137.933575441708	1
0	774	138.57333113091	0
0	808	146.972735412948	1
0	809	147.573200036144	0
0	824	148.803643370353	1
0	825	149.856774555981	0
0	904	161.891250094697	1
0	908	162.933202608633	2
0	911	163.690546938668	3
0	912	164.356730716988	2
0	918	164.968301370413	1
0	923	165.086206870763	0
0	941	166.74716343558	1
0	943	166.774816522012	2
0	949	168.652031733194	1
0	955	169.871397964373	2
0	956	170.124739497083	1
0	964	170.60791333474	0
0	977	171.576835210256	1
0	979	172.251679674157	2
0	980	172.392315312197	1
0	985	172.558182277805	0
0	991	172.736634371755	1
0	992	172.884164253638	0
0	996	173.147100119533	1
0	998	173.410659154461	2
0	1005	176.295810391429	1
0	1010	177.782719976525	0
0	1021	178.027834450105	1
0	1023	178.333836748164	2
0	1025	179.041238865032	1
0	1031	180.433359531906	2
0	1032	180.595539269461	1
0	1038	182.144678957662	2
0	1039	182.51452967553	1
0	1043	182.708092221085	2
0	1046	183.146537735809	1
0	1050	183.63286404154	2
0	1052	183.727850619899	3
0	1055	184.593916622223	2
0	1062	185.344743175317	3
0	1066	186.487323475648	4
0	1067	186.936503739828	3
0	1073	187.013648783352	4
0	1074	187.205780470944	3
0	1081	191.981816368196	2
0	1089	193.8840537098	1
0	1094	194.049424909083	0
0	1115	196.094936407216	1
0	1119	196.340133620999	2
0	1121	197.026696951617	1
0	1126	197.462157832469	0
0	1130	198.338239105027	1
0	1133	198.737444445625	0
0	1148	202.308467947136	1
0	1150	203.1185284591	0
0	1172	206.806698492814	1
0	1174	206.879624001799	2
0	1176	207.321123581876	3
0	1177	207.817776330374	2
0	1183	208.534306411109	3
0	1185	209.524079043846	4
0	1187	209.598247739458	5
0	1190	211.002706804904	4
0	1194	213.912491077888	5
0	1197	214.138573879592	4
0	1204	215.754450363593	3
0	1210	216.566402052676	4
0	1216	216.788314130478	5
0	1217	217.682759814401	4
0	1222	218.548555301561	3
0	1228	220.045049544569	2
0	1233	220.05911482819	1
0	1241	222.730429387423	2
0	1242	223.242756602877	1
0	1246	223.709405354233	2
0	1250	224.974009937609	1
0	1256	225.182975027331	2
0	1257	225.291099202408	1
0	1261	225.39357031615	2
0	1264	226.729293912029	1
0	1268	227.655657594716	2
0	1270	229.074482861989	3
0	1272	229.333304598729	4
0	1277	231.811184895407	3
0	1283	232.713162310799	4
0	1284	233.124941032001	3
0	1290	233.487645875263	4
0	1292	238.670779397737	5
0	1294	239.413079199115	6
0	1296	239.426189442017	7
0	1298	241.337963052914	8
0	1302	242.417757021465	7
0	1308	242.473209848395	8
0	1310	242.921760835674	9
0	1313	243.129866896086	8
0	1317	244.204415106241	9
0	1324	246.757950517158	8
0	1329	248.279509473896	7
0	1337	249.056903282216	8
0	1340	249.806050966611	7
0	1347	252.231050650381	8
0	1348	252.704766815846	7
0	1354	252.752067165424	6
0	1363	253.299390599851	7
0	1364	253.422740432518	6
0	1369	254.256161174894	5
0	1373	255.149391199659	6
0	1375	256.140351307555	7
0	1377	256.828744570033	8
0	1386	258.829020958159	9
0	1393	263.669732957457	8
0	1398	263.780849185385	7
0	1403	264.96215300267	6
0	1408	265.530056503792	5
0	1413	266.444142492167	4
0	1423	268.042019178947	5
0	1424	268.043922324022	4
0	1429	268.527177910297	3
0	1435	268.893695479531	2
0	1440	269.13725399263	1
0	1445	269.33932800915	0
0	1454	272.363753191051	1
0	1455	272.416713711189	0
0	1472	275.118003743653	1
0	1476	275.866607684131	0
0	1508	281.736184808225	1
0	1510	282.591576473797	2
0	1512	283.233423571083	3
0	1513	283.331760038783	2
0	1518	283.614076558208	1
0	1523	283.722843201107	0
0	1536	284.327461186555	1
0	1537	284.356873587924	0
0	1555	286.466463447054	1
0	1556	286.506227286654	0
0	1563	286.878452481223	1
0	1565	287.102514245776	0
0	1620	292.154019592195	1
0	1622	292.29894089005	2
0	1628	294.532408327529	3
0	1631	294.600315399709	2
0	1640	295.577454351462	3
0	1641	296.29344676374	2
0	1646	296.329004295245	1
0	1652	297.072232806485	0
0	1667	298.829116429959	1
0	1669	298.840830599133	2
0	1671	299.093808772652	3
0	1675	300.368753155316	4
0	1676	300.97459714564	3
0	1681	300.986631477643	2
0	1688	301.295075643298	3
0	1690	302.118676432832	2
0	1698	302.441091913897	3
0	1700	302.483070203286	4
0	1701	302.82534389261	3
0	1706	303.271140495982	2
0	1715	305.84086135659	1
0	1721	306.92290007192	0
0	1741	312.621251355426	1
0	1742	312.684528601244	0
0	1748	312.946056404779	1
0	1751	313.468818576825	0
0	1762	314.177237984219	1
0	1764	314.306423840101	0
0	1786	316.525213163854	1
0	1789	316.871034735655	0
0	1795	317.132674335336	1
0	1799	319.315811321083	0
0	1827	321.556305205591	1
0	1830	322.444593835437	0
0	1851	324.002050028114	1
0	1856	325.622451248743	0
0	1883	329.394449391775	1
0	1885	329.515290831186	2
0	1891	331.10541799072	1
0	1898	332.599311138705	0
0	1922	334.918639788995	1
0	1924	335.277960497064	2
0	1927	335.856493157699	1
0	1935	336.275317791321	0
0	1942	337.138951544997	1
0	1944	337.21784260957	0
0	1990	343.039457018179	1
0	1994	343.283855331324	2
0	1996	343.641722430732	3
0	1998	343.870866622429	2
0	2003	344.427858288415	1
0	2009	344.498765752772	2
0	2010	344.644571523101	1
0	2018	345.609155089966	2
0	2023	346.87212918628	1
0	2031	347.108701233331	0
0	2055	349.122821535881	1
0	2056	349.320676438656	0
0	2089	353.142908139826	1
0	2091	353.319898280532	2
0	2093	353.473642524289	1
0	2098	353.502770791774	0
0	2104	354.223465255845	1
0	2106	354.701567517988	0
0	2114	355.866827493396	1
0	2116	356.718408498541	0
0	2128	357.486359964749	1
0	2132	358.096148502912	0
0	2150	359.55966608411	1
0	2152	359.847230524181	2
0	2153	360.774297756663	1
0	2159	361.06621809219	0
0	2165	361.161020876686	1
0	2167	361.543380646391	2
0	2168	362.41663127539	1
0	2175	363.584505801661	0
0	2248	379.654970718665	1
0	2249	379.774727851727	0
0	2255	380.530076240846	1
0	2256	380.530427475345	0
0	2292	385.963257342245	1
0	2293	386.409296488882	0
0	2299	386.409918337032	1
0	2300	386.510299372727	0
0	2328	388.375955074169	1
0	2336	392.964083329155	2
0	2337	393.058312213262	1
0	2342	393.146717518685	0
0	2348	394.18145792027	1
0	2349	394.364473509417	0
0	2355	397.247831251943	1
0	2360	398.054558514096	2
0	2361	398.721281621447	1
0	2367	399.0038237824	2
0	2370	399.72465141189	1
0	2376	401.000113775259	0
0	2382	401.608195227213	1
0	2383	401.736866332863	0
0	2395	402.699536151492	1
0	2397	402.944422313777	0
0	2442	406.802728348355	1
0	2443	407.0509712378	0
0	2465	410.319227200235	1
0	2466	410.427799121217	0
0	2472	410.704203452187	1
0	2474	411.301368585279	0
0	2480	411.66630342769	1
0	2481	411.765505520772	0
0	2492	417.318730035596	1
0	2501	419.11633075407	0
0	2507	422.016053837232	1
0	2509	422.525822272381	2
0	2510	422.5484672428	1
0	2514	422.789724409185	2
0	2516	423.282730072932	3
0	2522	425.172340708297	2
0	2528	426.370761932952	1
0	2538	426.786317456401	2
0	2539	426.802290703264	1
0	2543	428.931870696255	2
0	2548	431.911839484635	3
0	2550	432.032619455044	4
0	2551	433.461234587463	3
0	2556	433.626245061701	2
0	2560	434.346682550542	3
0	2563	434.921233091772	2
0	2570	437.853067734529	1
0	2576	439.304801501047	2
0	2577	439.804139597898	1
0	2581	440.292134775995	2
0	2585	442.080557177883	1
0	2592	443.522386579205	2
0	2595	444.137866448707	1
0	2601	445.572898719516	0
0	2612	446.535761544808	1
0	2613	446.639298417699	0
0	2619	447.426060783959	1
0	2621	448.042213999386	2
0	2624	448.664367730097	1
0	2632	449.138615558959	2
0	2635	449.71159076452	3
0	2636	449.875610154519	2
0	2643	450.171040041921	3
0	2646	450.960983520632	4
0	2647	451.01123798994	3
0	2652	451.403899818854	2
0	2656	451.920444703832	3
0	2659	453.446044389939	2
0	2666	454.931430664719	1
0	2671	455.340131895727	0
0	2683	456.78047943314	1
0	2684	457.29875470457	0
0	2702	459.646039546338	1
0	2705	460.308786450726	2
0	2706	461.07005849771	1
0	2711	462.175435458088	0
0	2743	467.907099588847	1
0	2746	468.894571339163	0
0	2758	470.355764288156	1
0	2768	474.096750627063	2
0	2769	474.441172926295	1
0	2774	474.562374318149	0
0	2803	477.826235220968	1
0	2804	478.210276193012	0
0	2825	481.924027007449	1
0	2827	481.957513965728	2
0	2833	484.077789991801	1
0	2839	484.718365609398	2
0	2841	484.895501099311	1
0	2847	485.41127602444	0
0	2856	487.648028671682	1
0	2858	488.032253072879	2
0	2859	488.241354476022	1
0	2866	488.930476349093	2
0	2867	489.017078221352	1
0	2872	489.716565689886	0
0	2878	489.757018383196	1
0	2881	489.966713191897	2
0	2884	490.675664425133	3
0	2886	491.003847688106	4
0	2887	491.37610149839	3
0	2892	491.602399509207	2
0	2899	493.82443124996	1
0	2904	494.725900664428	0
0	2935	499.244798564248	1
0	2939	500.132155517324	2
0	2942	500.511532001781	1
0	2949	501.999838480965	0
0	3031	514.415523740366	1
0	3033	515.132976577381	2
0	3034	515.339315252085	1
0	3040	515.578016887389	2
0	3043	515.782104933424	3
0	3044	515.844763497222	2
0	3050	516.316242931529	3
0	3051	516.948423481732	2
0	3059	517.672813410976	1
0	3064	517.820151532083	0
0	3094	523.170644041809	1
0	3099	524.021797721689	2
0	3101	525.252382612219	1
0	3107	525.409507619314	2
0	3108	525.439790287188	1
0	3114	525.617961505635	2
0	3116	525.857575365268	3
0	3117	525.913915343542	2
0	3124	527.248161350762	1
0	3129	527.575079086216	0
0	3133	529.612554612088	1
0	3135	529.796421839608	2
0	3141	530.366650223245	3
0	3142	530.428173285844	2
0	3147	530.916387853575	1
0	3153	531.991089474882	2
0	3155	532.750135144258	3
0	3157	533.129662645619	4
0	3162	535.220288229218	3
0	3167	537.224874994162	2
0	3172	537.728843681494	1
0	3178	538.994792591181	0
0	3195	540.18094390889	1
0	3199	540.764334434845	0
0	3214	542.403715933102	1
0	3216	542.518561213331	2
0	3217	542.539449395781	1
0	3223	542.639096287606	2
0	3226	542.854914260739	3
0	3229	544.076981713338	2
0	3234	544.347199377599	1
0	3239	544.854766852146	0
0	3243	545.366285359271	1
0	3246	548.094970802143	0
0	3305	564.610603686073	1
0	3308	564.936164716677	0
0	3351	570.773556810488	1
0	3355	571.50315688891	0
0	3375	575.766801388706	1
0	3376	576.2666739476	0
0	3438	588.31905471131	1
0	3441	588.688221009268	2
0	3442	589.460944754666	1
0	3447	589.976324965114	0
0	3451	591.166015639966	1
0	3453	591.628016181558	2
0	3455	593.455299891225	3
0	3457	593.643855850572	4
0	3459	593.707739668755	5
0	3461	593.87523536743	6
0	3463	594.874302038357	7
0	3466	596.836554914654	6
0	3470	596.996934840852	7
0	3473	598.253482306034	6
0	3479	598.84079576152	7
0	3482	600.713478124345	6
0	3487	600.883697184244	5
0	3493	601.281837709414	4
0	3499	601.366462630353	5
0	3505	602.26080804165	6
0	3506	602.760364585333	5
0	3512	603.681390141506	6
0	3515	604.356534585415	7
0	3517	606.339063236732	6
0	3522	606.374383584703	5
0	3527	606.950998226615	4
0	3532	607.611521147384	3
0	3536	608.020653378143	4
0	3538	608.155122228806	5
0	3542	609.195734506395	6
0	3543	609.667179138588	5
0	3548	610.018736612672	4
0	3553	610.779335058754	3
0	3558	611.523594455288	2
0	3562	612.475266059527	3
0	3564	613.481016126437	4
0	3567	613.970540454946	3
0	3572	614.253912243862	2
0	3576	615.964755152303	3
0	3579	616.479112610579	2
0	3583	616.502376815054	3
0	3589	617.388577823057	4
0	3592	618.554548453619	3
0	3596	618.64147313662	4
0	3604	619.433653362196	5
0	3607	620.269711694597	4
0	3613	621.700086102653	5
0	3615	622.400095531846	6
0	3617	622.68392252803	7
0	3619	623.174736658126	8
0	3622	624.760157980456	7
0	3627	625.248087919959	6
0	3634	627.974281038513	5
0	3638	628.631438254768	6
0	3641	629.035986690127	5
0	3646	629.710360893759	4
0	3653	631.090244503996	3
0	3658	631.907906119596	2
0	3664	632.483429954915	3
0	3668	635.230648158429	4
0	3669	635.701720292965	3
0	3674	635.926235246118	2
0	3679	637.343402948801	1
0	3685	637.971124184413	2
0	3686	638.554390394639	1
0	3691	638.786912932062	0
0	3708	639.36804557762	1
0	3710	639.975554427258	0
0	3728	640.973111998083	1
0	3729	641.011008391718	0
0	3740	642.620534451357	1
0	3741	642.662316521253	0
0	3747	642.934942976596	1
0	3753	644.550721976194	2
0	3756	645.377062698579	1
0	3760	645.419444466696	2
0	3763	646.187462140759	1
0	3768	650.491488190702	0
0	3792	652.136153415198	1
0	3797	652.859621779674	2
0	3798	654.313347637399	1
0	3805	655.307914368113	2
0	3807	655.524246215101	3
0	3812	657.314956488575	2
0	3817	658.485711825875	1
0	3822	658.893079059832	0
0	3828	659.881616220769	1
0	3829	660.392964885012	0
0	3848	662.369257773293	1
0	3850	663.487220132426	0
0	3873	666.282697822998	1
0	3874	666.355086267001	0
0	3893	667.895681275383	1
0	3897	668.601714304273	0
0	3932	672.503808516801	1
0	3935	673.38226725842	0
0	3944	673.970888459179	1
0	3948	675.114167862985	2
0	3951	675.621896735462	1
0	3957	676.002794594999	2
0	3958	676.118110238391	1
0	3964	676.407248239165	2
0	3965	676.515202593778	1
0	3970	676.697061256841	0
0	3977	679.092895153885	1
0	3978	679.164767509981	0
0	3984	680.268650050007	1
0	3985	680.643988929996	0
0	4001	682.708849937504	1
0	4003	682.754753198566	2
0	4005	682.93891060713	1
0	4010	682.971353122155	0
0	4014	683.216777426425	1
0	4022	684.375669863987	2
0	4024	684.415154313876	3
0	4025	684.627855392929	2
0	4029	684.790111333466	3
0	4031	686.014259167086	4
0	4035	686.221680634679	5
0	4037	687.051478909995	6
0	4038	687.149979785204	5
0	4046	690.268626281837	6
0	4051	692.039495600254	7
0	4052	692.267181655447	6
0	4057	692.999600012242	5
0	4062	693.63795073859	4
0	4071	695.344246592268	3
0	4076	696.063085870551	2
0	4082	697.092040408603	3
0	4084	699.092973577149	2
0	4092	701.342707458923	3
0	4096	701.698324705114	2
0	4100	702.844200040153	3
0	4103	704.757113863142	2
0	4109	705.703939301334	1
0	4115	705.78660915307	2
0	4117	705.953406172677	1
0	4126	707.367877401824	2
0	4127	707.832014184608	1
0	4132	708.90923254608	0
0	4136	709.153670923692	1
0	4139	709.458944967016	0
0	4143	709.488477427753	1
0	4146	710.337741578095	0
0	4160	714.713455827932	1
0	4162	714.990547812718	0
0	4173	716.309892600096	1
0	4181	718.122837291107	2
0	4182	718.735752536939	1
0	4188	719.182958322409	0
0	4216	722.146110805775	1
0	4218	722.150023834919	2
0	4219	722.908150218878	1
0	4224	723.104380382917	0
0	4250	730.120639261007	1
0	4252	730.244542454593	2
0	4253	730.29955321687	1
0	4263	731.698524801091	0
0	4278	732.326173105264	1
0	4279	733.35737611854	0
0	4305	736.0117395533	1
0	4308	736.647002513375	0
0	4318	736.762990026249	1
0	4320	736.941578576663	2
0	4322	737.216770553964	3
0	4326	738.158013768758	4
0	4330	739.160277586373	5
0	4331	739.398473019574	4
0	4341	740.300141105523	5
0	4342	741.170629988602	4
0	4348	742.018564510789	5
0	4350	742.614279007251	4
0	4358	743.388868318161	5
0	4359	743.671591196754	4
0	4364	743.786842570819	3
0	4371	744.421344032096	2
0	4377	745.207729038575	1
0	4383	748.135630981903	0
0	4441	761.593891271982	1
0	4442	762.541115239214	0
0	4475	770.416618690229	1
0	4476	770.895277978241	0
0	4493	774.640303802952	1
0	4497	775.356773773328	0
0	4532	782.286491537968	1
0	4533	782.814893850752	0
0	4539	782.831591827231	1
0	4541	783.253933669067	0
0	4601	791.506259536011	1
0	4605	793.656423543383	2
0	4609	794.502030212699	3
0	4612	796.019358892348	2
0	4616	796.170011432395	3
0	4620	797.991207644183	2
0	4626	798.517776772551	1
0	4632	799.549028794008	0
0	4704	810.891624303934	1
0	4707	811.57945611828	2
0	4711	813.082925280341	3
0	4713	813.429700637669	4
0	4714	813.731517585146	3
0	4719	813.788644681918	2
0	4724	814.452027131633	1
0	4730	814.547797488637	0
0	4747	820.810038333745	1
0	4748	822.548749087131	0
0	4754	822.604938422802	1
0	4755	823.301530340771	0
0	4786	826.401632844145	1
0	4792	826.998905791946	2
0	4796	828.46851157055	1
0	4803	828.61729866087	2
0	4804	829.208187872324	1
0	4809	829.880311961839	0
0	4820	830.224566645096	1
0	4821	830.292766520327	0
0	4839	831.17254707291	1
0	4840	831.478088465946	0
0	4881	840.203964045096	1
0	4882	840.518311207527	0
0	4888	840.714999528324	1
0	4890	841.163486221641	2
0	4892	841.547879167405	3
0	4893	841.880671189888	2
0	4897	842.270951488454	3
0	4901	844.14007842396	4
0	4903	844.379100765729	5
0	4904	844.623225079262	4
0	4910	845.180884970208	3
0	4915	845.218627548539	2
0	4919	846.381815297932	3
0	4921	847.219035578192	4
0	4923	847.602582206517	5
0	4927	849.685350539327	6
0	4928	850.042636614288	5
0	4932	850.09104278045	6
0	4940	851.892244904361	5
0	4946	851.950331213294	6
0	4947	851.975192251411	5
0	4951	852.486358823705	6
0	4953	852.872806911451	7
0	4956	853.158872557677	6
0	4962	854.671173548025	7
0	4968	856.230679257671	8
0	4972	857.927425358365	7
0	4979	858.660571847788	6
0	4984	859.695126929624	5
0	4989	860.836529439974	4
0	4993	861.250600138897	5
0	4995	861.796354090359	6
0	4998	863.26387349764	5
0	5003	863.475478214638	4
0	5008	863.985313707698	3
0	5014	865.768075803438	4
0	5016	866.226847560451	5
0	5018	866.48185311738	6
0	5020	866.750595661093	7
0	5021	866.979775350221	6
0	5026	868.070533019714	5
0	5032	868.719285444813	6
0	5035	870.290648138784	5
0	5040	872.390344829052	4
0	5046	873.309645836583	5
0	5049	873.422886748606	4
0	5054	875.885519126672	3
0	5060	877.874872124453	2
0	5065	878.804787542677	1
0	5074	881.298025694461	2
0	5077	883.964437362808	1
0	5082	884.190133161753	0
0	5088	885.702007442896	1
0	5094	888.349666042521	2
0	5095	888.383389867975	1
0	5101	888.433563751674	2
0	5102	888.548614470703	1
0	5107	888.882567575242	0
0	5122	891.626883634775	1
0	5123	891.631421770143	0
0	5147	894.666909075026	1
0	5148	894.825700583531	0
0	5154	895.249598419319	1
0	5157	896.119233309058	2
0	5161	897.031262045545	3
0	5163	897.319827374348	4
0	5166	897.74316768408	5
0	5168	898.316394531834	6
0	5170	898.907767294411	7
0	5172	898.999111123452	8
0	5173	899.152772077179	7
0	5179	899.285216277645	8
0	5182	901.161131760629	9
0	5184	901.969362968482	10
0	5186	903.982014935083	9
0	5192	904.207852596262	8
0	5200	904.941457517178	7
0	5210	906.800537151082	8
0	5212	907.352705391059	7
0	5217	907.622481173826	6
0	5223	907.719767253448	7
0	5226	908.456944891962	6
0	5232	908.957958156901	7
0	5233	909.131931554023	6
0	5239	910.455357156024	7
0	5241	910.788766167964	6
0	5246	911.097742827539	5
0	5251	911.352319071564	4
0	5264	914.628445918934	3
0	5269	914.874530737805	2
0	5275	916.345364074474	1
0	5281	916.882768423961	2
0	5282	917.073508151289	1
0	5286	917.652799359247	2
0	5289	917.945473416733	1
0	5295	920.267142459235	2
0	5298	920.620717852273	1
0	5302	921.438440879947	2
0	5305	922.267383989634	1
0	5310	923.553398311902	0
0	5314	923.564405657034	1
0	5318	924.814939482729	0
0	5329	925.495735671136	1
0	5330	925.611964371114	0
0	5348	931.639549476827	1
0	5349	932.65850543562	0
0	5353	934.089503110348	1
0	5356	935.516189943216	0
0	5360	935.533485574972	1
0	5364	936.820295471442	2
0	5365	936.893250019802	1
0	5370	937.331303220568	0
0	5399	941.974355251818	1
0	5400	942.24534852277	0
0	5408	942.36297009921	1
0	5411	943.337578848702	2
0	5413	944.47652711355	1
0	5421	945.407505187919	0
0	5449	948.472947382674	1
0	5451	948.695598077352	0
0	5457	948.78565572498	1
0	5459	948.869407426023	2
0	5460	949.109016987664	1
0	5466	950.333266380768	0
0	5477	950.571948309883	1
0	5478	950.796480352455	0
0	5487	952.108156484064	1
0	5488	952.433949995431	0
0	5495	953.311683403749	1
0	5496	956.073506001553	0
0	5500	956.513627263863	1
0	5504	956.860843241789	0
0	5512	957.758774155521	1
0	5513	957.973681229032	0
0	5517	958.898164953826	1
0	5522	960.763687153526	0
0	5568	966.13218100485	1
0	5574	968.504039489381	0
0	5626	978.87628963439	1
0	5628	979.580936006513	2
0	5630	980.03781255539	1
0	5636	980.493499087056	0
0	5642	980.523783587036	1
0	5645	981.251755370912	2
0	5646	981.417662422767	1
0	5651	982.028348880861	0
0	5659	982.519894979018	1
0	5661	982.912577841087	2
0	5662	983.008748992935	1
0	5667	983.009970133789	0
0	5705	988.166008824282	1
0	5706	988.193801067176	0
0	5712	988.31283229197	1
0	5716	989.561849608728	2
0	5718	989.664194134004	1
0	5723	989.927973760114	0
0	5769	1003.114705860084	1
0	5770	1003.193487166266	0
0	5774	1004.216101234205	1
0	5779	1004.470702926282	0
0	5815	1008.391059797555	1
0	5816	1008.896701140959	0
0	5910	1027.207878718653	1
0	5912	1027.38837129168	2
0	5913	1027.505205510853	1
0	5918	1027.642498429419	0
0	5959	1033.541306902956	1
0	5962	1034.055114766257	2
0	5965	1035.045195919674	1
0	5970	1035.310257533789	0
0	6002	1039.557317694916	1
0	6004	1040.576938279994	2
0	6006	1040.843508900536	3
0	6009	1042.449223805781	2
0	6014	1042.609024966568	1
0	6018	1043.007783254578	2
0	6021	1043.260690698112	1
0	6025	1043.820096174543	2
0	6029	1044.916290134888	3
0	6031	1044.932109931696	4
0	6034	1045.555474705708	5
0	6035	1045.659653115669	4
0	6043	1046.422041681569	5
0	6045	1048.399797647753	4
0	6051	1049.473703853599	3
0	6056	1049.608657255559	2
0	6062	1050.045082740122	3
0	6063	1050.927472076675	2
0	6068	1050.986187752886	1
0	6074	1052.761102675167	2
0	6076	1053.001107168316	3
0	6079	1053.332336613397	2
0	6083	1053.92041151959	3
0	6088	1054.623401126768	4
0	6089	1054.738236905524	3
0	6098	1055.177983413788	4
0	6099	1055.72040856109	3
0	6104	1055.830911614141	2
0	6108	1056.296714547881	3
0	6110	1056.785904444717	4
0	6114	1057.516737772306	3
0	6119	1057.707484665049	2
0	6124	1058.500541657956	1
0	6128	1060.533875042481	2
0	6136	1064.246596497906	3
0	6137	1064.839385940218	2
0	6143	1065.684477052102	1
0	6152	1066.367429425435	2
0	6153	1066.430210204786	1
0	6158	1066.44457236119	0
0	6164	1066.670091403598	1
0	6165	1066.95307374375	0
0	6171	1069.102844999631	1
0	6174	1069.521608850554	0
0	6180	1070.199687254324	1
0	6183	1072.137827718848	0
0	6196	1073.892140942454	1
0	6198	1074.498414120377	0
0	6205	1075.61820787537	1
0	6209	1076.035707657991	2
0	6210	1076.358085273134	1
0	6215	1076.911241191229	0
0	6226	1078.068086866734	1
0	6227	1078.112870174206	0
0	6244	1081.372590207914	1
0	6245	1081.76722349691	0
0	6271	1083.685587795391	1
0	6274	1085.657062737142	0
0	6322	1095.680543281742	1
0	6326	1096.742814411475	2
0	6329	1098.249220855805	1
0	6337	1100.157022256683	0
0	6345	1101.270073946723	1
0	6346	1102.688194634943	0
0	6367	1104.515971021239	1
0	6368	1104.921833325015	0
0	6374	1105.215841657167	1
0	6381	1108.4551009808	0
0	6387	1108.684362580984	1
0	6389	1108.730441711514	2
0	6390	1108.753387525649	1
0	6395	1109.859547432294	0
0	6432	1113.929015669779	1
0	6434	1114.931265255513	0
0	6440	1115.153011089936	1
0	6442	1115.172122577217	2
0	6444	1115.367461934018	1
0	6451	1116.952958057974	2
0	6455	1118.296436784599	3
0	6458	1118.683161425056	2
0	6463	1118.786924242199	1
0	6468	1120.432913774121	0
0	6472	1122.30065803143	1
0	6476	1122.828948180379	2
0	6477	1122.911043894564	1
0	6482	1125.149760617972	0
0	6494	1127.260160294252	1
0	6496	1127.475154719365	2
0	6500	1128.293435561413	1
0	6507	1128.941704748798	2
0	6508	1129.482207287342	1
0	6514	1129.927730926606	0
0	6531	1130.683437937243	1
0	6533	1130.839210804254	0
0	6558	1134.955052865842	1
0	6559	1135.016527727087	0
0	6579	1143.178817649609	1
0	6580	1143.868510299197	0
0	6652	1163.263033801363	1
0	6655	1164.070768907657	2
0	6657	1164.643759811517	3
0	6658	1164.738255978413	2
0	6663	1165.150880377493	1
0	6669	1165.318073365113	2
0	6670	1165.378002461353	1
0	6676	1167.702643177682	2
0	6677	1167.713527096284	1
0	6683	1168.884577670726	0
0	6696	1172.163743532411	1
0	6697	1172.750569091622	0
0	6701	1172.783335906	1
0	6704	1174.386102039316	0
0	6708	1174.604747035422	1
0	6712	1175.01764300329	0
0	6727	1184.603594746691	1
0	6728	1185.381051973664	0
0	6739	1187.883959508867	1
0	6741	1193.021842991697	2
0	6743	1193.637711345181	3
0	6745	1193.757516983052	4
0	6750	1195.309696834506	5
0	6751	1195.502353819997	4
0	6756	1195.695288761036	3
0	6760	1195.979271646416	4
0	6763	1198.338983555821	3
0	6770	1202.735404299244	2
0	6777	1204.90641100151	1
0	6783	1206.753461873514	2
0	6785	1207.778325886468	3
0	6787	1208.790127099606	4
0	6788	1210.962789694226	3
0	6796	1211.440528459872	4
0	6797	1211.481617157624	3
0	6804	1211.689137323177	4
0	6805	1211.821148123223	3
0	6810	1212.345297938227	2
0	6814	1212.652820888573	3
0	6818	1212.827208822918	4
0	6819	1213.701497824791	3
0	6823	1213.926190271281	4
0	6825	1214.126970183139	5
0	6827	1217.285536322315	6
0	6831	1217.777765581554	7
0	6835	1218.688762922748	8
0	6836	1219.025871749104	7
0	6840	1219.49758179534	8
0	6843	1219.923902105716	7
0	6851	1223.361745723917	6
0	6858	1223.381683584144	7
0	6859	1223.913112726579	6
0	6866	1224.626136301132	7
0	6867	1224.627130185295	6
0	6873	1224.891150122989	5
0	6879	1224.94408258974	6
0	6882	1225.057405629212	7
0	6883	1225.117249114302	6
0	6889	1226.276432214266	5
0	6894	1226.600416127771	4
0	6899	1227.911196076087	3
0	6906	1229.751009732281	2
0	6910	1230.228020342889	3
0	6916	1231.737309187827	4
0	6920	1232.470502597376	5
0	6921	1233.992701536632	4
0	6927	1234.471010360616	5
0	6929	1234.730235228	6
0	6930	1234.944248752775	5
0	6936	1235.840403860034	4
0	6941	1236.072511145562	3
0	6948	1236.48647377592	2
0	6956	1238.32958972347	3
0	6958	1239.823714658832	4
0	6959	1240.148315635554	3
0	6963	1240.332132571768	4
0	6970	1244.73850664631	3
0	6976	1245.377109185192	4
0	6980	1245.6276635972	3
0	6985	1246.673758774443	2
0	6991	1247.730589046171	1
0	6997	1247.97401577931	0
0	7015	1249.308308020703	1
0	7017	1249.617889289504	2
0	7018	1250.194503207527	1
0	7025	1250.552114751988	0
0	7029	1251.06378255626	1
0	7033	1254.058634052107	2
0	7034	1254.306068226532	1
0	7038	1254.332643903085	2
0	7043	1255.428381235678	1
0	7049	1255.829978479949	2
0	7051	1256.221730462548	1
0	7059	1258.433035288129	0
0	7087	1261.023224699608	1
0	7088	1261.47562764645	0
0	7115	1265.194765268856	1
0	7125	1267.155383328593	2
0	7126	1267.991142223881	1
0	7132	1268.305820633964	2
0	7136	1270.005687338222	1
0	7141	1270.605710239093	0
0	7156	1275.105178405706	1
0	7157	1275.384313643801	0
0	7187	1278.523789390358	1
0	7191	1278.887034735401	0
0	7232	1285.123577583795	1
0	7234	1285.346608311012	2
0	7236	1285.678579851608	1
0	7243	1286.093952813205	0
0	7250	1286.272417521021	1
0	7253	1286.650116418455	2
0	7258	1287.478577183399	3
0	7262	1288.026956808524	4
0	7263	1288.07573745081	3
0	7268	1288.468187814062	2
0	7274	1288.819840611864	3
0	7275	1290.440614944038	2
0	7279	1290.584061094177	3
0	7282	1291.685521360986	2
0	7288	1292.938841056121	1
0	7294	1293.701576988229	2
0	7296	1294.23180627128	3
0	7297	1294.472577051879	2
0	7302	1295.155377787481	1
0	7309	1296.490105549209	0
0	7328	1298.119407106809	1
0	7329	1298.601897765836	0
0	7335	1298.660095005049	1
0	7336	1298.736471818851	0
0	7351	1301.008691506771	1
0	7352	1301.370680933273	0
0	7360	1301.732963225147	1
0	7364	1302.886150907141	0
0	7390	1304.408689615255	1
0	7391	1304.584777275577	0
0	7400	1304.612567131787	1
0	7404	1305.848602029433	2
0	7406	1306.126824351393	3
0	7407	1306.145130674346	2
0	7412	1306.787656507817	1
0	7417	1307.710715443817	0
0	7432	1311.88406147379	1
0	7435	1312.267160213867	2
0	7436	1312.570420635369	1
0	7440	1312.708604935649	2
0	7442	1313.266533707995	3
0	7444	1314.119343346377	4
0	7446	1314.753363690049	5
0	7451	1316.91007107988	4
0	7457	1317.480379729196	5
0	7459	1318.497066145249	6
0	7460	1318.580410549941	5
0	7466	1320.638323999372	6
0	7470	1322.046157713386	7
0	7471	1322.095310355407	6
0	7476	1322.787269795612	5
0	7481	1322.82156742938	4
0	7487	1325.089695235809	5
0	7489	1325.790268839963	4
0	7498	1326.294391016858	3
0	7503	1326.922401068576	2
0	7508	1327.493514171123	1
0	7512	1327.639162415345	2
0	7515	1328.59324901184	1
0	7520	1329.680393290922	0
0	7524	1329.833088256625	1
0	7527	1334.161683194285	0
0	7538	1336.25002824015	1
0	7545	1338.543762305969	0
0	7553	1338.930814620669	1
0	7554	1339.751914035771	0
0	7560	1339.80338586913	1
0	7561	1340.0169000809	0
0	7570	1342.017657877476	1
0	7572	1342.695286839672	0
0	7584	1343.833337673484	1
0	7586	1344.247732194824	0
0	7630	1347.812136559438	1
0	7631	1348.259609454347	0
0	7640	1349.86881974853	1
0	7641	1350.194092801659	0
0	7685	1355.722000284527	1
0	7688	1356.754686342159	0
0	7727	1362.027567285937	1
0	7728	1362.25436870752	0
0	7825	1387.082175499424	1
0	7827	1387.85968568754	2
0	7828	1388.462145331254	1
0	7834	1388.678721759864	2
0	7837	1388.871600187128	1
0	7843	1389.44541887556	2
0	7844	1390.764024267201	1
0	7850	1390.868102984642	0
0	7856	1391.577437615819	1
0	7857	1391.878600438551	0
0	7868	1392.547864437555	1
0	7871	1395.117621941044	0
0	7877	1395.97638500109	1
0	7879	1396.076031548319	0
0	7890	1396.865194224986	1
0	7891	1396.973754192037	0
0	7907	1397.992664550878	1
0	7911	1400.111123281334	2
0	7912	1400.234055698496	1
0	7921	1400.96362479828	0
0	7957	1407.275221368703	1
0	7961	1408.553826319189	0
0	7972	1409.957344494927	1
0	7973	1410.928874934875	0
0	7986	1411.539877054542	1
0	7988	1411.624285429161	2
0	7989	1412.266551679669	1
0	7995	1412.964451115618	0
0	8001	1414.737886753546	1
0	8006	1415.852110468563	0
0	8019	1418.174846752659	1
0	8022	1419.334957225779	0
0	8054	1431.218346377298	1
0	8055	1433.336779366178	0
0	8064	1435.469682726288	1
0	8065	1435.823268485949	0
0	8071	1436.45347867742	1
0	8073	1436.480545773446	2
0	8074	1436.599659957688	1
0	8083	1437.318752062235	2
0	8089	1438.428666052005	3
0	8090	1438.612111183974	2
0	8095	1438.657989072154	1
0	8101	1439.107436121558	2
0	8105	1440.364907179792	1
0	8110	1440.475970687038	0
0	8116	1440.509144299617	1
0	8117	1440.570316979588	0
0	8123	1440.956105945334	1
0	8125	1441.579490786634	2
0	8126	1441.710324599078	1
0	8131	1442.676440942836	0
0	8137	1444.128942283997	1
0	8138	1444.871427097997	0
0	8161	1445.70483471241	1
0	8163	1446.379023021059	0
0	8174	1447.292210466747	1
0	8177	1449.569381920511	0
0	8183	1449.750290448045	1
0	8184	1450.084185945644	0
0	8190	1450.221462982189	1
0	8193	1450.464061526361	2
0	8194	1450.78207022461	1
0	8200	1450.951993926788	2
0	8201	1451.275135106577	1
0	8207	1451.653496454955	2
0	8211	1452.503629945633	1
0	8218	1454.252757056065	2
0	8219	1454.745785500981	1
0	8225	1455.118481292568	0
0	8231	1455.482043995168	1
0	8232	1455.916741176517	0
0	8257	1457.61342792694	1
0	8260	1458.312157351851	0
0	8264	1458.963319914133	1
0	8267	1459.512436973494	0
0	8271	1459.536921567795	1
0	8273	1459.984704231996	2
0	8277	1460.142044558857	3
0	8283	1461.924731859441	2
0	8291	1462.490384762395	3
0	8292	1462.87588458472	2
0	8296	1462.951873669536	3
0	8299	1465.390105096646	2
0	8306	1466.27810195805	1
0	8310	1466.318210466959	2
0	8314	1467.999012161915	3
0	8318	1469.287731340393	4
0	8320	1470.149442046054	5
0	8323	1470.465363210289	4
0	8329	1471.280021370521	5
0	8331	1471.412379642023	6
0	8335	1472.666162463392	5
0	8343	1473.177425699711	6
0	8345	1473.459643563835	5
0	8351	1473.698470227326	4
0	8356	1474.78092400219	3
0	8360	1475.355557990541	4
0	8366	1477.35726989494	3
0	8371	1478.126015655301	2
0	8376	1480.139862369229	1
0	8380	1480.49491170791	2
0	8385	1481.759564095788	1
0	8390	1483.084407449813	0
0	8394	1483.195117496033	1
0	8397	1485.154304112219	0
0	8403	1487.708952769934	1
0	8404	1487.934301084624	0
0	8408	1488.75866833492	1
0	8410	1489.351081109217	2
0	8415	1490.420525596736	1
0	8421	1492.342866965821	2
0	8425	1493.83767860402	1
0	8431	1493.869563849237	2
0	8432	1494.196480660321	1
0	8436	1494.364380717683	2
0	8439	1497.236303453236	1
0	8443	1497.355920615469	2
0	8446	1497.913018460203	1
0	8452	1500.137692261656	2
0	8453	1500.202915879795	1
0	8458	1502.341959747067	0
0	8462	1503.300655398901	1
0	8469	1505.489902885218	0
0	8473	1505.725479878407	1
0	8476	1505.946366748641	0
0	8480	1506.000291252266	1
0	8482	1506.103103420678	2
0	8484	1506.223566979727	3
0	8487	1506.947941534928	2
0	8492	1507.198896575413	1
0	8496	1507.291528856991	2
0	8498	1508.040278755471	3
0	8500	1508.445966713607	4
0	8505	1510.131877301262	3
0	8509	1510.97947957671	4
0	8512	1511.299884520382	3
0	8518	1512.285644477389	4
0	8521	1514.425060302374	3
0	8528	1515.483614657434	2
0	8536	1515.8411679556	1
0	8541	1516.548448633965	0
0	8552	1518.578919965986	1
0	8554	1519.364844730663	0
0	8560	1519.836489347484	1
0	8562	1520.736035356499	0
0	8599	1523.394342567875	1
0	8601	1523.801336272094	2
0	8603	1524.419440613466	3
0	8605	1524.888174120185	4
0	8611	1527.289984700546	5
0	8615	1527.731427259918	6
0	8616	1528.005470849778	5
0	8621	1528.038204293991	4
0	8626	1528.439546852655	3
0	8636	1530.289649159468	2
0	8641	1530.99596333634	1
0	8646	1531.297209621332	0
0	8657	1532.042324021798	1
0	8659	1532.41950893791	2
0	8661	1534.43074625899	1
0	8667	1536.085968456366	0
0	8681	1537.244258489882	1
0	8683	1537.403729221288	2
0	8686	1538.361050600477	3
0	8687	1538.696801741491	2
0	8692	1538.894376919099	1
0	8696	1539.786982559831	2
0	8701	1541.323833338366	1
0	8706	1541.580091078135	0
0	8710	1541.945861321207	1
0	8712	1543.740710229132	2
0	8717	1548.371887791681	1
0	8723	1550.015870206619	2
0	8731	1551.138570505639	1
0	8737	1551.388883343962	2
0	8738	1551.99768336217	1
0	8744	1553.619009751898	2
0	8746	1553.651763050625	3
0	8748	1554.28003241034	4
0	8750	1554.369111285111	5
0	8752	1556.267405556258	6
0	8754	1556.399952884206	7
0	8757	1556.755484875194	6
0	8763	1557.060085446059	7
0	8765	1557.303954327052	6
0	8771	1558.505126002139	7
0	8773	1558.818615685606	8
0	8774	1558.832340848593	7
0	8778	1559.414229387844	8
0	8787	1561.368214917399	9
0	8788	1561.575452717875	8
0	8795	1562.101452917866	7
0	8804	1563.765741678822	8
0	8805	1564.135697931881	7
0	8810	1564.782092839049	6
0	8815	1565.960511519442	5
0	8821	1567.931446668718	6
0	8824	1569.389369820452	5
0	8829	1570.902149142085	4
0	8835	1571.080848679169	5
0	8837	1571.269072025005	6
0	8840	1573.822374235826	7
0	8841	1574.149681042708	6
0	8846	1574.455553954472	5
0	8853	1575.48538783334	4
0	8858	1579.715533344206	3
0	8862	1579.743443341387	4
0	8867	1580.269643824452	5
0	8868	1581.505095983778	4
0	8874	1581.90089953969	5
0	8875	1582.760746198348	4
0	8879	1583.241449146984	5
0	8882	1583.819554304383	4
0	8888	1585.172926372151	5
0	8892	1585.91645856968	6
0	8894	1586.557883516685	5
0	8899	1587.829403644666	4
0	8904	1588.686868611738	3
0	8910	1591.099345993	4
0	8913	1591.697847065208	3
0	8918	1591.869248117464	2
0	8924	1591.892333878125	3
0	8928	1592.18314965112	4
0	8929	1592.39523522913	3
0	8936	1593.869843276603	2
0	8942	1594.910005587705	3
0	8943	1595.370897123167	2
0	8947	1595.434406102113	3
0	8950	1595.518812775171	2
0	8955	1596.952135539841	1
0	8963	1598.176723390309	2
0	8968	1598.557259157165	1
0	8976	1599.647614120067	0
0	8988	1601.00989224654	1
0	8989	1601.015482232038	0
0	8995	1601.023858243385	1
0	8997	1601.056615053426	2
0	8998	1601.825103631051	1
0	9003	1602.036097279422	0
0	9056	1607.875960440272	1
0	9059	1612.051877083924	0
0	9068	1613.147053884397	1
0	9076	1616.39443504036	2
0	9078	1617.086292232501	1
0	9083	1617.144379611793	0
0	9095	1620.97713014205	1
0	9097	1621.29142219647	0
0	9104	1622.108976900381	1
0	9105	1622.13107388456	0
0	9113	1623.327858657548	1
0	9116	1623.349073675179	0
0	9172	1630.549126924594	1
0	9175	1631.024056734701	0
0	9188	1632.332752403959	1
0	9190	1633.082366206191	0
0	9209	1634.61289327304	1
0	9210	1634.896920545745	0
0	9222	1636.737711094728	1
0	9225	1637.246756684703	0
0	9238	1638.127967261621	1
0	9239	1638.508747256187	0
0	9245	1639.098770540152	1
0	9247	1639.427629192866	2
0	9248	1639.533851895332	1
0	9254	1640.076388849155	2
0	9255	1640.102710235506	1
0	9261	1641.5431304553	0
0	9273	1642.468115884102	1
0	9275	1644.124737549842	0
0	9282	1644.540607301625	1
0	9285	1644.901270887722	0
0	9304	1646.105314292516	1
0	9306	1646.456853505204	0
0	9319	1648.308074629837	1
0	9323	1652.787003319565	2
0	9325	1652.944678805938	3
0	9326	1653.072666719852	2
0	9337	1655.250898290513	1
0	9342	1656.079274871226	0
0	9381	1663.47040068931	1
0	9382	1663.471118138967	0
0	9390	1664.278697430264	1
0	9391	1664.527270111877	0
0	9409	1668.885552527666	1
0	9411	1669.317276622126	2
0	9412	1669.352813628045	1
0	9417	1669.655011701872	0
0	9424	1674.136725490825	1
0	9426	1675.811482388472	0
0	9454	1677.47313103436	1
0	9457	1677.920825835337	0
0	9465	1678.148283319141	1
0	9466	1678.156258541022	0
0	9473	1680.980912974856	1
0	9477	1683.196956107352	2
0	9481	1683.803233117645	3
0	9482	1684.2151526643	2
0	9487	1684.23952368456	1
0	9493	1684.905508417142	2
0	9499	1687.558530124584	1
0	9505	1687.866360220397	0
0	9511	1688.554274719729	1
0	9512	1688.869239414262	0
0	9518	1691.216791106547	1
0	9521	1692.140428832883	0
0	9527	1692.240941503616	1
0	9528	1693.588551759484	0
0	9549	1694.58597413718	1
0	9550	1694.851842650004	0
0	9557	1695.817872342656	1
0	9558	1695.861648048203	0
0	9572	1697.28264997693	1
0	9574	1699.809948565268	2
0	9576	1700.241048217084	3
0	9582	1703.491175382876	4
0	9585	1703.964559459873	3
0	9592	1704.295496967469	4
0	9593	1704.757587248524	3
0	9599	1705.055707856654	4
0	9601	1705.080248517985	5
0	9605	1705.806133857923	6
0	9606	1705.975517579036	5
0	9613	1706.988423574646	6
0	9614	1707.470024047999	5
0	9619	1708.323600468477	4
0	9623	1708.674928919287	5
0	9627	1709.249278865231	6
0	9629	1710.180918614331	7
0	9634	1713.01630505932	6
0	9640	1714.820413918095	5
0	9646	1715.225675526332	6
0	9647	1715.536739453424	5
0	9652	1716.297194476897	4
0	9656	1716.575003561743	5
0	9658	1716.63338619664	6
0	9660	1716.650950974082	7
0	9664	1717.503266784131	6
0	9669	1718.042745848485	5
0	9673	1718.794625995943	6
0	9675	1719.240888115883	7
0	9682	1722.415719829344	6
0	9686	1722.681987695973	7
0	9689	1723.831330187942	6
0	9695	1724.804262315563	5
0	9700	1725.276190103365	4
0	9707	1727.720631062494	3
0	9712	1728.600290436803	2
0	9718	1729.311242787529	3
0	9719	1729.784081623773	2
0	9724	1731.807595711621	1
0	9729	1732.551765876297	0
0	9733	1732.724295135012	1
0	9737	1732.984044568677	2
0	9739	1733.38516217728	1
0	9745	1734.364715753029	2
0	9746	1734.420080375818	1
0	9750	1734.637266408042	2
0	9755	1736.211312587619	1
0	9760	1737.526624897553	0
0	9764	1738.833028402286	1
0	9767	1739.522405844371	0
0	9771	1739.814515712553	1
0	9773	1740.246392982801	2
0	9775	1740.876702544133	3
0	9779	1741.684108894905	4
0	9780	1742.187889732524	3
0	9784	1742.652589674621	4
0	9786	1743.928270656845	5
0	9790	1744.781190617253	6
0	9792	1745.582107038606	7
0	9795	1746.189213753917	6
0	9799	1748.076871078389	7
0	9803	1748.505519652945	8
0	9804	1749.822520175633	7
0	9808	1750.129794998372	8
0	9810	1750.760743159408	9
0	9812	1752.320122913141	10
0	9814	1753.76316726226	11
0	9817	1755.593398169436	10
0	9823	1757.579784408803	11
0	9825	1757.691034821196	12
0	9826	1757.809640746817	11
0	9833	1758.811418961169	10
0	9839	1758.920567640108	11
0	9841	1759.877083844164	10
0	9848	1762.147432427864	9
0	9857	1762.803813504802	8
0	9862	1762.823767179141	7
0	9867	1762.950307977796	6
0	9871	1763.712709541159	7
0	9874	1764.810092663585	6
0	9881	1766.734409373208	7
0	9882	1767.105557657111	6
0	9887	1767.607824505351	5
0	9894	1770.007348056857	4
0	9900	1771.666301779196	3
0	9906	1771.71907986715	4
0	9907	1771.926794306149	3
0	9916	1774.212206317228	2
0	9923	1776.300605826341	1
0	9929	1777.305960870438	2
0	9930	1777.472772092656	1
0	9934	1778.119471384726	2
0	9936	1779.093855989115	3
0	9939	1779.985052790655	2
0	9944	1781.077912818206	1
0	9951	1784.618876690201	0
0	9963	1785.78987547879	1
0	9964	1786.299280097891	0
0	9978	1787.808491959219	1
0	9981	1788.103706323087	0
0	10006	1791.651107717526	1
0	10011	1793.019642742143	0
0	10028	1794.061864907371	1
0	10029	1794.387646854074	0
0	10043	1796.72109796569	1
0	10045	1797.043536468466	2
0	10048	1797.264195348725	1
0	10053	1797.566625399437	0
0	10060	1798.429475044787	1
0	10061	1798.434949784055	0
0	10077	1799.561831623726	1
0	10079	1799.795018183095	2
0	10080	1800.109998826401	1
0	10086	1800.418337611813	0
0	10104	1808.838734666041	1
0	10107	1810.398293963309	0
0	10113	1810.430901101823	1
0	10118	1812.053716597552	0
0	10125	1812.791827320519	1
0	10127	1812.847211618493	2
0	10131	1814.137559177149	3
0	10132	1815.242955078295	2
0	10138	1815.302113207966	3
0	10141	1816.266709690098	2
0	10147	1816.364865434218	1
0	10153	1816.554840024624	0
0	10159	1817.015015134874	1
0	10161	1817.810447107005	2
0	10163	1817.90199370416	3
0	10164	1817.953657892142	2
0	10170	1818.551864591009	1
0	10175	1818.770406571524	0
0	10195	1822.374874675999	1
0	10199	1824.770498049171	2
0	10201	1825.518588035616	3
0	10202	1825.518879434075	2
0	10207	1826.476849863483	1
0	10214	1826.701520711835	2
0	10216	1826.963365965516	1
0	10223	1828.048975010395	0
0	10229	1828.686400794727	1
0	10230	1828.699766885089	0
0	10263	1831.787351936016	1
0	10264	1832.209341815956	0
0	10270	1832.211357005946	1
0	10272	1832.367537870315	2
0	10273	1833.953453612584	1
0	10277	1834.054857806477	2
0	10280	1834.910829280165	1
0	10286	1835.503023418021	0
0	10297	1836.744449573813	1
0	10301	1838.748522972385	0
0	10308	1839.49113149502	1
0	10313	1841.271294260971	0
0	10331	1843.471972921525	1
0	10333	1843.54845205207	0
0	10344	1844.979967246209	1
0	10347	1845.624122997218	0
0	10364	1849.239098667744	1
0	10366	1849.637856794843	0
0	10390	1851.637930434757	1
0	10393	1852.108879984009	0
0	10404	1853.084547387154	1
0	10408	1853.567492466504	2
0	10410	1853.808702858325	3
0	10412	1855.654105334804	4
0	10414	1856.141384748645	5
0	10418	1857.47662064024	6
0	10421	1857.765637195112	7
0	10422	1858.653727693261	6
0	10427	1858.702605451081	5
0	10432	1859.224288902743	4
0	10438	1860.269263055413	3
0	10443	1860.627145001199	2
0	10448	1861.281408521198	1
0	10454	1864.217002919844	0
0	10465	1865.085800368238	1
0	10469	1865.965830144503	2
0	10472	1867.076792312147	3
0	10475	1868.018963208237	4
0	10477	1868.164392218154	5
0	10478	1868.293043195688	4
0	10483	1868.301747517964	3
0	10491	1869.340116136836	2
0	10496	1869.369077368638	1
0	10501	1869.45360433411	0
0	10517	1869.858213271589	1
0	10518	1870.199330078283	0
0	10527	1870.968651095834	1
0	10529	1871.773716406334	2
0	10531	1872.002265189416	1
0	10537	1873.498231072948	2
0	10539	1873.874668458123	1
0	10543	1874.690595310855	2
0	10551	1878.248039992878	1
0	10556	1878.306209354942	0
0	10576	1879.586656010701	1
0	10579	1881.403671337505	2
0	10582	1881.907121465471	1
0	10588	1882.353371541367	0
0	10594	1882.492764820346	1
0	10597	1883.0102602293	2
0	10599	1883.547082483494	3
0	10601	1884.479737548323	2
0	10606	1884.94800417318	1
0	10611	1885.124294036659	0
0	10641	1888.35058430989	1
0	10643	1888.414425300088	2
0	10645	1888.607487484947	3
0	10648	1889.350354908255	2
0	10655	1889.429221752938	1
0	10660	1889.447618209994	0
0	10673	1891.039349901102	1
0	10676	1891.197856274753	0
0	10693	1892.802119128754	1
0	10696	1893.942336295495	2
0	10699	1894.243911560772	3
0	10705	1898.141857762112	2
0	10710	1898.214485649845	1
0	10719	1899.572516997874	0
0	10733	1900.014472847771	1
0	10734	1902.136864320386	0
0	10773	1906.275944540211	1
0	10778	1906.720506144211	2
0	10782	1909.322489044331	3
0	10783	1910.007596628765	2
0	10788	1910.127959442852	1
0	10793	1910.163718427018	0
0	10810	1911.07379652339	1
0	10812	1911.562472153585	2
0	10814	1912.013124708454	3
0	10815	1912.35492249154	2
0	10820	1912.981055666825	1
0	10826	1913.81342513574	0
0	10845	1917.42688489139	1
0	10849	1919.391330289483	2
0	10850	1920.356675927156	1
0	10855	1920.437298555881	0
0	10902	1929.111076996178	1
0	10903	1929.235653608783	0
0	10916	1930.210064756665	1
0	10919	1930.89060007999	0
0	10925	1931.841761126574	1
0	10928	1933.205544639051	0
0	10935	1933.915858673794	1
0	10937	1934.560880992484	0
0	10978	1938.517670183317	1
0	10979	1938.555286788044	0
0	11007	1942.97125663918	1
0	11010	1943.250149616156	2
0	11011	1943.712414733178	1
0	11018	1945.562943183493	0
0	11027	1946.101181110129	1
0	11028	1947.164222217326	0
0	11085	1956.295933615653	1
0	11087	1956.477489575533	0
0	11114	1960.474480910186	1
0	11115	1960.635506131776	0
0	11154	1965.965382054565	1
0	11155	1966.353547170029	0
0	11161	1966.798144173826	1
0	11162	1967.108462727744	0
0	11166	1967.621977735611	1
0	11168	1968.149862531703	2
0	11172	1969.947532540754	1
0	11176	1970.968928254061	2
0	11183	1972.058333970972	3
0	11185	1972.723244277339	2
0	11191	1973.053060255997	3
0	11195	1975.18182407465	4
0	11196	1975.601220413951	3
0	11201	1975.635681919976	2
0	11205	1977.291176926848	3
0	11208	1977.569761920416	2
0	11213	1977.91635735337	1
0	11219	1979.712841342724	2
0	11221	1981.310147176982	3
0	11223	1982.316709892866	4
0	11225	1982.704600621223	5
0	11229	1983.765816779885	6
0	11230	1984.37039837427	5
0	11240	1986.161953488505	6
0	11242	1986.425321285278	7
0	11244	1986.657692841008	8
0	11246	1988.034904496682	9
0	11247	1988.592049382342	8
0	11254	1989.346864255306	9
0	11257	1989.843918840461	8
0	11263	1991.36620923808	7
0	11271	1991.553396388177	6
0	11276	1991.869143000295	5
0	11280	1992.931496980066	6
0	11282	1992.953129702927	7
0	11285	1993.450933832206	6
0	11291	1995.162170156187	5
0	11296	1995.441711681698	4
0	11302	1996.60439948675	3
0	11308	1997.312676165051	2
0	11314	1997.398380518369	3
0	11315	1997.715573507113	2
0	11323	1997.970020185068	3
0	11325	1998.032507947873	4
0	11328	1998.224390364163	3
0	11333	1998.434638562971	2
0	11339	1998.792318898844	1
0	11344	1999.427868498192	0
0	11348	2000.372175158059	1
0	11351	2000.839356295019	0
0	11369	2003.973651574495	1
0	11374	2006.344653788602	2
0	11376	2007.423601256624	1
0	11382	2008.329205396396	2
0	11383	2008.903386337453	1
0	11389	2010.07407922477	0
0	11424	2012.860098261714	1
0	11425	2013.303104502322	0
0	11431	2013.475414522891	1
0	11437	2014.491731943271	2
0	11439	2015.42812303529	1
0	11446	2015.894578637673	0
0	11458	2017.212598380908	1
0	11459	2018.086651612634	0
0	11557	2033.577085644804	1
0	11560	2034.13338496991	2
0	11563	2034.507970737118	3
0	11565	2034.648854077077	4
0	11566	2034.794483430891	3
0	11571	2034.875079285197	2
0	11576	2034.947995774877	1
0	11581	2035.002795373415	0
0	11608	2041.431663524924	1
0	11609	2041.536813635593	0
0	11620	2042.467766100359	1
0	11622	2043.477831683072	0
0	11628	2043.500461841106	1
0	11629	2043.53735462101	0
0	11691	2054.74175684713	1
0	11692	2055.054717243382	0
0	11707	2057.354794568448	1
0	11708	2058.054006604419	0
0	11752	2067.423356343679	1
0	11755	2067.611321159083	2
0	11758	2067.956547062565	1
0	11763	2069.228934245687	0
0	11776	2070.000800458397	1
0	11777	2070.042715037958	0
0	11783	2070.466073662296	1
0	11784	2070.972246015002	0
0	11828	2079.299016500673	1
0	11832	2080.517924573449	2
0	11834	2081.078722738679	1
0	11845	2083.586378761212	0
0	11856	2083.754274360215	1
0	11858	2084.251599801673	2
0	11860	2084.858824524418	1
0	11866	2085.240622084555	0
0	11894	2089.890139111582	1
0	11895	2089.95349652587	0
0	11907	2092.21546195997	1
0	11910	2093.745008867994	2
0	11911	2094.071356776955	1
0	11916	2094.56247843679	0
0	11920	2096.103501092716	1
0	11926	2096.585541587909	0
0	11932	2096.780022681427	1
0	11933	2097.032913066591	0
0	11940	2099.199237139757	1
0	11941	2100.251985690344	0
0	11967	2106.543162603769	1
0	11969	2107.396647144474	2
0	11974	2108.423593449685	1
0	11979	2109.283590208433	0
0	11996	2111.760691658185	1
0	11998	2113.328044221323	0
0	12019	2118.327771346204	1
0	12022	2119.666395830736	2
0	12023	2119.800750643486	1
0	12029	2120.046323287837	0
0	12044	2122.479336958878	1
0	12047	2123.277245994893	2
0	12049	2123.58876647066	1
0	12057	2125.294444132667	0
0	12070	2125.752573749785	1
0	12072	2125.823845333957	2
0	12075	2126.5675841292	1
0	12080	2126.602627048175	0
0	12099	2129.443633944581	1
0	12103	2130.417127483822	0
0	12165	2145.730051365551	1
0	12167	2145.907650953515	2
0	12169	2146.185475796362	1
0	12176	2148.016626924677	0
0	12182	2148.025787417597	1
0	12184	2148.145189236984	2
0	12189	2149.018307571916	3
0	12190	2149.852754918435	2
0	12195	2150.097101473698	1
0	12201	2150.150194934468	2
0	12202	2150.150720964513	1
0	12207	2150.520652795262	0
0	12217	2152.472502908195	1
0	12218	2152.554251783925	0
0	12222	2152.846603175113	1
0	12225	2153.9331854754	0
0	12238	2156.755723043766	1
0	12239	2157.906225533741	0
0	12245	2158.981554631922	1
0	12246	2160.147665843918	0
0	12250	2161.352965127787	1
0	12255	2163.025140681594	0
0	12279	2166.241686503588	1
0	12281	2166.533168308728	2
0	12282	2166.97268845685	1
0	12287	2167.025058816988	0
0	12343	2176.223728036882	1
0	12345	2176.853438912289	0
0	12364	2179.449323524792	1
0	12367	2180.785656304313	0
0	12436	2196.337570133912	1
0	12437	2196.466760113702	0
0	12500	2210.132499209806	1
0	12502	2211.082996534352	2
0	12503	2212.491935021685	1
0	12508	2213.323502933115	0
0	12514	2214.080800203368	1
0	12516	2214.523455490408	2
0	12519	2215.829291083382	1
0	12527	2217.290054512231	2
0	12529	2217.367866886756	3
0	12534	2219.072393302197	2
0	12539	2219.818274370298	1
0	12545	2219.825995043349	2
0	12547	2220.26114307742	1
0	12553	2220.991219907392	2
0	12555	2221.1707004223	1
0	12560	2223.186852133595	0
0	12564	2223.616747027506	1
0	12570	2224.394320931153	0
0	12586	2225.244535897016	1
0	12590	2229.313861644125	0
0	12641	2238.202585351293	1
0	12643	2238.862946529765	0
0	12659	2241.590193831243	1
0	12663	2242.591236836509	2
0	12666	2243.788555836453	1
0	12672	2245.06708470927	2
0	12674	2245.173589184836	3
0	12677	2246.32879091475	2
0	12682	2246.519258347826	1
0	12687	2246.842949626742	0
0	12700	2247.724832969325	1
0	12701	2247.827921465471	0
0	12716	2249.055791773416	1
0	12718	2249.463510245804	2
0	12719	2249.476460283989	1
0	12725	2249.562215152178	2
0	12726	2249.908794446588	1
0	12734	2250.398724445863	2
0	12736	2251.37110434195	3
0	12740	2253.616881383919	4
0	12741	2253.751269361864	3
0	12747	2254.303747967727	2
0	12753	2254.886874172609	3
0	12754	2255.142537955502	2
0	12763	2256.856771474768	1
0	12767	2257.313920112959	2
0	12772	2257.763167167036	1
0	12776	2258.023378782943	2
0	12780	2258.542711628466	3
0	12785	2259.814297415375	4
0	12786	2259.907613256541	3
0	12792	2260.747786709975	2
0	12799	2260.940881615808	1
0	12804	2262.419562394698	0
0	12810	2263.544239054513	1
0	12811	2263.664402125359	0
0	12815	2264.231203557985	1
0	12823	2266.673433258415	2
0	12825	2266.959831018159	3
0	12826	2267.709492263558	2
0	12830	2267.762716840532	3
0	12834	2269.243060737536	4
0	12838	2271.93874028584	5
0	12844	2272.658911088344	6
0	12846	2272.82523448401	7
0	12847	2273.338423820209	6
0	12852	2274.222772300732	5
0	12857	2274.468360220031	4
0	12861	2274.740370254262	5
0	12867	2277.323750933403	6
0	12872	2278.582533006006	5
0	12877	2281.362484795455	4
0	12881	2283.443411938836	5
0	12886	2285.560180611117	4
0	12892	2289.271227200932	5
0	12895	2290.011857298984	4
0	12899	2290.379174335769	5
0	12901	2290.39023051254	6
0	12904	2291.970392662267	5
0	12912	2293.76119751645	6
0	12915	2295.601586150602	5
0	12919	2297.134862982989	6
0	12923	2297.909368282851	5
0	12928	2297.928887303959	4
0	12932	2298.181858426445	5
0	12936	2298.767231156233	6
0	12939	2299.123963495133	7
0	12940	2300.007693004547	6
0	12945	2300.100517725765	5
0	12951	2301.044170561915	6
0	12952	2301.588400848528	5
0	12956	2303.20441235132	6
0	12958	2303.583090164199	7
0	12961	2304.010360303566	6
0	12966	2307.480668843954	5
0	12970	2307.625984873649	6
0	12974	2307.813619732679	7
0	12975	2308.033102101015	6
0	12980	2311.021120558192	5
0	12984	2311.13613678747	6
0	12987	2312.296371729765	5
0	12991	2313.16553892257	6
0	12995	2313.720263573579	7
0	12996	2314.338035808186	6
0	13002	2315.089310789651	5
0	13007	2315.125129683125	4
0	13013	2315.533099537426	5
0	13017	2315.649461935398	6
0	13019	2315.778570932172	5
0	13027	2316.018548646673	6
0	13028	2317.15081455707	5
0	13033	2318.130039764037	4
0	13038	2318.988670317293	3
0	13042	2319.787693262048	4
0	13045	2320.648607714764	3
0	13051	2321.84256803699	4
0	13054	2322.673292675973	3
0	13059	2323.01917673764	2
0	13064	2323.580739162431	1
0	13069	2326.979438058022	0
0	13085	2329.050300972812	1
0	13088	2329.750494695292	2
0	13090	2330.687773985785	1
0	13098	2331.18454232094	2
0	13099	2331.250520408474	1
0	13103	2332.075686976449	2
0	13106	2332.997336524479	1
0	13111	2333.570065865277	0
0	13122	2337.255212282675	1
0	13123	2337.348811487821	0
0	13129	2337.924062283217	1
0	13131	2338.535464541361	2
0	13132	2338.585088074359	1
0	13139	2339.952803727268	0
0	13159	2342.025100823004	1
0	13160	2342.341412496434	0
0	13166	2342.383225128148	1
0	13168	2342.769649926085	0
0	13185	2343.333829029602	1
0	13186	2343.813585407576	0
0	13207	2345.890897644282	1
0	13208	2346.051406423204	0
0	13221	2348.378356803227	1
0	13222	2348.461002664169	0
0	13235	2350.824457963875	1
0	13236	2351.352379091937	0
0	13254	2352.876016257971	1
0	13256	2353.46075137489	2
0	13260	2355.133122341196	3
0	13264	2356.851026740907	4
0	13266	2357.587190287029	5
0	13269	2357.880598657589	4
0	13274	2358.083323780742	3
0	13281	2358.95065294538	4
0	13283	2359.000033243416	5
0	13287	2359.689810011231	4
0	13292	2359.901590759593	3
0	13298	2360.549116124219	4
0	13301	2360.821108055102	5
0	13302	2360.824648339651	4
0	13308	2361.396295860963	3
0	13314	2361.92838978285	2
0	13320	2362.125360378101	3
0	13331	2364.320993607086	2
0	13337	2364.776380874753	1
0	13342	2364.779717438856	0
0	13346	2365.517205052704	1
0	13350	2366.642046470012	0
0	13376	2368.047238303974	1
0	13381	2369.067642766254	2
0	13385	2369.975754303477	3
0	13387	2370.026993966945	4
0	13389	2371.866844332898	3
0	13394	2372.437871824815	2
0	13399	2372.623108042473	1
0	13404	2372.769612368782	0
0	13413	2373.177335474862	1
0	13415	2374.426268062209	0
0	13421	2375.40042325155	1
0	13422	2375.845893480793	0
0	13430	2376.188206644544	1
0	13431	2376.260453504798	0
0	13435	2376.341919752934	1
0	13441	2377.470801955574	2
0	13442	2377.711666393328	1
0	13452	2379.701745436554	2
0	13453	2379.93235693047	1
0	13458	2380.872867312134	0
0	13477	2381.451019704341	1
0	13481	2382.717720337748	2
0	13482	2382.828398923857	1
0	13487	2384.543262731008	0
0	13491	2384.797088492559	1
0	13493	2384.893869047241	2
0	13498	2385.304342674124	1
0	13504	2386.156097768473	2
0	13505	2386.434094756514	1
0	13514	2388.933671514716	0
0	13547	2393.694171231947	1
0	13549	2394.808108770538	0
0	13567	2395.826277255497	1
0	13570	2396.273046235849	0
0	13583	2396.926612363694	1
0	13586	2397.363568485553	2
0	13588	2397.780373235895	3
0	13589	2398.13957676389	2
0	13594	2398.513074651732	1
0	13603	2400.461789139783	2
0	13604	2400.784488800695	1
0	13611	2401.09309909685	0
0	13625	2403.497850176057	1
0	13627	2404.298027690943	2
0	13628	2404.399794010088	1
0	13633	2404.456647743686	0
0	13639	2404.563226835892	1
0	13640	2404.636560775241	0
0	13648	2407.002886808641	1
0	13651	2407.446072264043	0
0	13666	2411.136535709798	1
0	13668	2412.780182175504	0
0	13681	2413.611612204731	1
0	13683	2415.130310879963	2
0	13684	2416.488549336591	1
0	13689	2416.663244242633	0
0	13709	2417.737099898217	1
0	13710	2417.78019424482	0
0	13726	2418.07575935277	1
0	13728	2418.466087341464	2
0	13729	2419.105964691715	1
0	13734	2419.11263580272	0
0	13751	2422.74143092275	1
0	13753	2422.763917734159	2
0	13754	2422.770216920503	1
0	13761	2424.711699806881	0
0	13781	2428.553613424042	1
0	13784	2429.261508995894	0
0	13800	2432.914844798851	1
0	13802	2433.604340294325	2
0	13806	2434.344067343843	1
0	13812	2434.56795483329	2
0	13815	2434.845390879653	1
0	13821	2435.075931841626	0
0	13843	2437.233029061489	1
0	13846	2437.801673739956	0
0	13870	2440.761154066141	1
0	13872	2441.144094415922	2
0	13873	2441.625778817147	1
0	13878	2441.692246611667	0
0	13899	2444.426378111324	1
0	13901	2444.725207611554	2
0	13905	2446.372711076193	1
0	13910	2446.799705049797	0
0	13916	2446.831059267131	1
0	13918	2447.44859270355	0
0	13932	2448.886818561227	1
0	13933	2449.010786332426	0
0	13952	2451.322534399261	1
0	13956	2451.548863089946	0
0	13976	2453.102524860517	1
0	13977	2453.361522476266	0
0	13983	2454.020078597877	1
0	13987	2455.674371908072	0
0	13998	2456.726174243268	1
0	13999	2457.157677784632	0
0	14014	2460.689634914833	1
0	14016	2461.089706676396	2
0	14020	2461.616639911496	1
0	14026	2462.938367039171	0
0	14043	2464.967664422133	1
0	14044	2465.583142083722	0
0	14087	2470.525474201011	1
0	14092	2471.596668403593	2
0	14096	2471.889367658029	3
0	14100	2474.504181659893	2
0	14106	2474.565434451326	3
0	14107	2474.906563298163	2
0	14115	2475.736099562771	3
0	14116	2476.397050290977	2
0	14123	2476.802196008496	1
0	14129	2477.494643042457	0
0	14135	2479.820542734209	1
0	14136	2479.830889013803	0
0	14182	2490.603463716216	1
0	14186	2491.468364043375	0
0	14200	2493.41864572542	1
0	14204	2493.833882846209	2
0	14207	2494.222365278226	3
0	14211	2495.719184930151	2
0	14216	2495.777563450388	1
0	14222	2496.716610489514	2
0	14224	2496.878303544813	3
0	14229	2497.657791400214	4
0	14233	2498.353945951278	3
0	14240	2499.52835735481	2
0	14247	2499.992257810286	3
0	14249	2500.520080778316	2
0	14254	2500.762022291872	1
0	14260	2500.801153511359	2
0	14267	2502.400183097956	1
0	14272	2502.75530815201	0
0	14284	2504.463652496055	1
0	14286	2504.855321136459	0
0	14302	2505.493135462894	1
0	14306	2506.048239941917	2
0	14308	2506.997812947197	1
0	14315	2510.055521480431	0
0	14321	2510.252514205833	1
0	14326	2511.025827118326	2
0	14327	2511.295426196946	1
0	14332	2512.932178504552	0
0	14353	2515.218401744511	1
0	14357	2515.4486854134	2
0	14358	2515.528397202249	1
0	14363	2515.936958690601	0
0	14375	2518.82659543849	1
0	14376	2519.964665361562	0
0	14387	2520.712510566782	1
0	14388	2520.712966557773	0
0	14399	2521.374234843186	1
0	14401	2521.691918884976	2
0	14402	2521.705619832441	1
0	14406	2522.037830779057	2
0	14411	2523.005125509008	1
0	14415	2523.292735601818	2
0	14417	2524.648217386036	3
0	14419	2524.824829445408	4
0	14421	2525.750894829938	5
0	14425	2526.830600193838	6
0	14427	2527.02602729358	7
0	14429	2527.180589207352	8
0	14433	2530.267937327107	7
0	14437	2531.05572939319	8
0	14439	2531.268282515931	9
0	14441	2531.737247733679	10
0	14444	2532.65729740326	9
0	14449	2534.42122613219	8
0	14460	2537.800299392322	9
0	14461	2537.891399539145	8
0	14469	2539.940443471386	9
0	14474	2540.706758715331	8
0	14478	2540.797376061464	9
0	14480	2540.860658073887	10
0	14483	2541.127640582512	9
0	14490	2542.016927136902	8
0	14494	2542.304999823342	9
0	14498	2543.274212928606	10
0	14501	2543.973687877789	9
0	14505	2545.619836348229	10
0	14508	2546.294263442331	9
0	14519	2547.195060323093	8
0	14531	2548.54867639493	9
0	14532	2549.199592825856	8
0	14539	2550.916240352995	7
0	14544	2551.48436108246	6
0	14548	2551.705920704888	7
0	14552	2552.888736281687	8
0	14553	2553.562634082956	7
0	14557	2554.697837836909	8
0	14559	2555.542675092363	9
0	14564	2558.260534261154	8
0	14569	2559.381112652681	7
0	14578	2562.555996593831	8
0	14580	2563.35588671267	9
0	14582	2563.47658675137	10
0	14583	2564.254401984265	9
0	14588	2564.468535678476	8
0	14592	2564.639803796411	9
0	14594	2564.68879621947	10
0	14597	2567.980482588388	9
0	14604	2568.397182195551	10
0	14605	2569.15240587348	9
0	14611	2569.937092595056	8
0	14618	2571.047072339234	9
0	14620	2571.719462111539	10
0	14621	2574.045031111517	9
0	14626	2574.773484232877	8
0	14632	2577.253432631855	7
0	14638	2577.452162292337	6
0	14644	2577.549859184429	7
0	14646	2577.862898501991	8
0	14648	2577.964940230114	9
0	14649	2578.635773376931	8
0	14655	2580.520845629938	9
0	14660	2581.687731275588	8
0	14668	2582.003590794513	9
0	14669	2582.023774625392	8
0	14674	2582.624092627526	7
0	14680	2582.945813627315	8
0	14682	2583.076470765527	9
0	14685	2583.471390947055	10
0	14686	2584.282929476764	9
0	14692	2584.551992347843	8
0	14698	2585.116542442775	7
0	14708	2585.391147452783	8
0	14710	2585.430202529348	9
0	14711	2585.467552450183	8
0	14715	2586.136034348413	9
0	14717	2586.490446937902	10
0	14719	2591.316942444971	11
0	14721	2592.434371065299	12
0	14725	2592.732865219939	13
0	14727	2592.799848823331	12
0	14733	2593.379418678827	13
0	14735	2593.916353166629	14
0	14736	2595.336955018693	13
0	14741	2595.89875303448	12
0	14746	2596.590942157996	11
0	14750	2596.979636753574	12
0	14753	2598.398398035282	11
0	14758	2599.485636546848	10
0	14762	2600.31937692737	11
0	14764	2600.546285473424	12
0	14766	2600.822485167248	13
0	14769	2601.994873353242	12
0	14773	2602.613138399087	13
0	14776	2603.569835498719	12
0	14781	2603.717546432078	11
0	14786	2605.057663020766	10
0	14792	2606.526379308797	11
0	14797	2609.826564394861	10
0	14803	2613.496887861123	11
0	14805	2614.2922547173	10
0	14811	2614.703489709881	9
0	14816	2615.164215742221	8
0	14823	2616.011183913131	9
0	14824	2616.075302095964	8
0	14829	2617.159579622112	7
0	14836	2619.159282028176	8
0	14837	2619.799859266211	7
0	14844	2621.379697598039	6
0	14850	2621.684393132094	7
0	14851	2622.142083715041	6
0	14857	2622.806064247989	7
0	14858	2622.968371148971	6
0	14862	2623.519166177422	7
0	14864	2623.536445477408	8
0	14867	2624.685260769547	7
0	14871	2625.218055247588	8
0	14876	2626.900904164271	7
0	14880	2629.610057484804	8
0	14882	2632.387595893239	9
0	14889	2635.79094737576	8
0	14895	2637.252303992318	7
0	14900	2637.331927355728	6
0	14905	2639.340358150337	5
0	14910	2639.790408231489	4
0	14914	2641.302009345511	5
0	14919	2641.922733727476	6
0	14923	2642.540198032821	7
0	14927	2645.926463931799	6
0	14932	2646.644524317939	5
0	14940	2646.917611545919	6
0	14941	2647.078325318359	5
0	14946	2647.685435976689	4
0	14953	2648.033719190098	5
0	14954	2648.155192070644	4
0	14959	2648.498327534084	3
0	14963	2651.513265465418	4
0	14966	2651.843429906817	3
0	14972	2652.04409460045	4
0	14973	2652.086746594368	3
0	14977	2652.832776692179	4
0	14979	2653.205775074369	5
0	14984	2655.278043209152	4
0	14988	2656.052549083374	5
0	14990	2656.185927286061	6
0	14992	2656.683994494009	7
0	14994	2656.897210802195	8
0	14997	2658.296314804013	7
0	15001	2658.297355625688	8
0	15005	2659.906655716733	9
0	15006	2660.221560841578	8
0	15010	2662.455625779727	9
0	15012	2662.795462224176	10
0	15016	2663.925501200347	11
0	15017	2664.007298167449	10
0	15023	2665.731752276938	11
0	15025	2666.500818386691	12
0	15030	2667.585570494916	11
0	15035	2667.959396886326	10
0	15040	2668.124973307645	9
0	15044	2669.009642765232	10
0	15047	2669.195162035665	9
0	15052	2670.647353073323	8
0	15058	2671.226891289837	9
0	15060	2671.962752504224	10
0	15064	2672.684469360545	11
0	15066	2672.885157059157	12
0	15067	2673.703517445619	11
0	15075	2676.208052251386	10
0	15080	2676.425275818248	9
0	15085	2677.665761753668	8
0	15090	2678.969952372314	7
0	15098	2680.692593799087	8
0	15100	2681.523696675562	9
0	15101	2681.858002712514	8
0	15106	2681.893002830061	7
0	15111	2685.181711067226	6
0	15115	2685.516281566018	7
0	15118	2686.728901469765	6
0	15123	2688.044889993815	5
0	15129	2690.187395120571	6
0	15130	2690.21311663893	5
0	15135	2691.193501517615	4
0	15140	2692.252373224235	3
0	15144	2692.988334242479	4
0	15147	2694.08641733797	3
0	15151	2694.379794130626	4
0	15154	2694.660543185335	3
0	15158	2695.584977679879	4
0	15161	2696.017341337395	3
0	15165	2696.037057387936	4
0	15170	2697.873269932356	3
0	15177	2699.071143036137	4
0	15178	2699.631836411621	3
0	15185	2701.418071677118	2
0	15191	2701.733666197989	1
0	15196	2701.994487763081	0
0	15202	2702.269527523247	1
0	15205	2704.311783252341	0
0	15211	2704.624956633689	1
0	15214	2704.90437518356	0
0	15238	2708.120223186988	1
0	15239	2708.430005756461	0
0	15258	2711.089200235194	1
0	15259	2711.312039553649	0
0	15265	2711.458497238331	1
0	15266	2711.464926259643	0
0	15276	2712.108444583174	1
0	15280	2712.5046520739	2
0	15285	2713.292903716629	1
0	15290	2713.365178672996	0
0	15304	2713.707364103782	1
0	15305	2713.815056177288	0
0	15316	2714.385202446258	1
0	15317	2714.817357756757	0
0	15339	2717.018697821009	1
0	15341	2718.174158159919	2
0	15345	2718.205057448763	3
0	15347	2718.533325607709	4
0	15349	2718.655961206889	5
0	15351	2719.67211801037	4
0	15357	2722.712326635061	5
0	15363	2725.731081831546	6
0	15365	2726.29455675461	5
0	15373	2726.81129149575	4
0	15379	2727.125016315139	5
0	15380	2727.362793624513	4
0	15388	2729.522641095229	3
0	15396	2731.045367228193	2
0	15402	2731.241978677204	1
0	15407	2731.315556331929	0
0	15416	2733.634784565039	1
0	15417	2733.839727436982	0
0	15423	2734.370945805265	1
0	15425	2734.433158666211	2
0	15426	2734.681193918702	1
0	15433	2734.894516966069	0
0	15446	2736.079213618376	1
0	15447	2736.132788349521	0
0	15453	2738.195027978723	1
0	15455	2739.222909762083	2
0	15457	2739.475968553284	3
0	15459	2739.496083921146	4
0	15462	2740.152551909023	3
0	15468	2742.902989671736	2
0	15475	2743.51149953599	1
0	15481	2743.599653619701	2
0	15482	2743.890251333686	1
0	15487	2744.055792177781	0
0	15501	2747.867670152222	1
0	15502	2748.038696730447	0
0	15523	2750.099338771858	1
0	15526	2750.270696392662	0
0	15537	2750.792527393062	1
0	15540	2751.433297880939	0
0	15576	2758.936218486026	1
0	15582	2760.714769435107	2
0	15583	2761.474989083396	1
0	15589	2761.927448753806	2
0	15592	2762.284297072642	1
0	15598	2763.058059011384	2
0	15599	2763.410253851929	1
0	15605	2763.597878714335	2
0	15610	2763.99566363093	3
0	15613	2765.238822570567	4
0	15614	2766.335055136308	3
0	15622	2766.834899874718	4
0	15623	2766.918657115635	3
0	15628	2767.303774928155	2
0	15633	2767.432468189322	1
0	15641	2769.441794796212	2
0	15644	2771.637851636705	3
0	15645	2772.234995303075	2
0	15651	2773.04043111233	1
0	15656	2773.215800249929	0
0	15662	2775.410997730507	1
0	15667	2775.708596816187	2
0	15670	2776.708491794316	1
0	15676	2777.746362505499	2
0	15679	2779.82441541791	1
0	15683	2779.914342705179	2
0	15685	2780.467299807854	3
0	15689	2780.646052835894	4
0	15690	2780.850811530695	3
0	15694	2782.022090436309	4
0	15696	2782.551866591703	5
0	15698	2782.906127433002	6
0	15703	2785.906164629496	5
0	15712	2788.457760733144	4
0	15716	2789.054643564795	5
0	15718	2789.486624271034	6
0	15720	2790.0758642008	7
0	15724	2792.567486219599	6
0	15730	2792.600168569907	7
0	15732	2793.340382835814	8
0	15733	2793.347693488614	7
0	15739	2796.003284111733	6
0	15745	2797.392535441438	7
0	15746	2797.771630417124	6
0	15750	2798.055002309802	7
0	15752	2798.242792154373	8
0	15755	2799.812824968352	7
0	15759	2802.046817960896	8
0	15761	2802.178887817417	9
0	15766	2803.1958581598	8
0	15772	2803.664108041297	9
0	15776	2804.954772362259	8
0	15781	2805.41829637942	7
0	15790	2807.473790136024	6
0	15796	2807.551463487454	7
0	15797	2807.788593977844	6
0	15807	2809.982001230163	7
0	15809	2810.151953936431	8
0	15813	2811.777586630812	9
0	15814	2812.740765634687	8
0	15820	2812.752155761434	9
0	15823	2813.055182084392	10
0	15825	2813.139423630258	9
0	15830	2813.17455754291	8
0	15836	2813.627011234055	7
0	15841	2813.633372382224	6
0	15846	2813.644225077362	5
0	15852	2817.374994045272	6
0	15857	2818.267562051641	5
0	15863	2820.113167171737	4
0	15871	2820.750319689782	5
0	15873	2820.938184973772	6
0	15876	2821.485078420214	5
0	15884	2822.981125298456	4
0	15889	2823.111077482655	3
0	15894	2823.296176406291	2
0	15898	2824.888114096364	3
0	15903	2825.096781143428	2
0	15912	2827.163733487996	1
0	15917	2828.627778715477	0
0	15923	2828.745168578068	1
0	15925	2829.379814204858	2
0	15926	2830.138913511199	1
0	15930	2831.25638893636	2
0	15933	2832.137252816727	1
0	15938	2832.261949306972	0
0	15944	2832.580514594016	1
0	15947	2832.715406764442	0
0	15959	2834.301840175577	1
0	15960	2834.562425732366	0
0	15973	2835.198492487345	1
0	15975	2835.289043239551	2
0	15978	2836.365280485382	3
0	15979	2836.921039410823	2
0	15988	2837.34422150018	3
0	15989	2837.543305164797	2
0	15995	2837.944294234215	3
0	16001	2840.153686274962	2
0	16006	2840.237617483223	1
0	16011	2840.346616282249	0
0	16037	2844.19845071807	1
0	16039	2844.674630519634	2
0	16040	2847.95557787785	1
0	16050	2848.851447066513	2
0	16051	2849.016899437416	1
0	16060	2849.556972708454	2
0	16061	2849.952580815091	1
0	16067	2851.402464915519	0
0	16098	2854.649102145347	1
0	16105	2856.432855012195	2
0	16106	2857.452300574008	1
0	16113	2858.608185997778	0
0	16139	2861.933657583949	1
0	16141	2862.356964897281	2
0	16145	2865.450527806103	3
0	16147	2867.676558561871	4
0	16150	2868.742026943851	3
0	16157	2869.450842206039	2
0	16166	2870.331887754836	1
0	16171	2870.506372530011	0
0	16215	2878.82651798678	1
0	16221	2879.552096071686	2
0	16223	2879.946845441295	3
0	16231	2880.970264725471	2
0	16238	2882.035676579799	3
0	16239	2882.384822923962	2
0	16244	2883.108977099395	1
0	16250	2883.165744533985	2
0	16254	2884.260269618641	3
0	16256	2885.34937191215	4
0	16258	2885.816127590641	5
0	16259	2886.479596605705	4
0	16265	2886.864093497941	5
0	16267	2887.351293830478	6
0	16268	2887.803188492636	5
0	16272	2887.862298496136	6
0	16276	2888.39234977464	7
0	16277	2888.573254144415	6
0	16281	2888.654553723499	7
0	16284	2888.805322883851	6
0	16288	2889.691801098446	7
0	16293	2891.672297896304	6
0	16297	2891.692316796476	7
0	16299	2892.072495744048	8
0	16304	2892.409822149218	7
0	16309	2895.978687409605	6
0	16315	2897.582699834584	7
0	16319	2897.686035717718	8
0	16322	2897.881896283048	7
0	16329	2900.339777445274	6
0	16333	2900.364882827355	7
0	16336	2901.10357285167	6
0	16340	2901.290594776153	7
0	16344	2901.714237215105	8
0	16348	2903.915020342854	7
0	16353	2904.372986679103	6
0	16362	2907.420296045338	7
0	16363	2907.789830545553	6
0	16369	2908.532293758999	7
0	16371	2908.601383095679	8
0	16372	2908.910326753316	7
0	16378	2910.564587882769	6
0	16384	2913.029563593998	7
0	16386	2913.647541489291	8
0	16387	2914.027356481357	7
0	16391	2914.850071636184	8
0	16400	2916.574901604853	9
0	16402	2916.635454163589	10
0	16403	2916.695261977168	9
0	16408	2917.203587280456	8
0	16414	2919.666931538328	9
0	16415	2919.681748184808	8
0	16419	2920.392408049966	9
0	16423	2920.772216209858	10
0	16426	2921.301771461416	9
0	16432	2921.314951973621	10
0	16433	2921.890427505477	9
0	16442	2922.874349880916	8
0	16448	2923.010443095139	7
0	16456	2923.150923664868	8
0	16458	2924.132618650878	9
0	16463	2925.731274451232	10
0	16465	2925.85331557423	11
0	16468	2927.815214658033	10
0	16474	2928.165844273236	11
0	16476	2928.193579077273	12
0	16477	2928.555335380359	11
0	16482	2929.105547739636	10
0	16486	2930.193768701252	11
0	16490	2930.780195206392	12
0	16498	2932.355784355305	11
0	16504	2932.684637361584	12
0	16505	2932.729099858378	11
0	16514	2933.388153522334	10
0	16520	2934.125578785311	11
0	16521	2934.226847912589	10
0	16525	2934.575148652026	11
0	16530	2937.038602269529	10
0	16536	2937.235023171585	11
0	16537	2937.680667887917	10
0	16542	2938.455673327965	9
0	16547	2941.077587999432	8
0	16555	2941.733070451918	9
0	16558	2942.983195357645	10
0	16559	2943.248206631207	9
0	16564	2943.823316815307	8
0	16569	2944.310322382431	7
0	16574	2944.666442286385	6
0	16578	2944.833885466	7
0	16581	2946.570214595527	6
0	16586	2947.182506647523	5
0	16591	2948.337296783211	4
0	16601	2951.481174006125	5
0	16602	2951.54246140215	4
0	16608	2953.821718221604	3
0	16614	2953.833333436424	4
0	16616	2954.14015350733	5
0	16618	2954.510202213966	6
0	16619	2954.653823082563	5
0	16627	2958.717164607457	6
0	16632	2959.219993368026	5
0	16637	2960.626780453538	4
0	16641	2960.923036183517	5
0	16645	2962.136243935585	6
0	16647	2962.644514257908	7
0	16649	2963.07467232476	8
0	16653	2963.33125790814	9
0	16654	2964.304323468431	8
0	16661	2966.799387007916	7
0	16667	2967.58945732162	6
0	16673	2967.878822541048	7
0	16674	2968.017863179821	6
0	16678	2968.722193208388	7
0	16680	2969.304303948266	8
0	16683	2970.518446590626	7
0	16687	2971.198495164048	8
0	16689	2972.024818927215	9
0	16691	2972.185431296508	10
0	16695	2973.454598963096	11
0	16696	2973.566647816401	10
0	16700	2974.097958389427	11
0	16703	2974.681869524937	10
0	16709	2974.823142269425	11
0	16711	2974.90769715187	12
0	16714	2975.735530816627	11
0	16719	2976.59766664871	10
0	16727	2979.409944882295	11
0	16735	2982.145356563924	10
0	16740	2982.717126626885	9
0	16746	2983.542788016022	10
0	16748	2984.163732422859	11
0	16752	2984.647453258404	12
0	16753	2985.00960634468	11
0	16758	2986.952197990999	10
0	16763	2988.77832492757	9
0	16767	2989.08317927222	10
0	16771	2990.327645071191	11
0	16774	2991.126827898813	10
0	16781	2992.685418400392	9
0	16789	2992.996389969182	10
0	16794	2995.008234360508	11
0	16795	2995.026684229605	10
0	16801	2996.686740471367	9
0	16807	2996.700915604793	10
0	16808	2999.073886582036	9
0	16813	3000.660941749755	8
0	16818	3000.979753710742	7
0	16824	3001.613828310487	8
0	16826	3001.834100311875	9
0	16829	3003.20626107904	8
0	16837	3003.639610000136	9
0	16838	3004.20228852828	8
0	16843	3004.829203829822	7
0	16847	3005.066971874348	8
0	16849	3005.40910311046	9
0	16851	3006.604551186553	10
0	16855	3007.436255638782	11
0	16856	3007.447525629153	10
0	16861	3010.217420736114	9
0	16868	3013.025623222607	10
0	16869	3013.30696358073	9
0	16875	3013.778935536198	10
0	16876	3013.884211634951	9
0	16881	3015.928163077969	8
0	16886	3018.448272677346	7
0	16890	3020.772888825742	8
0	16901	3028.690968540176	7
0	16907	3033.557279150829	8
0	16910	3034.797732672319	7
0	16915	3036.104763740151	6
0	16919	3038.482204705058	7
0	16921	3039.211486901399	8
0	16925	3040.255670168582	7
0	16930	3040.309330559178	6
0	16935	3040.841534965164	5
0	16941	3041.345378027443	6
0	16942	3041.380082396227	5
0	16948	3043.864670897781	6
0	16951	3046.107320296464	5
0	16959	3047.801017749833	6
0	16962	3047.854022238389	5
0	16967	3048.772234810564	4
0	16972	3049.620489718156	3
0	16976	3049.725266050413	4
0	16981	3051.415674637044	3
0	16986	3052.65214325248	2
0	16990	3053.001699000256	3
0	16997	3055.227942472519	4
0	16998	3055.455423730287	3
0	17003	3055.941520044316	2
0	17007	3056.693119803862	3
0	17009	3056.835115279123	4
0	17011	3057.600138813459	5
0	17013	3057.881155592531	6
0	17015	3058.192973688389	7
0	17020	3059.554240672534	6
0	17024	3059.631929927296	7
0	17030	3061.968643225902	8
0	17031	3063.009199927791	7
0	17036	3063.083491211166	6
0	17042	3063.542909511929	7
0	17044	3063.729603916728	6
0	17049	3063.802294465229	5
0	17053	3064.101470056091	6
0	17056	3068.014130553078	5
0	17061	3068.380491669687	4
0	17070	3070.176415141932	5
0	17072	3070.433314657765	6
0	17073	3070.706295745988	5
0	17078	3071.44628160981	4
0	17082	3072.026816603948	5
0	17087	3072.343415971235	4
0	17095	3075.329323741373	3
0	17103	3075.902602969081	4
0	17104	3075.992988700688	3
0	17110	3076.359874595998	4
0	17111	3076.431827981815	3
0	17116	3076.98412694004	2
0	17120	3077.18549158824	3
0	17124	3077.464795990767	4
0	17129	3078.13010565027	3
0	17136	3080.164667962214	2
0	17140	3080.880343141125	3
0	17145	3086.570927618212	2
0	17150	3089.19662200671	1
0	17154	3090.429265169805	2
0	17156	3090.438195036073	3
0	17158	3091.167178117331	4
0	17165	3092.978017081457	3
0	17171	3093.312114136893	4
0	17175	3094.190715494959	5
0	17178	3096.763326932494	4
0	17183	3097.122154336285	3
0	17190	3098.589563297052	2
0	17195	3099.128912085627	1
0	17201	3102.624985994105	2
0	17203	3103.082577599978	3
0	17204	3103.134494746322	2
0	17209	3107.636918643852	1
0	17217	3108.270086784292	2
0	17218	3109.216994445838	1
0	17223	3110.778270913497	0
0	17227	3111.187209634541	1
0	17230	3111.302155142895	0
0	17234	3113.230697869252	1
0	17237	3113.495410351806	0
0	17263	3118.89954495619	1
0	17265	3119.086897922621	2
0	17267	3119.733009219866	1
0	17272	3120.608695524942	0
0	17279	3120.82997549707	1
0	17281	3121.201609622841	0
0	17301	3123.06261722395	1
0	17303	3123.820833791514	2
0	17307	3125.408083229164	3
0	17312	3129.284685707981	2
0	17317	3129.448274393534	1
0	17323	3129.774350132864	2
0	17324	3130.114880868451	1
0	17332	3131.62371334201	2
0	17334	3131.86852803912	3
0	17338	3131.990877252983	2
0	17345	3132.328739706885	1
0	17350	3132.333282108952	0
0	17360	3133.100741416366	1
0	17364	3133.985787861004	2
0	17365	3134.105396975273	1
0	17372	3135.60418524832	2
0	17373	3136.355904674924	1
0	17380	3137.068475573646	2
0	17382	3137.287153054044	3
0	17384	3138.136472376668	2
0	17390	3139.587894935891	1
0	17394	3139.868699743706	2
0	17396	3140.508642930268	3
0	17398	3141.150858278436	4
0	17401	3141.550708958456	3
0	17411	3143.506870487508	4
0	17412	3143.64555467698	3
0	17417	3144.955762146192	2
0	17424	3147.410075861824	1
0	17428	3149.23997099837	2
0	17430	3149.531159406396	3
0	17434	3150.160264363995	4
0	17435	3150.241761891212	3
0	17441	3150.433370812863	4
0	17443	3150.557201191626	5
0	17448	3151.592578744351	6
0	17449	3151.895945461494	5
0	17454	3151.959217279021	4
0	17459	3153.954685057554	3
0	17464	3155.147380868768	2
0	17470	3155.770256622809	1
0	17479	3156.755638507888	0
0	17485	3158.524128857086	1
0	17486	3158.735351300294	0
0	17490	3160.834991042331	1
0	17494	3160.964605765205	0
0	17505	3162.372462163984	1
0	17509	3164.464162861628	0
0	17569	3168.298791244116	1
0	17570	3168.773518214608	0
0	17585	3170.098198879823	1
0	17594	3171.58494213111	0
0	17606	3173.169263761364	1
0	17608	3174.444336822206	0
0	17615	3175.169520126953	1
0	17617	3175.668439940065	0
0	17636	3176.869629355551	1
0	17639	3178.859300060022	0
0	17648	3179.006833036895	1
0	17652	3179.984046742262	0
0	17672	3183.600488219893	1
0	17673	3184.348645188021	0
0	17689	3187.219655440986	1
0	17692	3188.073645084306	2
0	17694	3190.411442925739	3
0	17695	3190.637860201718	2
0	17700	3190.67543785686	1
0	17706	3190.749672031997	2
0	17708	3190.956984249976	3
0	17709	3192.076913056308	2
0	17714	3192.121556036791	1
0	17719	3192.2663882114	0
0	17723	3192.69136950161	1
0	17728	3193.720685099049	2
0	17732	3194.267310095325	1
0	17736	3194.331050272367	2
0	17740	3198.609828850337	3
0	17742	3199.088770491419	4
0	17746	3199.767678678955	5
0	17748	3200.217148008854	6
0	17753	3200.804375185067	5
0	17760	3200.992249112812	6
0	17762	3201.700601119209	5
0	17767	3202.378044432228	4
[...]
4	157998	27614.610355661374	0.548725634881
4	158002	27615.211217642607	0.660783864186
4	158019	27619.982972541169	4.172942216211
4	158054	27624.352761301564	2.735993555506
4	158082	27628.715780379513	1.438415715408
4	158108	27636.504231396977	2.48262486597
4	158141	27641.477216246957	4.634704053929
4	158160	27644.549786743682	5.00837939738
4	158165	27644.778215006842	4.47848652699
4	158178	27647.385470766844	5.257390926065
4	158232	27654.00280994817	9.065892516876
4	158243	27657.861441241894	9.325430603007
4	158256	27660.986582869732	11.773075029217
4	158293	27666.807012377945	0.256792440887
4	158320	27668.959192640938	0.001266173642
4	158358	27677.159767368538	6.157703865586
4	158372	27679.157106301193	7.494207474066
4	158396	27681.662994582055	6.839360375879
4	158401	27681.85018904069	5.026693552255
4	158406	27682.94997336757	5.689169860975
4	158413	27684.730471733767	7.443149686624
4	158429	27687.625044768181	2.318752379739
4	158450	27692.206558370226	0.334719191383
4	158457	27693.244210169655	0.899845462437
4	158471	27694.821533148967	0.150210069577
4	158485	27698.167365827807	0.36362181852
4	158493	27700.509575922724	1.912753763692
4	158517	27706.060613117752	4.039592632416
4	158540	27707.588418042759	4.046419860995
4	158549	27709.270652474255	4.470810772847
4	158556	27709.507322262941	3.109900655683
4	158585	27712.612195310665	3.917134303901
4	158592	27713.171911169852	2.167345814942
4	158610	27714.201067594798	0.03676575184
4	158832	27752.284997385721	32.040617332586
4	158840	27753.545519993039	24.229468189815
4	158846	27754.12080655102	21.834503793096
4	158851	27754.147703688034	14.576411636539
4	158856	27754.245620139358	13.526040121997
4	158861	27754.316199024337	13.37651270067
4	158866	27754.531369719804	10.589056034094
4	158882	27759.846803916599	14.909338467504
4	158954	27775.622825956005	30.628154634585
4	158959	27776.162552379845	25.406150942326
4	158966	27777.026025601655	16.52912881048
4	158972	27777.498568080326	13.091384953827
4	158978	27778.972952058956	13.809158085171
4	158983	27779.116101602335	10.429865559851
4	158990	27779.548542837042	9.984228745622
4	159000	27782.274822160098	11.684185577915
4	159017	27788.257954885754	17.172037109549
4	159071	27792.871514002157	18.522310301752
4	159076	27793.079585469012	17.571886579386
4	159089	27797.261995155619	20.953755763372
4	159100	27797.95878426201	5.379172217084
4	159109	27801.407874529779	8.289712604205
4	159127	27804.076096459579	7.90694856521
4	159141	27806.853534351019	2.42380224373
4	159152	27809.940826158382	2.971055740222
4	159167	27810.790138864053	0.671089056349
4	159199	27817.045897912285	0.235372713328
4	159237	27823.895309992263	0.155481682215
4	159254	27826.370959905003	0.061930634218
4	159270	27829.432796054588	1.855411719425
4	159298	27833.234544555638	1.521518225351
4	159305	27834.272105971404	2.403445449478
4	159309	27834.583517023312	2.180503612537
4	159330	27837.362475353467	0.755694193522
4	159425	27857.781856480326	12.068265386901
4	159430	27857.976006359083	7.621109647282
4	159435	27859.137422000706	2.690388407519
4	159460	27868.515530138995	1.749485203569
4	159482	27870.521550727855	1.611485663905
4	159510	27876.279364551164	0.343691083705
4	159527	27879.071854955453	0.075141357155
4	159614	27898.361257572714	7.476093258378
4	159624	27899.753617602238	4.916868172749
4	159716	27911.435700398739	10.154681122829
4	159726	27912.779290361145	1.737370940212
4	159738	27915.920439117359	1.697866045439
4	159762	27923.889504209558	5.502908346197
4	159787	27927.760370703956	5.299167701816
4	159791	27928.021733828275	1.285341364205
4	159818	27931.726730294331	0.19347068775
4	159855	27944.95822244458	3.243361708215
4	160374	28043.923941604324	101.1772153177
4	160409	28048.903977120675	97.586114887361
4	160430	28053.022083306972	97.916733019322
4	160612	28095.178210514633	139.07793332093
4	160703	28118.70997513427	158.03204769806
4	160708	28119.193650005398	148.81443496958
4	160713	28119.290986724326	147.46795825839
4	160727	28122.859745114296	149.26717859257
4	160755	28126.177195252952	147.90015077855
4	160786	28130.996588731217	146.2398402781
4	160808	28133.171255161494	148.39417428842
4	160816	28134.231709250089	147.46804734021
4	160826	28134.875003196082	146.90291414759
4	160831	28136.667117596555	143.62006193708
4	160836	28137.362169396022	137.55438129827
4	160845	28140.804824331223	138.32947458977
4	160894	28149.779583778661	146.77135006971
4	160905	28150.913084109237	147.23450556524
4	160915	28152.95896412213	147.05119840549
4	160931	28154.498273354206	138.85210200856
4	160951	28157.024654347938	140.97176398823
4	160966	28157.773408551632	136.70235400686
4	160977	28159.147088832576	137.50616954597
4	160998	28160.575294541981	136.66556504297
4	161003	28160.632526019787	133.02986957744
4	161015	28163.613478483007	123.72183245175
4	161034	28164.716760344164	124.34296376201
4	161042	28165.09670147362	105.6289724547
4	161048	28165.553052129718	104.14474270348
4	161055	28166.886152397642	84.194624952718
4	161062	28168.872194186481	84.855526045253
4	161118	28174.249406479228	68.697886170592
4	161138	28181.164851883394	67.374474995654
4	161145	28183.704879519039	69.84082667477
4	161221	28194.920001260143	78.192667916229
4	161226	28195.852756517352	77.209256044049
4	161234	28197.032902677483	73.778610552323
4	161240	28197.769458093998	72.685632288109
4	161250	28198.745857977411	70.12793203183
4	161271	28202.407104298643	73.09055329118
4	161281	28202.646525006128	73.297615950563
4	161289	28203.515435662654	73.466984869809
4	161303	28206.299225148625	74.643541837389
4	161321	28213.168512625542	71.698238196134
4	161689	28291.80042937241	138.4922227072
4	161694	28291.827754890219	136.78305491778
4	161703	28293.330426789606	138.03065433029
4	162318	28440.278464185806	284.31097182833
4	162337	28443.257670819671	283.40152569094
4	162373	28446.938434003543	286.05598092878
4	162378	28447.045698078203	282.84442263159
4	162383	28447.461396419726	282.55218697181
4	162393	28449.19288650814	282.77813497529
4	162416	28452.15595056145	281.74328083764
4	162421	28452.167907892843	281.12873678595
4	162426	28452.634663716757	280.44690923517
4	162431	28453.935627525137	280.68562993987
4	162442	28458.113612897148	273.83344278879
4	162581	28482.378468135974	287.79681045664
4	162586	28482.839708886619	286.40571951812
4	162592	28483.111529087905	281.08222567236
4	162599	28483.58453411678	279.80949711658
4	162609	28485.872504929267	276.84618496305
4	162632	28489.473252543441	262.22170432848
4	163161	28604.310269035918	375.507690061
4	163179	28606.314458736896	376.71870188897
4	163188	28609.063306958322	373.09303865261
4	163198	28611.028090569345	367.25719968943
4	163204	28611.502646150596	365.28951703332
4	163210	28612.686608738484	363.23347227964
4	163218	28613.745276092384	350.45624098127
4	163235	28615.583770081909	350.1352886156
4	163251	28617.311341057532	350.1357024489
4	163256	28617.598991605212	349.19506672159
4	163261	28617.862003227101	344.51358069157
4	163275	28621.645987956444	343.40222960338
4	163319	28629.602540790729	350.43666289771
4	163336	28634.242684795735	353.17478092278
4	163387	28641.515740661641	356.13040602108
4	163396	28644.291376605763	354.84900717746
4	163403	28647.183296705819	350.27774651959
4	163441	28654.35720567598	356.10152563751
4	163446	28654.764540618006	351.67075221805
4	163453	28654.879040501224	348.26398775724
4	163459	28657.462069411867	350.13478057329
4	163472	28665.31700955172	353.33864922263
4	163554	28680.08417581001	367.47582295287
4	163563	28681.995932597342	367.02679425857
4	163568	28682.024163817184	362.30394170112
4	163578	28683.282620379222	356.8075317608
4	163695	28709.133893046811	378.1654408251
4	163765	28717.320641241655	383.24019796
4	163778	28718.49427776523	383.86655749599
4	163794	28720.638257659728	382.87444768069
4	163810	28722.293895474576	383.29136876616
4	163825	28725.349071266639	377.26774660001
4	163844	28725.930931255092	371.68828043542
4	163914	28736.596473043285	381.80205718316
4	163982	28749.240046661443	385.97879712652
4	163996	28751.423853695881	374.43987273668
4	164002	28751.859158582598	373.13057900939
4	164019	28754.459514468696	374.71702048999
4	164053	28756.869525917	354.95036441157
4	164063	28759.663712676273	353.09545331495
4	164074	28760.709246248657	348.45478054855
4	164079	28761.118000841729	347.17717332742
4	164085	28761.925316977364	343.43594080639
4	164091	28762.381776050335	342.6995417162
4	164098	28763.54613693233	339.43090991236
4	164105	28765.899130724728	341.74477550545
4	164122	28771.710495886718	347.32686443358
4	164165	28776.086304671262	350.40169288703
4	164170	28776.357793332844	347.28281153255
4	164175	28776.824446490632	339.76391555558
4	164181	28777.088722642376	340.01028724688
4	164187	28778.566331360772	341.05764967058
4	164198	28781.883819707817	340.1440336528
4	164215	28786.595446508111	338.19221289556
4	164238	28789.445629035011	338.9860443324
4	164249	28792.225124120715	341.33154456074
4	164270	28799.069887947099	344.34068081018
4	164277	28799.771274255896	343.21933353054
4	164295	28802.28276746117	334.29170640714
4	164303	28803.66271781839	329.60630027683
4	164315	28804.987434280572	318.00320640686
4	164321	28807.346701513667	318.72055169163
4	164329	28809.155201012657	319.8086955834
4	164389	28816.940968522147	323.59760304397
4	164401	28817.844418734024	320.77501786181
4	164406	28818.319796037485	320.42307782132
4	164411	28818.74750904178	314.61755734883
4	164422	28820.432364010555	313.92277749315
4	164444	28825.693523750458	315.02695735412
4	164449	28825.964944481323	313.68418862744
4	164454	28825.968732539783	305.09096897928
4	164459	28826.137084162159	304.08348949454
4	164468	28827.236118588204	304.88295317241
4	164491	28833.185991119649	305.46309486609
4	164528	28835.528352719224	295.54378638141
4	164535	28836.211006634711	295.68761958563
4	164545	28836.633399382314	291.44652074969
4	164553	28840.363754923551	293.96360524223
4	164570	28841.907904041236	295.27579351237
4	164575	28842.143096474109	277.88269894982
4	164581	28842.604716688307	276.0844608087
4	164589	28843.40721831414	274.53779912167
4	164610	28847.039038350685	276.41491595933
4	164616	28848.884650215825	277.48152449451
4	164623	28850.103562560682	277.29868284244
4	164681	28860.839027097095	287.62109028012
4	164725	28866.494633458388	293.26226752995
4	164735	28868.484363721838	290.65771467108
4	164740	28868.89178554841	290.61697331558
4	164746	28870.108812864035	279.79874895878
4	164751	28872.365388720453	279.95631094557
4	164760	28874.618928180675	269.4705612775
4	164770	28876.546821881097	255.45817188512
4	164777	28878.418114350481	255.80714409517
4	164791	28878.976962698822	249.68593286477
4	164879	28891.813236583557	261.66727781879
4	164891	28892.988575749412	250.3785284422
4	164908	28895.129331640038	251.40065541737
4	165239	28962.271006679636	311.82005096221
4	165248	28964.622615137592	313.10400773776
4	165261	28965.608011924972	313.76052480843
4	165267	28966.08304151399	311.26022551207
4	165272	28966.125139448338	305.10381512296
4	165286	28967.917641172542	301.86815350338
4	165487	29010.347289643471	332.3815777817
4	165522	29015.301462764402	337.14815357592
4	165539	29016.464571370567	337.32526852221
4	165556	29018.00651029217	337.32141744605
4	165563	29019.345280216749	337.40451732978
4	165573	29020.05282611447	337.55428620518
4	165583	29023.015234166591	337.42412179012
4	165600	29025.581600933113	334.63922417965
4	165614	29029.759550761462	338.36434086119
4	165644	29032.271466068674	330.77668251809
4	165657	29033.846535734176	323.77440364543
4	165693	29039.078581617814	328.51246489197
4	165698	29039.613891977649	327.39468158853
4	165711	29042.13087864979	328.51472819929
4	165753	29046.659249635345	330.62746263871
4	165761	29047.143556960413	324.50966734306
4	165773	29048.883303649419	323.69949428226
4	165783	29051.351016090124	317.49557807277
4	165976	29095.144628796043	361.0240213844
4	166006	29099.585216532789	364.80398474056
4	166019	29100.980559022993	363.98425476552
4	166050	29107.340144626296	366.67003823585
4	166068	29110.162533862151	364.2502715226
4	166114	29114.178168542559	368.07839860376
4	166130	29116.093032428326	365.79652210693
4	166139	29117.647556416193	365.25734894714
4	166314	29154.701674729819	400.59383435918
4	166320	29155.604073077159	400.57179288202
4	166326	29155.928943614483	399.4096702321
4	166331	29156.268919904344	393.76628982545
4	166339	29158.66710274291	392.97685807708
4	166344	29158.733690061471	391.92939472721
4	166357	29165.182584579731	398.34142470862
4	166548	29199.234782690481	426.6037443025
4	166555	29200.012276518376	427.36019212379
4	166565	29200.488909891281	420.50962043051
4	166570	29201.153558120703	420.62685932962
4	166577	29202.063722636826	420.08155133744
4	166600	29207.537111360833	421.35882271382
4	166626	29209.094663170675	422.18166232312
4	166631	29209.451217321123	420.39708662832
4	166643	29210.48988539751	418.82504999918
4	166660	29211.786331823138	418.54452060369
4	166681	29218.302888973532	413.57680769745
4	166845	29245.481283649823	431.99645344043
4	166896	29252.522986904276	438.82343258949
4	166912	29255.170747878819	431.29272573477
4	167018	29279.328120215353	452.13262418249
4	167034	29281.637159012569	453.23138472479
4	167039	29281.958870338039	453.40095062649
4	167045	29282.67247873985	437.92549266072
4	167052	29283.613630409439	432.49395777604
4	167068	29286.573797136802	421.56247163618
4	167079	29288.992582948886	422.94665330068
4	167086	29289.63834064084	422.96631856378
4	167101	29290.996586942125	416.87273859223
4	167113	29294.726081805016	411.38464784306
4	167130	29296.855388575882	412.30625076368
4	167149	29298.203074970918	412.98471679572
4	167156	29299.170852397342	413.08965986544
4	167191	29303.78154828817	410.52325860464
4	167204	29306.762084287498	411.9277072932
4	167211	29309.289795238297	410.51043157139
4	167220	29310.040829071951	410.20796416686
4	167231	29310.420079481089	408.74096327994
4	167237	29310.714206596974	408.45627570059
4	167246	29315.143750671927	412.16973222809
4	167291	29325.327364295482	414.72210029279
4	167325	29327.752582792129	414.10654243587
4	167337	29330.950868799818	414.99628471468
4	167500	29357.759951515458	440.72923124948
4	167506	29358.117082485742	441.06006353507
4	167521	29360.47723549584	442.39650680566
4	167538	29361.48851028099	443.19730168097
4	167543	29363.684232469859	443.36878134993
4	167548	29363.994644375161	443.31730084996
4	167557	29367.034245071589	445.09078031151
4	167581	29371.424343538149	443.36134771774
4	167594	29373.999931650089	443.6121746877
4	167599	29374.258570589455	440.14739605375
4	167608	29376.300474107429	441.85829268408
4	167613	29376.565510331434	436.03514397311
4	167618	29376.764493959501	428.15817073449
4	167629	29380.640052446439	424.01700759012
4	167661	29387.434788268378	430.1156801313
4	167681	29388.437962604143	428.17353668597
4	167694	29388.874340200685	423.47220665327
4	167705	29389.976633196268	423.79000431733
4	167714	29394.813289891547	427.32325696251
4	167731	29396.985350720307	428.6352963431
4	167736	29397.189323407677	425.61306774727
4	167741	29397.387611943667	423.63398613766
4	167753	29402.03048369572	427.61634364334
4	167771	29403.454690763793	427.61852129577
4	167776	29403.525690508871	424.51277600042
4	167817	29418.531903601033	429.31435937506
4	168079	29465.179154441889	475.22064853381
4	168084	29465.298662278358	474.74971717804
4	168092	29466.442670292726	471.87319087082
4	168107	29467.946797070489	468.52536737194
4	168120	29468.637981264244	461.15936670398
4	168128	29469.35816604711	458.69070981357
4	168143	29474.431884988331	461.75473716087
4	168157	29475.192623300479	461.09235955919
4	168170	29476.801752789188	460.94543029616
4	168187	29481.026451596948	464.2446220625
4	168194	29481.639308758479	456.01759901386
4	168203	29483.256050253742	453.18470618095
4	168214	29484.645782502787	452.7957423495
4	168234	29487.784834999519	452.04543205385
4	168239	29488.228638459603	447.40754122697
4	168252	29489.875889065649	440.49301085916
4	168273	29491.215075304693	427.14404622911
4	168308	29496.13684936988	430.22537917197
4	168316	29496.920099485722	428.17107236094
4	168372	29505.738682745287	431.86277867126
4	168378	29505.852904563623	426.88774725628
4	168384	29507.442083217359	411.50453470343
4	168393	29508.669537508718	412.13130926273
4	168398	29508.870822807881	408.7656330508
4	168407	29509.259009343639	404.55548258745
4	168430	29512.839878497244	405.82603998131
4	168442	29514.051132853387	406.98317580654
4	168449	29514.753168818304	406.04709966911
4	168471	29516.930562590143	391.60468337786
4	168483	29518.781338564404	388.68319538618
4	168491	29521.545797306477	389.53238203668
4	168514	29527.727749715475	395.1768861512
4	169145	29654.064942159608	519.23429744397
4	169150	29654.186142303462	513.34984172562
4	169155	29654.335029204788	509.62027241564
4	169160	29654.553714868762	506.85627457879
4	169167	29656.921363549492	508.95657602559
4	169181	29660.156434615449	510.44871787513
4	169195	29663.182863379377	510.97949717447
4	169220	29669.435668849498	515.6038922964
4	169254	29679.692258998932	521.46921906671
4	169267	29683.928393642278	521.79666056615
4	169308	29688.611766862572	521.46206162364
4	169313	29688.863534173953	520.59644249648
4	169334	29691.2432763558	522.30690765226
4	169394	29698.19079270117	517.90994978065
4	169400	29699.295933363221	509.74811713974
4	169411	29700.579483194587	510.17108071648
4	169474	29708.889209036216	517.46389121
4	169479	29709.085025559133	511.28698058653
4	169484	29709.667480426104	508.31736531385
4	169494	29710.838642110409	506.38725076874
4	169521	29715.394991310508	510.79480007175
4	169532	29715.932857159246	509.49320770399
4	169542	29718.549618599956	508.3405694066
4	169554	29719.460431265549	505.18095110599
4	169561	29720.559577790634	503.87241251036
4	169570	29721.773708935978	499.97395219705
4	169583	29724.084458463326	502.00622531687
4	169591	29725.36924451065	498.40780401368
4	169597	29726.134750938415	496.38945968297
4	169602	29726.329266941971	492.2567826788
4	169625	29736.367356799819	497.82857068581
4	169674	29741.698530491501	502.21595212702
4	169681	29742.098225525965	501.4418044867
4	169693	29743.997418702803	501.64742991033
4	169705	29747.745741915899	504.62060623523
4	169713	29750.306991882472	503.05806955212
4	169721	29751.325936396598	492.13594132644
4	169742	29752.530231640932	488.32930618737
4	169747	29753.643943369758	487.90702832691
4	169753	29755.434755086027	489.11338561299
4	169760	29755.79264603926	475.17229366293
4	169801	29765.726808627824	481.45404430692
4	170136	29825.549436084261	535.18425104928
4	170372	29877.836511980711	585.28039368255
4	170385	29879.069510910435	586.51014661522
4	170392	29879.267387716699	582.21999902487
4	170402	29880.996278012075	566.05954826999
4	170407	29881.536187146555	555.59991849217
4	170416	29881.858091855379	553.71014508768
4	170478	29892.370060375929	555.59104657243
4	170532	29900.852310148908	563.66618366549
4	170541	29901.280959649327	562.26983150695
4	170546	29901.374250935038	559.90980884724
4	170551	29901.671233323392	560.08024784609
4	170562	29905.35911404557	563.68608221241
4	170642	29920.421472510107	578.63118975986
4	170647	29920.53090972005	573.38575250905
4	170656	29921.243701017484	572.47191094913
4	170670	29924.120645647602	573.5115016361
4	170679	29925.509311580835	573.9260016562
4	170692	29927.483499970644	575.58960081728
4	170743	29934.317029131488	577.71733700579
4	170771	29936.583344149424	578.04319308283
4	170781	29938.75465633902	578.29752059233
4	170786	29939.398065557524	572.51707848164
4	170791	29939.464956285922	569.84380926002
4	170797	29939.748494539611	563.71327866672
4	170814	29944.93189566977	567.50321790222
4	170857	29949.824386631998	566.67323076748
4	170923	29964.233237402053	581.00726351027
4	170931	29965.355376164294	581.07788534042
4	170948	29968.157687657013	580.60355510909
4	170963	29969.472556339093	580.80562687636
4	170983	29974.933879397464	586.24632099094
4	171085	29993.533926517841	600.8176966983
4	171107	29994.837867336567	599.36808578936
4	171123	29999.534856351037	603.99202420158

