version 2
run First-n4-5-20191016-17:03:27-11300
attr configname First-n4
attr datetime 20191016-17:03:27
attr experiment First-n4
attr inifile omnetpp.ini
attr iterationvars ""
attr iterationvarsf ""
attr measurement ""
attr network org.omnetpp.queueing.Pizza
attr processid 11300
attr repetition 5
attr replication ""
attr resultdir results
attr runnumber 5
attr seedset 5
param **.PS.maxInventoriedPS 4
param **.U1.interArrivalTime exponential(2s)
param **.U2.interArrivalTime exponential(4s)
param **.PS.serviceTimeForInventoryU1 exponential(0.8s)
param **.PS.serviceTimeForInventoryU2 exponential(1.0s)
param **.PS.serviceTimeDirectU1 exponential(1.2s)
param **.PS.serviceTimeDirectU2 exponential(1.4s)
param **.PS.probabilityProducing 0.5
param **.CS.serviceTimeU1 exponential(0.8s)
param **.CS.serviceTimeU2 exponential(1.0s)

vector 0 Pizza.EntryQueueU1 queueLength:vector ETV
attr interpolationmode sample-hold
attr title "queue length, vector"
vector 1 Pizza.CS queueLength:vector ETV
attr interpolationmode sample-hold
attr title "queue length, vector"
vector 2 Pizza.EntryQueueU2 queueLength:vector ETV
attr interpolationmode sample-hold
attr title "queue length, vector"
vector 3 Pizza.sink lifeTime:vector ETV
attr interpolationmode none
attr title "lifetime of arrived jobs, vector"
attr unit s
vector 4 Pizza.sink lifeTimeU2:vector ETV
attr interpolationmode none
attr title "lifetime of arrived jobs, vector"
attr unit s
vector 5 Pizza.sink lifeTimeU1:vector ETV
attr interpolationmode none
attr title "lifetime of arrived jobs, vector"
attr unit s
0	0	0	0
0	5	0.502039955384	1
0	7	0.965195882806	2
0	9	1.869482112156	3
0	12	2.812875588987	2
0	17	4.297919186127	1
0	25	6.886510062585	2
0	33	8.927397378856	1
0	38	9.028842098001	0
0	44	9.568695461828	1
0	45	9.82162745854	0
0	65	11.052006438691	1
0	68	11.414122002067	2
0	70	13.06217017659	3
0	71	13.18080375048	2
0	84	17.595758406917	1
0	89	18.175423454569	0
0	105	19.511290166425	1
0	108	20.620041905553	0
0	123	21.710870918303	1
0	126	23.155422482135	0
0	132	23.29219908953	1
0	135	23.551388180066	2
0	136	23.686186130524	1
0	142	23.732388223825	2
0	144	24.200631001233	1
0	150	24.311075433187	2
0	151	24.405565717617	1
0	156	24.784485466358	0
0	173	27.703903437486	1
0	174	27.863009145844	0
0	180	28.599756630676	1
0	182	29.083846816309	2
0	183	29.157773100584	1
0	188	29.530025458271	0
0	204	32.264517143692	1
0	207	33.204728733781	0
0	256	50.759631033956	1
0	257	50.867293869258	0
0	279	55.12076251143	1
0	280	55.178866060522	0
0	328	73.808442732074	1
0	329	75.620005400182	0
0	365	80.468930925789	1
0	367	80.938026060575	0
0	385	83.824048926391	1
0	386	84.882068217751	0
0	392	86.662942880903	1
0	393	86.85165496436	0
0	409	90.51322775187	1
0	411	90.893036605999	2
0	412	91.156151997684	1
0	419	94.295003572216	0
0	480	110.724703855222	1
0	482	111.217778430094	2
0	483	113.250600433962	1
0	490	113.691709664569	0
0	501	114.287449518787	1
0	507	115.480789005199	0
0	513	115.849616569878	1
0	515	116.390295750898	0
0	521	116.631164396407	1
0	523	117.740772928885	2
0	527	119.386895584914	3
0	529	120.97825764216	4
0	530	121.100114454431	3
0	536	122.24020662659	4
0	537	122.681499335321	3
0	542	122.807581252595	2
0	547	123.644104207368	1
0	553	124.835231166375	2
0	555	125.255144670193	1
0	563	125.939409048793	0
0	582	127.839827112441	1
0	583	127.851969400363	0
0	600	129.628994763567	1
0	602	130.269814823784	0
0	609	131.00638105593	1
0	610	131.066359061163	0
0	628	133.057837777022	1
0	629	133.73225476238	0
0	635	135.53932657333	1
0	640	136.535367573452	0
0	644	136.653328225028	1
0	647	138.67508100117	0
0	658	138.773848419848	1
0	659	139.015155217724	0
0	663	139.125253323887	1
0	666	141.248455203117	0
0	670	141.813645361382	1
0	674	143.492780549929	2
0	678	144.863715566053	3
0	679	145.618425889949	2
0	685	145.689718383788	3
0	686	146.704593717251	2
0	691	148.416164092918	1
0	698	151.621810566274	0
0	730	157.177878454656	1
0	732	157.519457603637	2
0	734	159.978218135918	3
0	738	161.207288985271	4
0	739	162.404020653203	3
0	745	163.208586711663	2
0	750	163.649760444753	1
0	755	163.926552466661	0
0	778	168.07457319517	1
0	779	168.150275111037	0
0	814	174.576771931957	1
0	817	175.016845225998	0
0	826	175.615139845765	1
0	829	175.949058198663	0
0	838	176.330040912074	1
0	847	178.345689279775	0
0	857	178.78800277427	1
0	859	179.924163423172	2
0	861	180.071603495965	3
0	864	183.645669460752	2
0	870	183.865997585136	1
0	876	184.209182232761	0
0	891	185.269595526159	1
0	893	185.347788172452	2
0	896	185.867082539297	1
0	901	186.020060584811	0
0	922	188.146248982723	1
0	924	189.414747375276	2
0	929	190.908464945348	3
0	931	191.093223478605	4
0	932	192.617966962351	3
0	941	193.6348728719	4
0	942	193.662320901848	3
0	948	193.753364027335	4
0	950	194.684958291535	3
0	959	196.021286951075	2
0	964	196.392011646001	1
0	968	198.299620617262	2
0	973	201.071960393879	1
0	978	201.247050402532	0
0	984	202.645091695822	1
0	985	202.717298920554	0
0	989	204.787161373244	1
0	992	205.763497354383	0
0	1032	212.201999285081	1
0	1034	213.26865352132	0
0	1068	222.047125205409	1
0	1069	223.47893681526	0
0	1079	225.125765969724	1
0	1081	225.832950238886	2
0	1085	227.607718247092	3
0	1086	228.028735832898	2
0	1091	228.494473799355	1
0	1097	229.053142216538	2
0	1098	229.816279309872	1
0	1103	229.986791840245	0
0	1129	233.00315618682	1
0	1131	233.463934086238	0
0	1144	237.798494072525	1
0	1147	238.027894684005	0
0	1153	239.911261156594	1
0	1154	241.114231273986	0
0	1183	246.371526193721	1
0	1184	247.493986409995	0
0	1199	249.804925009445	1
0	1202	250.631118083735	2
0	1203	250.635166673571	1
0	1208	250.817776329514	0
0	1223	253.0143500916	1
0	1225	253.377537203233	2
0	1226	253.476920025753	1
0	1231	253.703161831147	0
0	1235	254.275709278837	1
0	1238	254.548332236315	0
0	1297	262.831352029819	1
0	1300	263.341942503172	0
0	1311	267.289694407526	1
0	1313	268.33352593756	2
0	1316	268.658085491816	1
0	1320	270.472624084501	2
0	1322	270.892579548791	3
0	1324	271.343219459621	4
0	1327	273.140386492886	3
0	1340	275.007143111999	4
0	1341	275.612642295017	3
0	1348	276.957466796381	2
0	1356	277.338675972709	1
0	1362	277.796470808176	2
0	1364	278.801828040468	3
0	1365	279.151401178583	2
0	1370	280.970242764007	1
0	1374	281.560749026552	2
0	1379	283.793256079455	1
0	1384	284.415823816863	0
0	1388	284.583266369571	1
0	1391	285.142925817495	0
0	1395	285.317335021105	1
0	1398	286.957315420029	0
0	1412	288.858995903291	1
0	1413	288.964344294712	0
0	1417	289.773329726258	1
0	1420	292.540925253796	0
0	1446	295.829560549633	1
0	1447	296.059175891808	0
0	1459	297.470500904556	1
0	1460	297.481687145735	0
0	1479	299.872896666073	1
0	1482	300.223399195191	2
0	1483	302.068513670502	1
0	1489	302.629519536384	0
0	1532	306.821853109646	1
0	1534	307.729724487472	0
0	1574	318.882916771541	1
0	1576	319.469656765886	0
0	1591	320.928552329479	1
0	1593	321.099929754821	2
0	1594	322.22196786049	1
0	1599	322.417001893786	0
0	1633	328.729652659386	1
0	1634	328.796241804927	0
0	1647	330.012857259861	1
0	1649	330.515494707257	0
0	1671	333.032164863048	1
0	1672	333.070652237689	0
0	1726	343.762103337959	1
0	1734	345.105270510505	2
0	1736	345.738097789279	1
0	1742	345.812587005444	2
0	1744	346.139635365156	1
0	1752	348.005842579022	0
0	1789	351.74795480522	1
0	1790	352.827482311324	0
0	1828	359.423999096316	1
0	1830	359.747297520819	0
0	1836	359.875182042471	1
0	1839	360.465395770535	2
0	1841	360.6196654985	3
0	1843	360.730301772179	4
0	1845	361.397620330918	5
0	1848	363.789830877614	4
0	1853	363.793417648971	3
0	1859	364.552646867299	2
0	1867	365.381481114629	1
0	1872	365.62542571911	0
0	1878	366.21419237107	1
0	1879	366.630462127552	0
0	1883	366.842664512844	1
0	1885	368.215583990258	2
0	1887	369.22579688701	3
0	1893	372.762428103699	4
0	1894	372.883484334381	3
0	1900	373.310886204313	4
0	1903	373.887548646758	5
0	1904	374.6728791133	4
0	1912	375.40778335239	5
0	1913	375.45545597115	4
0	1919	375.479648330911	5
0	1921	376.037198932334	4
0	1926	376.076067118029	3
0	1936	377.702872006646	2
0	1942	378.171981423543	1
0	1947	378.792406826548	0
0	1965	380.410196853457	1
0	1967	381.121576789805	0
0	1973	381.43650212661	1
0	1974	381.860686475488	0
0	1980	382.226856703253	1
0	1982	382.454522171876	0
0	2018	388.768846309854	1
0	2020	389.118518496943	2
0	2023	390.583029769648	1
0	2028	390.617037864465	0
0	2089	404.321926536161	1
0	2092	404.848555587209	0
0	2098	405.562831716908	1
0	2100	406.474083688405	0
0	2106	406.481813927493	1
0	2112	408.486055761571	2
0	2115	410.087416134999	1
0	2121	410.172721247994	2
0	2122	410.854280718687	1
0	2129	411.107759912876	0
0	2151	412.400166286026	1
0	2155	413.66958903925	2
0	2156	414.759411865563	1
0	2163	415.024874734777	2
0	2166	415.665424467675	1
0	2173	416.143162799973	2
0	2175	416.555454475859	1
0	2180	416.808459308458	0
0	2220	422.875446359248	1
0	2221	423.069925778385	0
0	2227	423.396311150416	1
0	2229	423.874221699767	0
0	2240	424.004964180702	1
0	2243	425.310210720857	2
0	2244	426.234922767023	1
0	2249	426.353477220988	0
0	2287	433.117721266007	1
0	2289	433.22608019563	0
0	2307	438.483718737942	1
0	2310	439.485539170627	2
0	2311	440.200284555493	1
0	2316	440.264757257469	0
0	2337	447.591702213163	1
0	2341	448.669923566008	0
0	2347	448.703048446366	1
0	2348	448.747572183039	0
0	2354	448.798157844488	1
0	2359	449.387387599705	2
0	2360	449.425531565176	1
0	2368	450.519720821462	0
0	2374	450.784455665359	1
0	2376	451.099711000581	2
0	2378	451.65881921301	3
0	2380	451.820052192954	4
0	2381	453.800399182848	3
0	2386	453.833550649257	2
0	2391	453.837838054044	1
0	2395	454.004685060175	2
0	2398	454.743537000752	1
0	2403	456.746921788082	0
0	2411	459.736885771067	1
0	2413	460.096609968245	2
0	2414	460.327897573605	1
0	2422	461.553885690964	2
0	2423	461.713507302614	1
0	2427	461.935843271332	2
0	2429	462.580558448995	3
0	2431	464.072949206843	4
0	2438	468.683941332025	3
0	2442	469.007173271845	4
0	2444	470.085303877229	5
0	2450	470.434840659655	6
0	2451	470.668676141717	5
0	2457	470.77574882677	6
0	2458	471.474423791038	5
0	2464	471.831064841063	6
0	2467	472.616676650338	5
0	2472	473.769144396585	4
0	2477	475.641842802254	3
0	2483	476.139290247118	4
0	2484	476.460179257621	3
0	2489	476.989189734002	2
0	2494	479.039032723779	1
0	2499	481.112121309976	0
0	2510	481.889524643798	1
0	2514	482.640180113642	0
0	2559	489.408933337163	1
0	2561	489.469464742536	2
0	2563	489.56126116591	3
0	2568	490.458064036266	2
0	2578	491.831296561205	3
0	2580	491.993878009448	4
0	2582	492.314948309831	5
0	2583	492.910518042296	4
0	2588	492.97836143012	3
0	2593	493.117802209165	2
0	2599	493.474481726444	3
0	2600	494.138474132392	2
0	2605	494.571106902524	1
0	2609	495.256415810636	2
0	2611	495.518864630299	3
0	2614	496.117895372275	2
0	2619	497.478054582607	1
0	2623	498.667242616338	2
0	2625	499.749550584934	3
0	2628	501.763269869564	2
0	2632	502.101454147561	3
0	2634	502.204963677785	4
0	2638	503.46142694803	3
0	2649	504.985559280585	2
0	2655	507.013801873152	1
0	2661	508.220861900312	0
0	2718	514.218910786166	1
0	2719	514.603980764444	0
0	2725	515.09976197515	1
0	2728	515.865777798003	0
0	2741	517.499590867067	1
0	2746	519.432411801803	0
0	2781	524.298869176268	1
0	2785	527.518848198534	0
0	2812	531.341951538308	1
0	2813	531.428615320496	0
0	2830	534.039461479421	1
0	2831	534.194984341133	0
0	2878	540.942171929307	1
0	2879	541.406048370678	0
0	2892	541.651866067925	1
0	2903	544.171162323797	2
0	2904	544.228417296875	1
0	2909	544.915178164934	0
0	2915	545.066919636077	1
0	2918	546.164975561965	2
0	2920	547.774287533418	1
0	2925	548.255109400744	0
0	2931	549.032028434975	1
0	2935	549.597989367027	2
0	2936	549.625939557019	1
0	2942	550.707890856673	0
0	2966	554.969118994552	1
0	2967	555.254110049454	0
0	2978	556.788707813901	1
0	2984	559.324055011349	2
0	2985	559.896594103096	1
0	2991	560.656662604201	0
0	3036	565.332683206046	1
0	3037	565.631983723831	0
0	3053	568.48861988476	1
0	3058	569.545302439015	2
0	3060	569.769653382977	3
0	3061	570.247087382366	2
0	3067	570.639340756995	3
0	3068	571.203169365624	2
0	3075	572.405543086721	3
0	3076	572.68435057664	2
0	3081	572.720461464713	1
0	3086	573.01726663899	0
0	3092	573.474254193917	1
0	3096	574.126460824601	0
0	3115	577.012598068441	1
0	3118	577.923341022032	0
0	3125	578.824185600219	1
0	3126	579.097828089483	0
0	3172	587.055528750483	1
0	3176	590.526941018189	0
0	3182	590.800294858632	1
0	3183	590.939721503174	0
0	3212	599.497136896928	1
0	3213	599.826880456164	0
0	3219	599.891702768616	1
0	3220	600.618577720335	0
0	3226	600.864888550992	1
0	3230	602.621250559396	0
0	3249	604.30348552053	1
0	3252	604.615116035913	2
0	3255	605.275316401558	3
0	3258	605.504360212488	2
0	3265	606.577384527551	3
0	3266	606.929731428524	2
0	3272	610.054047634484	3
0	3274	611.111339834132	2
0	3280	611.118247591165	3
0	3281	611.321048752741	2
0	3286	611.620074597895	1
0	3292	611.731776294671	2
0	3293	612.127475656235	1
0	3297	613.352569164714	2
0	3302	615.267217277352	1
0	3308	617.049695903052	2
0	3309	617.592768738064	1
0	3315	617.887992089191	0
0	3347	622.26411496439	1
0	3349	622.871235517658	2
0	3353	622.983820766677	3
0	3354	624.461126111443	2
0	3360	625.243050764288	3
0	3364	627.0323359153	2
0	3369	627.051041181443	1
0	3376	627.66863689361	0
0	3395	629.568830561062	1
0	3397	630.553590745179	0
0	3403	630.622454952996	1
0	3408	631.709423041288	0
0	3429	634.442024051923	1
0	3433	635.674746926699	2
0	3437	636.08526641971	3
0	3442	639.791501496238	4
0	3443	640.030417316955	3
0	3449	640.153411255793	4
0	3452	641.891060672769	3
0	3463	644.604772561729	2
0	3468	644.793083999798	1
0	3476	645.388775381863	0
0	3498	647.701510261803	1
0	3500	649.429597311643	2
0	3502	650.164486372741	3
0	3506	653.426693881559	4
0	3510	655.151617937465	5
0	3513	657.334864815728	4
0	3518	657.905631340692	3
0	3523	657.952298235686	2
0	3530	658.621475890208	3
0	3533	659.126557010341	4
0	3534	659.202401317325	3
0	3539	659.931645124542	2
0	3548	661.288956906908	1
0	3554	661.383525712113	2
0	3556	661.835372163644	3
0	3560	663.407424080076	2
0	3567	665.952314396968	1
0	3574	666.486768100937	2
0	3577	667.519001156308	1
0	3583	667.763126866412	2
0	3585	668.599147926058	1
0	3591	669.014504227582	0
0	3614	671.861995009753	1
0	3617	672.160833496515	2
0	3620	673.257820083168	3
0	3623	674.714983643256	2
0	3631	675.752840002225	3
0	3632	675.781145513444	2
0	3638	676.076074551198	3
0	3640	676.445538011955	2
0	3649	677.109808665693	3
0	3651	678.022051981434	4
0	3654	678.403311458195	3
0	3659	678.854148669413	2
0	3664	679.115895363462	1
0	3671	679.989334649103	0
0	3675	681.662863119532	1
0	3677	682.344198299381	2
0	3683	684.293895750927	3
0	3684	685.01241780057	2
0	3689	688.382498505975	1
0	3693	688.663226753417	2
0	3697	690.868307735622	3
0	3699	691.892837655808	2
0	3704	692.359880294327	1
0	3708	692.488451557535	2
0	3710	693.274256070623	3
0	3712	693.647788697395	4
0	3714	696.123649671988	5
0	3718	696.774008363005	4
0	3726	697.425094626271	5
0	3728	697.908193187564	4
0	3733	699.032417628066	3
0	3739	699.174172700156	4
0	3741	699.216175606418	5
0	3745	700.399639653112	4
0	3751	701.79790381935	3
0	3756	702.114879024806	2
0	3762	702.47730515865	3
0	3763	702.909539911633	2
0	3769	703.673931319351	3
0	3775	706.059535299541	4
0	3776	706.075525916758	3
0	3780	706.326725387333	4
0	3784	707.870162758105	3
0	3789	708.00414289986	2
0	3794	709.761463942971	1
0	3799	710.191970118233	0
0	3816	712.697360701471	1
0	3818	713.9762229428	0
0	3835	715.067083204182	1
0	3839	715.773427493328	2
0	3845	718.336647122717	1
0	3850	718.562126836765	0
0	3884	722.251893022731	1
0	3886	722.786006371881	2
0	3887	723.512023162568	1
0	3894	725.809624759135	0
0	3906	726.597121486954	1
0	3907	726.979999865326	0
0	3919	727.916853054237	1
0	3920	728.276887512109	0
0	3932	728.423487771578	1
0	3933	728.436819928919	0
0	3939	729.633336554022	1
0	3943	730.214849344029	0
0	3952	733.302885234973	1
0	3955	733.958823006959	0
0	3966	734.929543154662	1
0	3968	735.203496626641	2
0	3970	737.594436281078	3
0	3972	738.451876526231	4
0	3977	740.046760709152	3
0	3982	740.390808425999	2
0	3990	741.361838068365	3
0	3993	741.882083875394	2
0	4002	742.844240249617	1
0	4007	743.443051568923	0
0	4027	745.205605337276	1
0	4029	746.205307301795	2
0	4032	746.520028558213	1
0	4037	747.541881861365	0
0	4046	748.651827089088	1
0	4050	749.387589087917	2
0	4054	750.497179476881	3
0	4060	752.477203935676	4
0	4062	752.651459496426	5
0	4064	754.225079381376	6
0	4065	754.278561952676	5
0	4070	755.243433248737	4
0	4075	757.011501453276	3
0	4079	758.064726485066	4
0	4081	759.594327608663	5
0	4083	761.465040219855	6
0	4086	762.619209106103	5
0	4091	763.849604643965	4
0	4096	765.560904817845	3
0	4103	767.174794031375	2
0	4114	769.684791745573	1
0	4119	772.140110914656	0
0	4130	773.716727923079	1
0	4135	774.748628147299	0
0	4161	779.634192141609	1
0	4162	779.735619386884	0
0	4185	781.52929141751	1
0	4186	781.780506653575	0
0	4193	782.437688132121	1
0	4194	783.564241253064	0
0	4207	784.478738786183	1
0	4208	784.776281269641	0
0	4231	788.576079867124	1
0	4234	789.0569904909	0
0	4240	789.129536302514	1
0	4241	789.174551549031	0
0	4270	795.26317376331	1
0	4277	798.093544959338	2
0	4280	799.163160346264	1
0	4285	799.164034291897	0
0	4289	799.94789405851	1
0	4292	801.590870224478	0
0	4296	803.024303656584	1
0	4300	803.824506790528	0
0	4306	805.583946558288	1
0	4308	805.659386249984	2
0	4311	805.831711601078	1
0	4315	806.300117322559	2
0	4317	807.228843191345	3
0	4319	807.53829384955	4
0	4322	809.688057759785	3
0	4326	809.876191128111	4
0	4330	810.146322141794	5
0	4331	810.962928773769	4
0	4340	813.811976925642	3
0	4345	817.193937726052	2
0	4349	818.217583309771	3
0	4356	819.671190401377	2
0	4361	819.690476332553	1
0	4367	820.04885348965	2
0	4368	820.606018975806	1
0	4373	822.563542705936	0
0	4410	825.285878255273	1
0	4412	825.428339877075	2
0	4415	825.960912095189	1
0	4421	826.043644414516	2
0	4425	828.029125989689	3
0	4427	828.108325450646	4
0	4428	828.519543200177	3
0	4435	829.589495154782	2
0	4441	830.268362702348	3
0	4442	830.460841366937	2
0	4452	831.77450049623	3
0	4454	831.820078632646	4
0	4455	832.311433130249	3
0	4460	833.08463138937	2
0	4465	833.277519345407	1
0	4470	833.350646672763	0
0	4476	833.378542790839	1
0	4477	835.105360079637	0
0	4495	837.402916685766	1
0	4496	837.597990801865	0
0	4513	838.648611089751	1
0	4518	839.84642754869	0
0	4534	843.290520665215	1
0	4535	844.940006376653	0
0	4541	845.553318239636	1
0	4542	845.564738665513	0
0	4548	845.646934656051	1
0	4550	846.255051368356	2
0	4552	846.355517328099	3
0	4553	846.664527074094	2
0	4557	848.885715768436	3
0	4559	850.037848761523	4
0	4562	851.468870432598	3
0	4567	853.053636828657	2
0	4573	854.402818007731	3
0	4574	854.616356276688	2
0	4584	855.632001428986	3
0	4585	856.009200538649	2
0	4589	856.219863173191	3
0	4592	857.476686855576	2
0	4596	857.964398008914	3
0	4599	858.271216656883	2
0	4604	860.659299310115	1
0	4608	861.729612959725	2
0	4611	862.61700744862	1
0	4616	863.615248689039	0
0	4632	865.692518572498	1
0	4635	867.220296977771	0
0	4657	871.738067449496	1
0	4660	872.283535449304	0
0	4666	873.536321057333	1
0	4668	873.78640764635	2
0	4671	874.794271396725	1
0	4676	876.085865444528	0
0	4680	877.419588539759	1
0	4683	878.123550090972	0
0	4687	878.331040018814	1
0	4690	878.721871739026	0
0	4703	881.72980961349	1
0	4705	881.990008985177	2
0	4708	882.855496890664	1
0	4714	884.249805443007	2
0	4715	885.101071059752	1
0	4719	885.400416189286	2
0	4722	885.881790474838	1
0	4726	887.262735939635	2
0	4731	888.643760424809	1
0	4738	890.549455048147	2
0	4741	891.195070779425	1
0	4746	891.228477803288	0
0	4783	895.945134128884	1
0	4787	896.6352331499	2
0	4788	896.972820755677	1
0	4794	897.332280678419	2
0	4796	898.079473732242	3
0	4798	898.534546337652	2
0	4805	898.93141667646	3
0	4806	898.974693856854	2
0	4811	899.100567620216	1
0	4816	899.48115245151	0
0	4848	904.125826206398	1
0	4851	905.190222010849	2
0	4853	905.192832812509	3
0	4854	905.51681681945	2
0	4860	906.229582419766	3
0	4863	906.412680972193	4
0	4864	906.892626143548	3
0	4871	907.636706531411	2
0	4876	908.04154416113	1
0	4882	908.125022399913	2
0	4883	908.385105257097	1
0	4888	910.560199295477	0
0	4892	911.161488665321	1
0	4894	912.046684894595	2
0	4899	913.557948220311	1
0	4903	914.642493131415	2
0	4908	915.498805862008	1
0	4913	916.273374649935	0
0	4917	916.342140124922	1
0	4920	917.025822171952	0
0	4924	917.219183375702	1
0	4930	919.462751801538	2
0	4931	920.061320202781	1
0	4936	920.332532911484	0
0	4942	920.583156099121	1
0	4946	920.902068594576	0
0	4964	922.471928411784	1
0	4967	923.040026917895	2
0	4969	923.720337148653	1
0	4974	924.392800992109	0
0	4992	925.614776440761	1
0	4993	925.762265040687	0
0	4997	926.570481494544	1
0	4999	927.563394151964	2
0	5002	928.493815400274	1
0	5006	928.889078902782	2
0	5008	929.132014479205	3
0	5012	929.599586379932	4
0	5015	930.231287363733	5
0	5017	930.288332745521	6
0	5020	931.045155487183	5
0	5027	933.191515663924	6
0	5028	933.434753983108	5
0	5033	933.499197147059	4
0	5039	934.772919442041	5
0	5041	934.899411201127	6
0	5045	938.278235204106	7
0	5050	939.638545902603	6
0	5055	940.711144820618	5
0	5062	941.255538463338	4
0	5066	943.633426675114	5
0	5070	946.715517034039	6
0	5072	947.370954761292	7
0	5074	947.77847258984	8
0	5075	948.036500957535	7
0	5080	949.686927375172	6
0	5085	950.898962706578	5
0	5091	952.409165350518	6
0	5093	953.433458542811	5
0	5099	954.28270098507	6
0	5105	956.243785441	5
0	5110	956.578117196289	4
0	5124	960.671128734175	3
0	5131	961.341579587098	2
0	5135	961.494486607842	3
0	5138	963.847323774806	2
0	5144	965.094891216146	3
0	5146	965.753609646706	4
0	5149	966.341743223841	3
0	5155	966.835696487355	4
0	5159	967.312246502059	3
0	5164	967.525500694373	2
0	5170	969.09981640064	1
0	5175	969.255227251627	0
0	5181	969.593538855031	1
0	5182	970.742189841693	0
0	5186	970.743690131772	1
0	5190	971.557320256446	2
0	5192	972.362406817479	1
0	5197	974.745899879629	0
0	5201	975.713000810736	1
0	5204	977.764988571342	0
0	5208	977.976575920009	1
0	5214	979.002201192736	2
0	5215	979.346811662878	1
0	5223	980.437198442317	0
0	5246	983.073986299764	1
0	5247	983.151958282322	0
0	5254	983.272837469024	1
0	5255	983.466507440769	0
0	5268	984.750077599745	1
0	5269	984.845420824316	0
0	5295	988.009436829569	1
0	5297	988.521324943759	2
0	5298	988.947874480105	1
0	5302	989.036314319726	2
0	5304	990.198016218883	3
0	5310	992.156795662365	2
0	5314	992.542695588855	3
0	5316	995.418369054392	4
0	5320	996.902150173732	5
0	5324	997.722332179846	6
0	5327	998.33788880568	5
0	5334	999.188287719177	4
0	5339	999.381770070488	3
0	5345	999.622549014498	4
0	5346	1000.031646102892	3
0	5353	1001.123090562955	2
0	5358	1002.763789951019	1
0	5362	1002.824155316624	2
0	5364	1004.500935747197	3
0	5366	1005.830133978264	4
0	5368	1006.165827316455	5
0	5371	1006.856711766436	4
0	5375	1007.131476969487	5
0	5377	1007.714869699604	6
0	5380	1008.394649938624	5
0	5385	1009.194753261188	4
0	5390	1009.448849217597	3
0	5395	1010.100743658211	2
0	5400	1010.639535160362	1
0	5404	1010.789488397165	2
0	5408	1011.095022449174	3
0	5409	1011.188679132084	2
0	5417	1012.208671732849	3
0	5420	1012.902835384854	4
0	5423	1014.202050318409	5
0	5425	1014.453569608335	6
0	5426	1014.97456224034	5
0	5431	1015.955961718316	4
0	5436	1016.415861994542	3
0	5442	1017.202605642486	2
0	5450	1017.826940014524	3
0	5452	1018.354558122824	4
0	5455	1019.318472668479	3
0	5460	1019.365902009607	2
0	5469	1019.953663528477	3
0	5472	1022.004125092999	2
0	5477	1022.402711706536	1
0	5486	1024.804114672917	0
0	5490	1025.508013912114	1
0	5492	1025.609312315959	2
0	5494	1025.801821063676	3
0	5502	1028.144484071914	2
0	5507	1028.474030241229	1
0	5513	1029.150231220258	2
0	5516	1030.155503939998	1
0	5520	1030.326806634816	2
0	5522	1031.819720880287	3
0	5524	1034.125430272131	4
0	5529	1037.140618505991	3
0	5534	1038.486471338881	2
0	5543	1040.182902670225	1
0	5550	1040.57923667793	0
0	5560	1043.56040870523	1
0	5561	1043.861187985819	0
0	5597	1045.743274551458	1
0	5599	1046.16619022962	2
0	5601	1049.359636871818	3
0	5604	1049.604082637934	2
0	5611	1049.765897292663	1
0	5619	1051.312157022594	2
0	5621	1051.882373380905	3
0	5622	1052.420250561106	2
0	5627	1052.510808710866	1
0	5633	1052.988807485532	2
0	5637	1053.682990247104	3
0	5639	1054.323021984007	2
0	5647	1054.776509922123	1
0	5660	1056.348789125108	0
0	5683	1056.917121944184	1
0	5684	1057.971449230422	0
0	5690	1058.047980412549	1
0	5695	1058.928449494257	2
0	5699	1061.273537996525	1
0	5705	1061.307817387447	2
0	5707	1062.402264945142	1
0	5712	1063.431048586876	0
0	5735	1065.505422366735	1
0	5736	1065.715770641807	0
0	5749	1067.253588765471	1
0	5750	1068.273290148677	0
0	5757	1069.499888563833	1
0	5758	1069.591456366512	0
0	5772	1069.814648144987	1
0	5774	1070.310732067639	2
0	5778	1072.337874768225	3
0	5784	1074.891858978593	4
0	5788	1075.030163952833	5
0	5789	1075.518428746398	4
0	5794	1076.923291850671	3
0	5800	1077.184817911005	4
0	5801	1077.510954510119	3
0	5806	1077.546680810617	2
0	5814	1078.041957127885	3
0	5815	1078.790356548739	2
0	5821	1079.347477070999	3
0	5822	1079.387949567047	2
0	5827	1081.131377108975	1
0	5831	1081.446651022271	2
0	5834	1082.67547646058	1
0	5839	1083.513992698023	0
0	5859	1085.047418552311	1
0	5861	1086.995836333473	2
0	5864	1087.332256009774	3
0	5870	1088.628057378497	4
0	5871	1088.810770871567	3
0	5876	1088.942880434467	2
0	5881	1089.075935307084	1
0	5886	1089.109384825816	0
0	5904	1091.061130591399	1
0	5906	1091.249182405063	2
0	5908	1091.481643122101	3
0	5910	1092.182924209357	2
0	5916	1093.758737750871	1
0	5921	1094.163387386052	0
0	5925	1094.405211930437	1
0	5927	1095.89749361762	2
0	5933	1098.343417116198	3
0	5936	1098.852011869775	4
0	5939	1099.765612344421	3
0	5945	1100.634875699755	2
0	5951	1102.126976854128	1
0	5958	1102.907791976713	2
0	5959	1103.219151137989	1
0	5965	1103.488259138193	2
0	5967	1104.136565451647	3
0	5971	1105.012277833622	4
0	5974	1105.931312130562	5
0	5975	1107.010600069011	4
0	5980	1107.257510513768	3
0	5984	1109.002337096083	4
0	5990	1111.828838968357	5
0	5991	1112.154712772135	4
0	5997	1113.46940129584	3
0	6002	1113.622156148807	2
0	6017	1117.569427005164	1
0	6023	1118.793460063892	0
0	6057	1121.136820369008	1
0	6060	1121.697654427327	0
0	6091	1126.361524876368	1
0	6092	1126.518671871681	0
0	6106	1128.28162431273	1
0	6111	1131.755944298682	0
0	6120	1134.219829706254	1
0	6126	1137.832113310893	2
0	6128	1138.94040135307	3
0	6131	1140.494638582243	2
0	6137	1142.508197754096	3
0	6139	1142.698687925938	4
0	6141	1142.831610123391	5
0	6145	1143.37768109666	6
0	6147	1144.008110036108	7
0	6149	1144.226807994168	6
0	6155	1146.666676072945	5
0	6160	1151.830401634826	4
0	6165	1153.640722757285	3
0	6170	1155.14054583818	2
0	6176	1155.780052119427	1
0	6184	1156.181683320757	2
0	6187	1157.926992519278	1
0	6195	1158.149593457754	2
0	6196	1158.37600288101	1
0	6201	1158.902107005418	0
0	6205	1159.163697550925	1
0	6207	1159.275750369727	2
0	6212	1161.002947491958	1
0	6219	1161.910253614779	2
0	6220	1161.968731899401	1
0	6228	1162.134136779527	2
0	6230	1162.209374437372	3
0	6234	1162.779943762529	2
0	6240	1162.955264077757	3
0	6241	1163.070729528442	2
0	6247	1163.182936216308	3
0	6248	1163.335979917726	2
0	6253	1164.303318797257	1
0	6261	1165.636219405996	2
0	6262	1165.794450441037	1
0	6266	1166.26628585958	2
0	6270	1166.657361868602	3
0	6272	1167.753798888006	2
0	6278	1167.914829178082	3
0	6282	1169.732509820494	2
0	6288	1170.77472587839	3
0	6289	1171.228228911043	2
0	6299	1174.277680188087	1
0	6304	1174.310808888171	0
0	6315	1174.602903842387	1
0	6318	1175.917062964205	2
0	6322	1176.394933637858	3
0	6324	1176.865310000674	4
0	6325	1177.004969356453	3
0	6329	1177.077415605705	4
0	6331	1177.495150956417	5
0	6335	1179.987665271128	6
0	6337	1180.350771156113	5
0	6342	1180.391314243012	4
0	6346	1180.990537176536	5
0	6351	1182.224452430605	4
0	6355	1183.573090475631	5
0	6357	1183.765119233987	6
0	6362	1185.850085834917	7
0	6363	1186.031794477611	6
0	6368	1186.058130546539	5
0	6377	1188.133267638586	4
0	6389	1189.58010336981	5
0	6390	1189.641978068668	4
0	6394	1189.759230834781	5
0	6398	1191.168842311829	6
0	6401	1193.241996869514	5
0	6405	1193.290906050934	6
0	6409	1194.239300435851	7
0	6410	1194.662365236828	6
0	6415	1195.844615899203	5
0	6420	1196.436195745874	4
0	6425	1197.354421684448	3
0	6429	1198.462945695543	4
0	6434	1200.734380321291	3
0	6438	1200.902041339314	4
0	6442	1202.488231300463	5
0	6443	1202.961113777593	4
0	6451	1206.989094309503	3
0	6457	1206.989800324515	4
0	6458	1207.292718463415	3
0	6462	1207.92065659409	4
0	6464	1208.824358430137	5
0	6468	1209.228602239223	6
0	6469	1209.853363011155	5
0	6473	1209.910240261967	6
0	6476	1210.598257041891	5
0	6481	1212.507076587465	4
0	6485	1213.049074423579	5
0	6490	1213.704803445029	4
0	6498	1214.661725983517	5
0	6500	1214.840719609404	6
0	6501	1215.259151188834	5
0	6506	1216.213949194437	4
0	6510	1216.544942227665	5
0	6513	1217.017639056172	4
0	6517	1217.062046105042	5
0	6520	1218.991396104393	4
0	6524	1219.043272818568	5
0	6529	1219.801289006881	4
0	6538	1222.197264131328	3
0	6542	1223.001487128246	4
0	6544	1223.141051297346	5
0	6548	1223.474473721432	6
0	6551	1223.996679953382	5
0	6556	1225.119984125901	4
0	6563	1226.128926539975	3
0	6567	1226.206228663475	4
0	6569	1226.475378651055	5
0	6572	1227.173543617915	4
0	6576	1227.290554568648	5
0	6580	1227.902220223569	6
0	6581	1228.082761892364	5
0	6586	1228.37459376782	4
0	6591	1229.721629895902	3
0	6598	1232.211932417236	2
0	6604	1233.684839425927	3
0	6605	1234.043084780205	2
0	6609	1235.847370142825	3
0	6613	1237.759021948462	4
0	6616	1238.825479679849	3
0	6620	1240.06123697246	4
0	6622	1240.636179570068	5
0	6626	1241.091365243748	4
0	6632	1241.554870122279	5
0	6633	1241.637328441996	4
0	6637	1241.733713983966	5
0	6642	1242.152656241303	4
0	6647	1243.467147080571	3
0	6653	1244.137218561027	2
0	6659	1244.150611439284	3
0	6660	1244.344638648191	2
0	6664	1245.537178286698	3
0	6669	1247.557568140944	2
0	6675	1247.951700168394	3
0	6677	1248.173745647919	4
0	6679	1248.948283756861	3
0	6685	1249.492363062338	4
0	6687	1249.497968781356	5
0	6689	1249.62377227621	6
0	6693	1251.396137268175	5
0	6699	1251.806890866917	4
0	6705	1251.904651805565	5
0	6706	1252.136085272494	4
0	6711	1253.296789138604	3
0	6718	1254.474857655047	2
0	6724	1255.233712342664	3
0	6729	1256.701470792292	2
0	6733	1258.012239454122	3
0	6737	1260.385399430797	4
0	6743	1262.641601609353	3
0	6749	1263.090963975634	2
0	6754	1263.719282802845	1
0	6761	1265.068412909407	2
0	6762	1265.221252857386	1
0	6768	1266.076379572811	2
0	6769	1266.484390656381	1
0	6773	1266.701584390689	2
0	6776	1268.929308104615	1
0	6780	1269.176448755098	2
0	6784	1269.555869551591	3
0	6785	1270.618678403928	2
0	6791	1270.892959171632	3
0	6792	1271.79003340693	2
0	6796	1272.681660094647	3
0	6799	1274.324236744101	2
0	6805	1275.051324360965	3
0	6806	1276.113308939341	2
0	6810	1276.926826616938	3
0	6812	1277.778124356425	4
0	6814	1278.042063393814	5
0	6818	1279.551267492525	6
0	6825	1283.046901993355	5
0	6831	1283.355778398789	6
0	6833	1283.603377782126	7
0	6834	1283.657648336779	6
0	6838	1283.661390252645	7
0	6841	1285.047360145936	6
0	6846	1286.587888008145	5
0	6853	1287.265164244716	4
0	6861	1289.006650501099	5
0	6863	1289.245313773112	6
0	6866	1289.603437730147	7
0	6868	1290.06817364102	8
0	6869	1290.649157193665	7
0	6874	1291.151154461632	6
0	6880	1294.31978193373	5
0	6886	1294.789359152299	4
0	6892	1295.111524476276	5
0	6894	1295.604585351776	4
0	6899	1295.890154508228	3
0	6904	1298.244776114576	2
0	6908	1298.493142522972	3
0	6913	1299.534552823546	2
0	6918	1302.619515195788	1
0	6926	1303.346355547934	2
0	6927	1303.835857878218	1
0	6933	1304.109386462151	2
0	6934	1304.349360034866	1
0	6939	1304.71239495816	0
0	6943	1305.44809611259	1
0	6945	1305.576811074028	2
0	6947	1305.659047512304	3
0	6950	1306.604522131796	2
0	6955	1306.925446793095	1
0	6961	1308.895944122428	2
0	6962	1308.902918131837	1
0	6966	1309.001328800028	2
0	6968	1311.400690176068	3
0	6970	1311.846161193834	4
0	6972	1311.989911395792	5
0	6974	1312.068547536147	6
0	6978	1315.717906812471	7
0	6983	1317.223512144203	6
0	6989	1317.647093901157	7
0	6991	1318.22343496745	6
0	7000	1318.98022386	5
0	7006	1319.42664220183	6
0	7007	1319.518628338877	5
0	7014	1322.028707488876	4
0	7019	1323.344629712444	3
0	7026	1323.846093507749	4
0	7028	1324.280530608687	5
0	7035	1326.947859640868	6
0	7036	1327.232316626696	5
0	7041	1327.243754935021	4
0	7048	1327.607516246227	5
0	7053	1328.072381692136	6
0	7054	1328.090702642684	5
0	7059	1328.751425679395	4
0	7066	1328.983149968706	3
0	7071	1329.952155203848	2
0	7076	1330.650796635246	1
0	7084	1332.749383461952	2
0	7087	1333.604966126349	3
0	7090	1333.928048739063	2
0	7100	1335.491819790133	1
0	7108	1336.062523906411	2
0	7109	1336.227163833761	1
0	7114	1338.447834584043	0
0	7163	1343.823382243892	1
0	7164	1344.154004335807	0
0	7171	1344.39103078423	1
0	7174	1345.18992574122	2
0	7175	1346.243544395695	1
0	7180	1346.272004704127	0
0	7201	1348.278327359741	1
0	7202	1348.291868905009	0
0	7211	1348.570169044609	1
0	7213	1349.029017630428	2
0	7221	1352.355007623803	1
0	7227	1352.639029442334	2
0	7229	1352.856507206303	1
0	7234	1353.419821287295	0
0	7238	1353.627676939753	1
0	7241	1353.680745360544	0
0	7245	1354.61215996857	1
0	7247	1355.37230018675	2
0	7251	1355.939762232887	3
0	7254	1356.020679766597	2
0	7261	1357.185428940822	1
0	7267	1358.639241667816	0
0	7352	1372.178025519825	1
0	7355	1372.869237200224	0
0	7373	1374.561491908893	1
0	7377	1375.887172690541	2
0	7381	1377.836716644952	1
0	7387	1377.859251890653	2
0	7389	1377.961303669445	3
0	7390	1378.146430144935	2
0	7396	1378.566941978068	3
0	7397	1378.715188037972	2
0	7403	1379.31091508645	3
0	7405	1379.878967789083	4
0	7406	1380.139669868743	3
0	7418	1382.442404963491	4
0	7420	1382.501123244982	5
0	7424	1382.840183761564	6
0	7425	1382.947823390777	5
0	7429	1383.243410892559	6
0	7432	1384.640366156798	5
0	7436	1384.821370397556	6
0	7441	1385.453675743031	5
0	7451	1386.493659142075	6
0	7457	1389.160211241809	5
0	7464	1389.892544439961	4
0	7471	1390.63146353915	5
0	7475	1391.904324314283	6
0	7478	1392.390969726699	7
0	7479	1392.710336399918	6
0	7484	1392.920504683093	5
0	7490	1393.591640134183	4
0	7495	1394.003377439004	3
0	7500	1395.050549686303	2
0	7505	1395.520275043487	1
0	7509	1395.925416090954	2
0	7512	1396.36262482441	1
0	7516	1398.033812012235	2
0	7519	1399.463622788924	1
0	7524	1401.10564524856	0
0	7528	1401.665157904483	1
0	7530	1402.5458897931	2
0	7533	1404.306328953937	1
0	7539	1404.457420223543	2
0	7541	1405.047648634688	1
0	7546	1406.188042665276	0
0	7565	1409.392909584524	1
0	7568	1410.950552235952	0
0	7579	1411.581676011362	1
0	7580	1412.250746785981	0
0	7588	1413.351126921842	1
0	7589	1413.353185697283	0
0	7601	1413.992465909388	1
0	7602	1414.070932477404	0
0	7622	1415.458796641819	1
0	7624	1416.222355045711	0
0	7630	1416.726000404225	1
0	7631	1417.369471934671	0
0	7642	1419.071456038426	1
0	7643	1419.111322520454	0
0	7649	1419.714687877578	1
0	7651	1420.265535865923	0
0	7655	1420.911684193729	1
0	7657	1421.473327455697	2
0	7663	1423.602206869198	1
0	7668	1423.724467324114	0
0	7674	1425.165936171048	1
0	7675	1425.434821697809	0
0	7700	1430.267286197828	1
0	7704	1430.294842081514	2
0	7706	1431.037391117533	3
0	7711	1431.437226961768	4
0	7712	1431.483023805721	3
0	7717	1431.734000893283	2
0	7722	1432.461239727549	1
0	7727	1432.919996054504	0
0	7731	1433.45171602984	1
0	7734	1434.685062036256	0
0	7738	1434.736263278794	1
0	7740	1435.106927611492	2
0	7743	1436.183120688858	1
0	7751	1436.902345939724	2
0	7753	1437.586249702944	3
0	7754	1438.336953119206	2
0	7761	1439.661449348243	1
0	7765	1440.09525545118	2
0	7767	1440.444294826553	3
0	7769	1440.818578324001	4
0	7772	1442.127656891977	3
0	7777	1443.193760213998	2
0	7782	1444.038725132354	1
0	7791	1446.304055579906	0
0	7797	1448.568483315708	1
0	7801	1449.593088850883	2
0	7804	1449.937832439623	1
0	7809	1450.844875295535	0
0	7837	1454.212444417482	1
0	7838	1454.360581169433	0
0	7850	1455.100065412237	1
0	7853	1456.483450927527	0
0	7871	1457.419442494779	1
0	7873	1457.613889016523	2
0	7875	1457.896959668466	1
0	7881	1458.071069517644	2
0	7886	1459.215044706106	1
0	7896	1460.180262550854	0
0	7934	1467.134182999754	1
0	7935	1467.455483672015	0
0	7960	1471.296881474389	1
0	7969	1473.544041649413	2
0	7970	1473.571693168337	1
0	7975	1473.602467139633	0
0	7981	1473.643204613442	1
0	7982	1473.798822363191	0
0	8003	1475.826778477097	1
0	8004	1475.863992134752	0
0	8036	1479.159020444385	1
0	8037	1479.616849489681	0
0	8070	1483.585947935811	1
0	8072	1483.706040465276	0
0	8083	1485.093482230561	1
0	8086	1485.699470555487	2
0	8087	1485.883764647211	1
0	8093	1486.227800224615	2
0	8094	1486.313235329048	1
0	8100	1487.105957743532	0
0	8111	1487.565068362836	1
0	8114	1487.896009778465	0
0	8134	1489.316090398951	1
0	8136	1489.437624275452	2
0	8138	1489.942041494989	3
0	8143	1491.398601430332	2
0	8148	1491.716530395395	1
0	8152	1492.826554010855	2
0	8156	1494.586481605602	3
0	8157	1494.737159099049	2
0	8162	1496.05711604743	1
0	8168	1498.366367755758	2
0	8170	1498.422142469024	3
0	8172	1498.552638334783	4
0	8175	1499.207267299804	3
0	8179	1499.352871822718	4
0	8181	1499.492962387843	5
0	8185	1501.293812155666	6
0	8187	1502.09164840988	7
0	8189	1502.182427216697	8
0	8192	1502.553167451441	7
0	8201	1503.260074624104	8
0	8203	1503.848691074789	9
0	8206	1504.506512822824	8
0	8212	1505.146760574958	7
0	8216	1505.186544051433	8
0	8220	1505.384419345804	9
0	8221	1505.516185989651	8
0	8233	1509.212380799036	7
0	8238	1509.487824713532	6
0	8242	1509.834374928379	7
0	8245	1511.365097820762	6
0	8250	1512.597598249124	5
0	8255	1512.670651535625	4
0	8260	1513.649543576242	3
0	8269	1515.356399276732	2
0	8277	1517.671911630382	1
0	8282	1517.767223244083	0
0	8307	1519.641430874252	1
0	8313	1521.260869280405	2
0	8316	1522.636417325853	3
0	8317	1522.737238841423	2
0	8322	1522.975749049003	1
0	8328	1523.140655850133	2
0	8329	1523.317650660725	1
0	8334	1523.340879850004	0
0	8356	1525.725878613195	1
0	8360	1526.488350661242	2
0	8365	1528.469771374617	1
0	8371	1530.333647660045	2
0	8372	1530.432722326921	1
0	8377	1530.646643879964	0
0	8381	1530.936821876613	1
0	8386	1531.652669242617	0
0	8420	1537.033560610227	1
0	8426	1537.777131160327	2
0	8429	1538.265963959494	1
0	8435	1539.558995483284	0
0	8447	1541.814465943837	1
0	8448	1541.832068507697	0
0	8479	1548.077475062678	1
0	8481	1548.595169095334	2
0	8486	1549.914394778263	1
0	8492	1549.946561734807	2
0	8493	1550.413396937614	1
0	8498	1551.240535130925	0
0	8515	1553.615690173462	1
0	8521	1554.815313681783	2
0	8522	1554.862211510793	1
0	8529	1555.732743375823	2
0	8533	1555.85182960821	3
0	8534	1556.689397166123	2
0	8539	1557.318750042237	1
0	8544	1557.385078162479	0
0	8591	1563.546368373454	1
0	8593	1563.548901142229	2
0	8595	1564.130678975773	3
0	8597	1564.273468587608	4
0	8602	1565.281819651252	3
0	8607	1566.272086264793	2
0	8614	1567.203540798899	1
0	8619	1567.308383201834	0
0	8638	1568.564367839014	1
0	8639	1568.888022023765	0
0	8645	1569.528739188776	1
0	8646	1569.80378917352	0
0	8669	1572.988730822731	1
0	8671	1574.206768347396	0
0	8689	1575.120055888963	1
0	8690	1575.282865693338	0
0	8699	1576.343306068236	1
0	8708	1577.802219237637	0
0	8723	1578.758359669789	1
0	8726	1579.6843311448	0
0	8730	1580.161236425561	1
0	8735	1580.308992938889	0
0	8744	1581.260996662441	1
0	8745	1581.64891401767	0
0	8761	1585.384366765655	1
0	8766	1587.251135683406	2
0	8770	1588.251046951764	1
0	8776	1588.633316694415	2
0	8777	1588.953029535441	1
0	8782	1589.115412463399	0
0	8800	1590.748260414317	1
0	8802	1591.123094776996	0
0	8811	1591.770996159351	1
0	8818	1594.692111867693	2
0	8821	1595.067461028526	3
0	8827	1596.922768979107	4
0	8830	1597.869862874982	3
0	8835	1598.627923524949	2
0	8840	1598.723678209371	1
0	8844	1600.060845623934	2
0	8849	1601.878594705068	1
0	8853	1602.196303674289	2
0	8855	1602.910322879446	3
0	8859	1603.483267839545	2
0	8864	1603.532199962575	1
0	8870	1605.09171235073	2
0	8872	1605.38859636281	3
0	8873	1606.128936344643	2
0	8881	1607.558271627874	3
0	8882	1607.799151845476	2
0	8890	1608.560143152801	3
0	8892	1609.240137870336	2
0	8897	1609.768693277861	1
0	8905	1611.88174008268	0
0	8916	1612.275027690183	1
0	8918	1612.600101839642	2
0	8920	1615.334560846915	1
0	8925	1615.725596865268	0
0	8931	1616.949340386192	1
0	8933	1617.033181173834	2
0	8937	1617.952777936756	3
0	8938	1618.152988316738	2
0	8945	1618.522957194006	3
0	8946	1618.547405225131	2
0	8954	1618.905244582724	1
0	8960	1619.15879181318	0
0	8985	1622.23651209463	1
0	8990	1623.923157082388	2
0	8991	1624.378002040721	1
0	8997	1624.472306645025	2
0	8998	1626.570935423376	1
0	9003	1627.09576810753	0
0	9015	1630.10415776352	1
0	9020	1631.446185185272	0
0	9033	1633.200284558401	1
0	9035	1633.201402961518	2
0	9036	1633.659241925266	1
0	9041	1633.709116558888	0
0	9053	1634.118549075517	1
0	9054	1634.254229728409	0
0	9065	1634.793055580767	1
0	9066	1635.424790520196	0
0	9111	1644.018435051527	1
0	9114	1644.820007977354	0
0	9120	1645.263097516524	1
0	9123	1645.971952900513	0
0	9139	1647.532588208984	1
0	9140	1647.864953111333	0
0	9162	1651.154279251131	1
0	9165	1652.148376446867	0
0	9180	1655.422603821041	1
0	9182	1655.577659993221	2
0	9183	1655.962559151339	1
0	9188	1656.482880743556	0
0	9202	1659.238232254236	1
0	9203	1659.419474012683	0
0	9221	1660.583377404906	1
0	9223	1661.19815861837	2
0	9226	1661.642483426639	1
0	9233	1663.076286581147	2
0	9234	1663.59801364747	1
0	9241	1665.797564991021	2
0	9242	1666.261489236439	1
0	9248	1667.277472046765	2
0	9249	1667.843120141126	1
0	9258	1669.982041331679	2
0	9262	1670.568299593824	1
0	9268	1670.663723063788	2
0	9270	1671.094082024999	3
0	9273	1672.264138670128	2
0	9280	1673.263844638983	1
0	9285	1673.677337716355	0
0	9289	1674.435584605939	1
0	9292	1675.385575891592	0
0	9298	1676.889158238297	1
0	9302	1679.556694594359	2
0	9304	1679.738892549706	3
0	9306	1680.573684076111	4
0	9308	1680.843233668203	5
0	9313	1682.75468252081	4
0	9319	1682.902022833095	5
0	9320	1683.648392100841	4
0	9325	1685.657078998822	3
0	9331	1686.532929176732	4
0	9334	1687.065105050247	3
0	9340	1687.226668569314	4
0	9341	1687.242795564621	3
0	9346	1687.714428677772	2
0	9350	1689.934679700399	3
0	9353	1690.183886965608	2
0	9359	1691.650398822045	3
0	9363	1692.991831374463	2
0	9369	1693.636582994208	3
0	9370	1693.771990037178	2
0	9375	1693.882682057366	1
0	9382	1695.233977597305	0
0	9386	1696.251337546134	1
0	9390	1696.841200494612	2
0	9391	1697.448671206811	1
0	9403	1699.679473812752	0
0	9430	1701.490838465817	1
0	9431	1701.87616750719	0
0	9439	1703.349512076321	1
0	9440	1703.938369908387	0
0	9451	1705.834022472758	1
0	9452	1706.675701823382	0
0	9472	1711.129503965182	1
0	9476	1711.256457277015	2
0	9480	1711.74359129826	3
0	9482	1714.88653567991	2
0	9487	1715.35513334314	1
0	9494	1715.429726910966	2
0	9495	1715.734409973882	1
0	9500	1716.260692733356	0
0	9511	1717.644667102017	1
0	9512	1717.860532804696	0
0	9523	1720.486979081113	1
0	9525	1720.538487367433	2
0	9527	1720.962407032157	3
0	9528	1721.017999746128	2
0	9533	1721.018476930651	1
0	9540	1721.851025816353	2
0	9543	1722.26062795618	1
0	9548	1722.560606239449	0
0	9585	1726.283150675513	1
0	9586	1727.271185906935	0
0	9598	1727.971703461662	1
0	9600	1728.084917462941	0
0	9635	1734.836165510049	1
0	9640	1736.575145305773	0
0	9662	1742.536881099381	1
0	9667	1747.345729126238	0
0	9682	1752.620747535489	1
0	9687	1754.236312962815	2
0	9688	1754.403964606463	1
0	9695	1755.670603613352	0
0	9706	1756.192507128455	1
0	9708	1756.501165962687	0
0	9715	1757.079833454314	1
0	9717	1757.150074642371	2
0	9720	1757.54402726757	3
0	9721	1757.887487323527	2
0	9726	1758.096182153909	1
0	9732	1758.337747783316	2
0	9735	1758.607681961811	3
0	9736	1759.131393893874	2
0	9741	1759.864782212104	1
0	9746	1760.807288192104	0
0	9760	1761.436591766349	1
0	9766	1763.624516241035	0
0	9783	1765.054710540771	1
0	9785	1765.594664703828	0
0	9791	1766.139929811915	1
0	9793	1766.18967628686	0
0	9804	1766.791810674062	1
0	9805	1766.885975751606	0
0	9811	1766.951930950009	1
0	9813	1766.993813677482	2
0	9817	1767.357379636895	3
0	9819	1768.577439232378	2
0	9825	1768.723495351672	3
0	9828	1769.811549761389	2
0	9837	1770.716708925746	3
0	9838	1770.778390860182	2
0	9844	1772.312948180595	3
0	9849	1772.800448728793	4
0	9850	1773.136474801548	3
0	9855	1773.159880015188	2
0	9859	1773.656451606957	3
0	9861	1773.761009106516	4
0	9865	1774.890212274562	5
0	9866	1775.070705299558	4
0	9871	1775.721451348738	3
0	9877	1776.439246936475	4
0	9881	1777.538455513229	3
0	9887	1777.986671511036	2
0	9892	1778.363488661247	1
0	9896	1778.535172728894	2
0	9898	1779.896211391894	3
0	9905	1782.648308970528	2
0	9915	1784.13895021788	3
0	9921	1786.600421667856	2
0	9928	1787.763557167504	1
0	9934	1787.785814207373	2
0	9936	1788.160939612939	1
0	9941	1788.733394976453	0
0	9966	1792.018024139447	1
0	9967	1792.071358567739	0
0	9992	1794.259344468073	1
0	9993	1794.644372641293	0
0	9999	1794.886193192746	1
0	10000	1795.120635203833	0
0	10004	1795.283652304003	1
0	10007	1796.381542591753	0
0	10040	1799.544036730449	1
0	10041	1799.734366250548	0
0	10048	1802.640762359032	1
0	10053	1805.247026325067	0
0	10066	1805.918160813501	1
0	10068	1806.473420476299	0
0	10074	1806.499850054242	1
0	10076	1807.124897989524	0
0	10083	1807.280779378583	1
0	10084	1807.554635602782	0
0	10088	1807.812407208801	1
0	10091	1808.435930137516	0
0	10103	1811.023696563544	1
0	10107	1811.813881472123	0
0	10113	1811.969645790698	1
0	10115	1813.316233306172	2
0	10116	1813.344070376493	1
0	10121	1813.483348403622	0
0	10172	1821.502738133856	1
0	10174	1821.953097568829	2
0	10177	1823.211151535088	1
0	10185	1823.497861900755	0
0	10191	1823.773970903491	1
0	10192	1823.859990139865	0
0	10209	1825.574132894769	1
0	10213	1827.77252850486	0
0	10229	1829.227978423611	1
0	10231	1830.686684663111	0
0	10237	1830.832254159249	1
0	10240	1831.828368236651	2
0	10244	1832.913003816168	3
0	10248	1833.730664156545	4
0	10250	1833.746123976898	5
0	10252	1833.817004725412	4
0	10257	1834.167146685282	3
0	10263	1834.254301509177	4
0	10265	1834.377450815907	5
0	10268	1834.558366615059	4
0	10274	1835.179493452839	5
0	10275	1835.328324849373	4
0	10281	1835.353810481866	5
0	10282	1835.648742355223	4
0	10286	1835.920996484559	5
0	10290	1836.737072960588	6
0	10294	1838.132114012422	7
0	10295	1838.773305548689	6
0	10300	1840.507845201657	5
0	10304	1840.834149001662	6
0	10307	1843.123359334353	5
0	10313	1844.479382440149	4
0	10318	1844.972784154609	3
0	10324	1846.01154827879	2
0	10331	1846.769240684377	1
0	10336	1847.18451912873	0
0	10356	1849.211630179894	1
0	10357	1849.237470953965	0
0	10361	1850.679651622324	1
0	10364	1850.855879706068	0
0	10378	1851.494452002192	1
0	10379	1852.396719948707	0
0	10383	1852.82249508858	1
0	10386	1853.77771749085	0
0	10390	1853.800468845015	1
0	10393	1854.039828513899	0
0	10415	1858.000382497888	1
0	10417	1858.029973995203	2
0	10420	1858.70395448389	1
0	10427	1860.423738954208	0
0	10464	1866.431825501902	1
0	10465	1866.514407254327	0
0	10471	1866.559063912754	1
0	10474	1867.66545583034	2
0	10475	1867.920337659372	1
0	10480	1867.994707802426	0
0	10527	1876.92314881474	1
0	10532	1877.466324821333	0
0	10546	1877.913527789471	1
0	10548	1878.080015866171	2
0	10549	1878.737671116721	1
0	10554	1878.818504157699	0
0	10577	1883.794837162366	1
0	10578	1884.557588904994	0
0	10598	1886.310072583397	1
0	10599	1887.196844877857	0
0	10605	1887.991961940549	1
0	10608	1889.253178613927	0
0	10619	1889.835409006266	1
0	10621	1890.03372123497	2
0	10622	1890.311942765643	1
0	10627	1890.665713793478	0
0	10639	1892.858990890617	1
0	10640	1892.863015841369	0
0	10652	1893.489063321912	1
0	10655	1894.80890311147	2
0	10656	1894.824529773467	1
0	10662	1895.207836725855	0
0	10668	1896.784184511325	1
0	10669	1897.647501157561	0
0	10679	1898.707841308627	1
0	10682	1899.857606706563	0
0	10689	1900.826410496087	1
0	10691	1900.838104268093	2
0	10692	1901.207139475459	1
0	10697	1901.355712226212	0
0	10728	1903.581272526484	1
0	10729	1904.274620398858	0
0	10736	1904.473154594675	1
0	10737	1904.555894843078	0
0	10745	1905.411535473969	1
0	10746	1905.610597503337	0
0	10768	1906.82063356649	1
0	10772	1907.980597615745	0
0	10792	1911.06974847726	1
0	10798	1911.841638167348	2
0	10799	1912.49815490689	1
0	10805	1912.822664129291	2
0	10806	1912.962158461364	1
0	10813	1914.85703976327	2
0	10815	1914.872895989257	3
0	10817	1916.035910988666	2
0	10823	1916.210849392388	3
0	10826	1917.74480116051	4
0	10828	1917.866756543243	5
0	10834	1920.263868043814	6
0	10835	1920.291956458658	5
0	10840	1920.79170297093	4
0	10847	1921.279747507356	5
0	10851	1922.800204877879	6
0	10852	1923.649637237892	5
0	10857	1923.839440218307	4
0	10862	1924.465086352494	3
0	10867	1924.687266218448	2
0	10872	1925.124975456098	1
0	10876	1926.010794986478	2
0	10879	1926.983246886795	1
0	10883	1927.902217068289	2
0	10889	1928.958303646608	1
0	10894	1929.001587838135	0
0	10923	1931.479319310053	1
0	10925	1932.219757632525	2
0	10928	1932.809802447256	1
0	10933	1933.117932866739	0
0	10944	1934.510593892913	1
0	10946	1935.066278351042	0
0	10956	1937.199120313632	1
0	10957	1937.879267011803	0
0	10971	1939.397552673388	1
0	10972	1939.405272593496	0
0	10986	1940.580161657887	1
0	10987	1940.617719868792	0
0	11012	1943.690556110346	1
0	11015	1944.321701996411	0
0	11021	1945.070737985009	1
0	11023	1945.199535353534	2
0	11031	1948.574048030417	3
0	11032	1948.74568467563	2
0	11036	1949.289898484213	3
0	11040	1949.698060321303	4
0	11042	1950.057767144862	5
0	11044	1950.920324795917	6
0	11047	1951.598800742338	5
0	11052	1952.188709332625	4
0	11060	1953.105329709289	3
0	11065	1953.202687258253	2
0	11071	1954.702897747927	3
0	11076	1956.758713949931	2
0	11082	1956.95320319398	1
0	11089	1959.919842721613	0
0	11095	1961.08733023197	1
0	11097	1961.684984143212	2
0	11098	1961.915728818563	1
0	11102	1962.719722693967	2
0	11104	1963.214259566819	3
0	11111	1965.343890435234	2
0	11116	1965.742107062185	1
0	11122	1966.743415455101	2
0	11123	1966.846251174959	1
0	11128	1967.273262579375	0
0	11149	1971.757955266057	1
0	11150	1971.806633871931	0
0	11183	1977.337286407099	1
0	11186	1978.299234678125	0
0	11194	1978.558255658868	1
0	11199	1979.917514575105	0
0	11211	1980.875539508175	1
0	11212	1982.282693367579	0
0	11223	1982.325625203794	1
0	11224	1982.679812361402	0
0	11230	1982.899481362282	1
0	11231	1982.980117786691	0
0	11250	1985.266939658617	1
0	11251	1985.540225335181	0
0	11260	1986.551778921072	1
0	11262	1987.147716686765	2
0	11263	1987.512697906032	1
0	11268	1987.87965955633	0
0	11304	1992.065710251794	1
0	11311	1993.894092168352	0
0	11330	1996.821626434666	1
0	11331	1997.3042142882	0
0	11344	1998.062973115742	1
0	11345	1998.328920097776	0
0	11352	1998.778258350714	1
0	11353	1999.163830009485	0
0	11364	1999.909753241688	1
0	11365	2000.217757318178	0
0	11386	2002.157320124564	1
0	11388	2003.744499736284	2
0	11390	2003.816186207087	3
0	11392	2004.234168151192	4
0	11394	2006.501228901927	5
0	11398	2007.138393436517	4
0	11404	2007.217497947304	5
0	11405	2007.228112669028	4
0	11410	2009.344383485737	3
0	11418	2010.719405942407	2
0	11424	2012.488234861163	3
0	11426	2012.743897392852	4
0	11429	2014.033242352849	5
0	11434	2015.022733433341	6
0	11435	2015.629542326362	5
0	11440	2015.784798065992	4
0	11446	2016.310099267447	5
0	11447	2016.619963859799	4
0	11451	2017.843432344686	5
0	11455	2018.376268891224	6
0	11458	2020.688109159795	5
0	11464	2020.886501617928	6
0	11465	2021.154864441698	5
0	11469	2021.50930758671	6
0	11475	2022.266391190782	7
0	11477	2022.548796677282	8
0	11480	2024.680422244644	7
0	11486	2025.908408450421	8
0	11492	2027.694472170788	7
0	11498	2028.566653635345	8
0	11499	2028.649622935912	7
0	11510	2032.120058973655	6
0	11515	2032.755234822059	5
0	11520	2033.694803019164	4
0	11524	2033.744256413666	5
0	11527	2035.217898935658	4
0	11533	2036.160778308614	5
0	11536	2037.07489475305	4
0	11542	2037.807911037235	3
0	11547	2037.969441982233	2
0	11553	2038.265021061774	1
0	11560	2040.487470771427	0
0	11573	2040.879605174815	1
0	11576	2041.844681405347	0
0	11608	2048.452404931314	1
0	11609	2048.724001858607	0
0	11617	2048.975635122593	1
0	11619	2049.166949970382	2
0	11621	2049.503962131369	3
0	11622	2049.639466361438	2
0	11631	2050.293501649511	1
0	11637	2051.590521245494	0
0	11670	2061.032752754309	1
0	11673	2061.704785514053	0
0	11679	2062.238625057426	1
0	11681	2062.355773789091	2
0	11683	2062.390754022393	3
0	11684	2063.060513881935	2
0	11690	2063.171291050043	3
0	11692	2063.20889952474	4
0	11694	2064.201547353754	3
0	11700	2064.471953306389	2
0	11707	2065.532102108366	1
0	11712	2065.758690138663	0
0	11718	2066.059612310887	1
0	11719	2066.068905047576	0
0	11731	2068.666417016505	1
0	11733	2068.899504424253	2
0	11735	2069.106031204199	3
0	11740	2070.741473843389	4
0	11742	2070.923296688448	3
0	11747	2071.012786795401	2
0	11754	2071.543690326653	1
0	11759	2072.354256938682	0
0	11763	2072.727731954871	1
0	11766	2074.018899536296	0
0	11809	2079.896532351973	1
0	11814	2080.506597071662	0
0	11825	2081.132594108096	1
0	11826	2081.148104327634	0
0	11844	2083.358853803997	1
0	11846	2083.480405744551	2
0	11850	2084.847433330626	1
0	11855	2085.332079951693	0
0	11869	2086.904684628981	1
0	11875	2089.149788943641	0
0	11896	2093.5802395036	1
0	11898	2094.014916075481	2
0	11900	2094.600005320798	1
0	11906	2094.981479267704	2
0	11907	2094.996737172571	1
0	11914	2097.201485500384	0
0	11930	2097.923516849174	1
0	11931	2097.995044461929	0
0	11943	2098.58291510639	1
0	11945	2098.912450328608	0
0	11965	2100.653677202413	1
0	11967	2100.661422272454	2
0	11968	2100.737981238542	1
0	11973	2100.768545740765	0
0	11979	2100.948313015986	1
0	11980	2100.992071190188	0
0	11988	2102.299428825066	1
0	11990	2102.618041805298	0
0	11999	2104.527586535913	1
0	12001	2104.83931363844	2
0	12002	2105.361552626106	1
0	12007	2106.757874344142	0
0	12020	2108.175357403491	1
0	12022	2108.610261444577	2
0	12023	2108.658711174408	1
0	12030	2109.269936051371	0
0	12039	2110.089122921512	1
0	12041	2110.169539493266	2
0	12043	2110.97593057472	1
0	12049	2111.018960354213	2
0	12050	2111.520038991955	1
0	12057	2112.418438797809	0
0	12070	2113.090511825387	1
0	12071	2113.251529973086	0
0	12080	2113.830093515688	1
0	12088	2116.907021225767	2
0	12090	2117.378544367612	3
0	12091	2118.139449963148	2
0	12096	2118.309436139819	1
0	12101	2119.008426768143	0
0	12111	2119.677762882857	1
0	12112	2120.4385791338	0
0	12119	2122.37755353376	1
0	12120	2122.499561785782	0
0	12128	2123.71483859336	1
0	12132	2125.54486386092	2
0	12133	2127.996942833904	1
0	12138	2128.25130402478	0
0	12151	2128.881122009253	1
0	12157	2130.636480695118	0
0	12173	2132.325000875638	1
0	12175	2134.133803387088	0
0	12199	2135.923817773117	1
0	12203	2136.84052939382	0
0	12210	2137.941482739499	1
0	12214	2139.14372487934	0
0	12258	2144.560840604513	1
0	12261	2145.055744510974	0
0	12272	2148.939078150489	1
0	12276	2149.711307251484	2
0	12278	2150.325240394152	3
0	12279	2151.230198743615	2
0	12286	2151.767042146486	1
0	12293	2152.665943988351	0
0	12305	2153.887659664388	1
0	12307	2155.00171488565	0
0	12313	2155.430479439033	1
0	12314	2155.436175226589	0
0	12320	2155.455844273683	1
0	12321	2155.906050506562	0
0	12328	2156.690698779312	1
0	12331	2157.452124350816	0
0	12342	2158.400687018812	1
0	12343	2160.000005737943	0
0	12356	2162.786825429534	1
0	12359	2163.762766634125	0
0	12376	2167.763749577334	1
0	12377	2167.839233736015	0
0	12389	2168.737544679026	1
0	12391	2169.011043050775	2
0	12394	2169.524178211341	3
0	12398	2170.104172139684	4
0	12399	2170.240911294204	3
0	12405	2171.711710714139	4
0	12407	2172.748148389231	3
0	12411	2173.243032383816	4
0	12415	2175.708920309676	3
0	12421	2176.877758403756	4
0	12424	2177.192048239162	3
0	12429	2177.889332770853	2
0	12437	2180.118242746782	1
0	12443	2181.236683400304	0
0	12522	2198.434184817191	1
0	12527	2200.938493747859	2
0	12531	2201.339123086336	3
0	12532	2201.813010450686	2
0	12537	2202.036290732191	1
0	12543	2202.133687004475	2
0	12544	2202.381887368502	1
0	12549	2203.922721229331	0
0	12555	2204.039971550882	1
0	12556	2204.24031483415	0
0	12560	2206.046314728562	1
0	12563	2207.072174207879	0
0	12567	2207.785567901643	1
0	12570	2208.049254407001	0
0	12576	2208.246225957257	1
0	12578	2208.464471051505	2
0	12579	2208.697269471306	1
0	12583	2209.006133971545	2
0	12587	2209.603269555862	1
0	12592	2210.816539177907	0
0	12601	2212.891145690156	1
0	12602	2214.622201486893	0
0	12613	2214.96567294323	1
0	12614	2214.990527730313	0
0	12622	2215.970395731354	1
0	12629	2217.723144709902	0
0	12640	2218.635385828584	1
0	12642	2218.802223811966	2
0	12644	2218.861628918496	3
0	12646	2219.568540581103	2
0	12656	2222.012705719258	1
0	12662	2223.222581691569	2
0	12666	2223.566279630259	3
0	12668	2224.100751823287	4
0	12670	2224.541013565911	5
0	12675	2225.500151658952	4
0	12679	2225.704475604444	5
0	12682	2226.358299708668	4
0	12688	2227.904930365512	5
0	12692	2228.87273432051	6
0	12694	2229.749458415621	5
0	12699	2229.809708584155	4
0	12704	2230.049488269121	3
0	12709	2230.750697019308	2
0	12718	2234.623320543692	3
0	12721	2235.204076437192	2
0	12727	2235.711646920237	1
0	12732	2237.271909994569	0
0	12738	2239.862401531495	1
0	12743	2241.797292473883	0
0	12747	2242.547721809431	1
0	12749	2242.867421356338	2
0	12755	2244.241587198617	3
0	12756	2245.493961159804	2
0	12760	2245.757623904466	3
0	12765	2247.896218254071	2
0	12771	2248.184349486464	3
0	12772	2248.23076071746	2
0	12777	2248.469841234928	1
0	12781	2249.815926749177	2
0	12784	2250.698811758565	1
0	12789	2252.395423435596	0
0	12793	2253.19921172001	1
0	12795	2253.719959160122	2
0	12797	2254.323851846851	3
0	12801	2255.138434609068	2
0	12806	2255.247403014684	1
0	12815	2256.652134147483	0
0	12821	2257.568162489944	1
0	12823	2257.855754622245	2
0	12824	2257.934109487153	1
0	12828	2258.841847018694	2
0	12832	2259.226294207193	3
0	12833	2259.515883459766	2
0	12841	2260.287354809015	3
0	12842	2260.595591606039	2
0	12846	2261.0046739699	3
0	12849	2262.345568902328	2
0	12854	2262.967299518956	1
0	12858	2263.046864488557	2
0	12860	2264.519861733114	3
0	12866	2265.957877465433	4
0	12867	2266.931132166134	3
0	12874	2268.555755816843	2
0	12879	2269.154785095847	1
0	12883	2269.576414240664	2
0	12885	2270.529807170271	3
0	12887	2271.75349382045	4
0	12892	2272.489079220758	3
0	12896	2274.045216960881	4
0	12899	2278.363417444528	3
0	12907	2279.441727185067	4
0	12912	2280.005215046271	3
0	12920	2280.479787760561	2
0	12925	2280.870787282015	1
0	12931	2281.057474026151	2
0	12936	2283.395758133155	1
0	12942	2284.510426995505	2
0	12944	2284.586122606218	3
0	12946	2284.984455630134	4
0	12947	2285.791544869824	3
0	12951	2286.246820058946	4
0	12955	2287.527044119076	5
0	12957	2288.010751155619	6
0	12959	2288.010877845579	7
0	12960	2288.484620841323	6
0	12965	2289.176958744748	5
0	12969	2289.678191125126	6
0	12975	2291.261846022841	7
0	12977	2291.47221150132	8
0	12978	2294.021617691971	7
0	12985	2297.991717038671	6
0	12993	2298.565985169013	7
0	12995	2299.552726767233	6
0	13001	2299.694640234218	7
0	13002	2299.697792016439	6
0	13007	2300.441584364098	5
0	13014	2302.520685091835	4
0	13020	2305.10721717539	5
0	13022	2305.411914850075	6
0	13024	2307.356380253019	7
0	13026	2307.808492703551	8
0	13028	2309.043825175677	9
0	13031	2309.915819333334	8
0	13035	2311.694065622263	9
0	13041	2312.712514797429	10
0	13043	2312.83687496953	11
0	13045	2313.61344300215	12
0	13046	2314.093887431891	11
0	13056	2315.930197883122	12
0	13058	2316.081248337721	13
0	13060	2316.87990335719	14
0	13069	2318.400699656949	15
0	13071	2318.453513884854	16
0	13075	2319.544911679488	15
0	13081	2319.675549568627	16
0	13082	2320.376813973703	15
0	13088	2320.807999665758	16
0	13092	2322.263471538775	15
0	13097	2322.496010945529	14
0	13105	2322.57043857367	15
0	13107	2322.741829275183	16
0	13114	2323.506333456851	17
0	13116	2324.022350221039	18
0	13118	2324.754667412876	19
0	13119	2325.664626941713	18
0	13124	2326.307233994017	17
0	13129	2326.418558759984	16
0	13133	2326.637859003698	17
0	13135	2326.663219541092	18
0	13137	2328.458219014463	19
0	13141	2329.985997164517	20
0	13146	2331.509035634137	21
0	13147	2332.253712343012	20
0	13156	2333.060188359367	21
0	13157	2333.474287027501	20
0	13163	2333.790565020517	21
0	13166	2334.627737472499	20
0	13172	2335.03515946621	19
0	13177	2335.138451258112	18
0	13181	2337.310049389449	19
0	13186	2338.629147162329	18
0	13193	2342.002493176689	17
0	13197	2342.075733957473	18
0	13202	2343.396330010329	17
0	13206	2343.751367757604	18
0	13210	2344.285776806594	19
0	13212	2344.599175379798	20
0	13214	2345.158820922103	21
0	13216	2345.179689775782	22
0	13218	2346.007384135783	23
0	13220	2346.636512592938	24
0	13222	2347.025442867193	25
0	13224	2347.488503716441	26
0	13227	2349.934640292155	25
0	13232	2350.616517807526	24
0	13237	2351.251582131602	23
0	13243	2351.850475454918	24
0	13246	2352.586545312581	25
0	13247	2353.573735378427	24
0	13252	2353.66637449042	23
0	13257	2355.085255363542	22
0	13264	2358.784991290212	21
0	13268	2358.926948218881	22
0	13272	2360.620632023139	21
0	13277	2360.67014757343	20
0	13284	2362.044302154633	19
0	13289	2362.444272874977	18
0	13293	2363.38107974388	19
0	13299	2364.437881605209	18
0	13305	2364.496444702898	19
0	13309	2365.680606957972	18
0	13314	2365.682840801343	17
0	13324	2366.231534168798	18
0	13325	2367.059642942412	17
0	13330	2367.506897282288	16
0	13337	2367.781645042345	15
0	13345	2368.852162860119	16
0	13346	2368.944590126652	15
0	13352	2369.027684893563	16
0	13360	2371.148669657221	17
0	13362	2372.412831042742	18
0	13363	2372.536813155499	17
0	13369	2373.19527221986	18
0	13370	2373.23310033118	17
0	13375	2373.425284452393	16
0	13383	2374.913069763619	15
0	13388	2375.830740870042	14
0	13397	2378.470738799455	13
0	13402	2378.56684020393	12
0	13406	2379.646953909174	13
0	13408	2380.238831620305	14
0	13411	2380.949188945202	13
0	13417	2382.428852559553	14
0	13419	2382.844584563873	15
0	13422	2385.24568322919	14
0	13427	2386.664522162874	13
0	13433	2387.676943457678	14
0	13438	2389.754662438383	15
0	13439	2390.050046558226	14
0	13449	2390.984178206952	13
0	13455	2391.846286381753	12
0	13465	2393.057461702251	11
0	13471	2393.347766045595	12
0	13472	2394.20173969983	11
0	13480	2396.210402429829	10
0	13487	2396.898055672214	9
0	13497	2397.632603538682	10
0	13500	2398.324041855433	11
0	13501	2398.482109843499	10
0	13506	2398.507281151146	9
0	13514	2399.222428439209	10
0	13515	2399.526363385506	9
0	13520	2401.115500790908	8
0	13526	2402.292034736576	7
0	13531	2404.180006080807	6
0	13540	2406.963700352171	5
0	13545	2409.884072130985	4
0	13551	2411.00218618378	5
0	13554	2411.438304888294	4
0	13558	2411.706960776135	5
0	13561	2413.239515863719	4
0	13567	2413.475662405896	5
0	13568	2414.284138304	4
0	13573	2415.724087823921	3
0	13579	2417.825479143568	2
0	13585	2418.663317170711	1
0	13590	2418.719545582522	0
0	13597	2419.105478106836	1
0	13599	2419.903697027282	0
0	13605	2420.128975047584	1
0	13606	2420.132657062757	0
0	13618	2420.989418178529	1
0	13619	2422.56473535369	0
0	13636	2424.238939149224	1
0	13638	2424.872326092297	2
0	13641	2425.576861168267	3
0	13642	2425.690234364703	2
0	13648	2427.465733715059	3
0	13652	2428.102523839623	4
0	13655	2428.699904884754	3
0	13660	2431.188517234625	2
0	13666	2431.584977157883	3
0	13668	2431.629188172294	4
0	13670	2431.777726321178	3
0	13676	2432.576451695015	2
0	13681	2433.575887624977	1
0	13688	2436.305983728331	2
0	13689	2438.144171603036	1
0	13694	2438.315869584193	0
0	13700	2439.085517670672	1
0	13701	2439.37302527428	0
0	13713	2440.973678180697	1
0	13717	2441.261381427731	2
0	13719	2442.292987582343	3
0	13721	2442.298070254126	4
0	13722	2443.426708171282	3
0	13727	2444.338184990808	2
0	13731	2445.457196647037	3
0	13736	2448.902820227124	2
0	13740	2449.510276966563	3
0	13742	2449.576617423956	4
0	13745	2449.61273907432	3
0	13751	2450.951726226067	4
0	13757	2453.531710222996	5
0	13760	2455.203013881668	4
0	13766	2458.004916276908	3
0	13771	2459.12937984774	2
0	13776	2460.024353765043	1
0	13781	2460.873542459989	0
0	13826	2469.884181430772	1
0	13830	2470.999064152668	2
0	13832	2471.371259838843	3
0	13833	2471.883748432882	2
0	13838	2472.467148418156	1
0	13844	2472.861707038047	2
0	13845	2473.197902593973	1
0	13855	2474.299550805262	2
0	13857	2474.508950938992	3
0	13858	2474.648944457417	2
0	13863	2474.815566189443	1
0	13868	2474.819980556411	0
0	13882	2476.743964539987	1
0	13884	2477.520519309093	0
0	13888	2477.684626484574	1
0	13893	2478.476144645748	0
0	13910	2479.701617060041	1
0	13911	2479.703421645741	0
0	13919	2480.974678647588	1
0	13921	2481.024390413261	2
0	13923	2481.693656778337	1
0	13927	2483.026573367177	2
0	13933	2485.664925090719	1
0	13939	2486.727734022454	0
0	13956	2489.182639684658	1
0	13957	2489.195604938322	0
0	13982	2492.578055334464	1
0	13983	2493.192401178207	0
0	14005	2497.415596557857	1
0	14006	2497.834778842291	0
0	14026	2500.275026482502	1
0	14030	2500.872210997112	2
0	14032	2501.622448770035	3
0	14035	2502.369482688409	4
0	14037	2502.387784719416	5
0	14038	2503.232287199353	4
0	14045	2504.813237751932	5
0	14046	2505.052021109021	4
0	14053	2505.373571129885	5
0	14055	2505.749109334644	4
0	14060	2505.901735922172	3
0	14065	2506.198324826919	2
0	14070	2506.7116696714	1
0	14075	2507.274867365787	0
0	14079	2507.708093518512	1
0	14082	2510.186782321779	0
0	14094	2512.537633252862	1
0	14096	2512.859496904847	0
0	14110	2513.284598049422	1
0	14112	2515.882838581846	2
0	14117	2517.462256101058	1
0	14126	2519.652267226566	0
0	14154	2524.892599873947	1
0	14156	2525.469252247875	2
0	14159	2526.545250849192	1
0	14164	2526.644319153116	0
0	14175	2528.189294643551	1
0	14177	2528.809477842013	2
0	14179	2528.934095918217	3
0	14182	2530.964071974662	2
0	14188	2531.835106570558	1
0	14193	2532.00741361883	0
0	14203	2532.469039072063	1
0	14209	2534.043887608749	2
0	14212	2534.523970901063	1
0	14217	2534.787864671777	0
0	14232	2537.273059353686	1
0	14233	2537.918227700121	0
0	14237	2538.043114831392	1
0	14242	2539.774573594278	0
0	14254	2541.383089668099	1
0	14255	2542.038207198143	0
0	14267	2543.333359510952	1
0	14269	2543.703303931619	0
0	14285	2545.852500597738	1
0	14290	2547.178321969473	0
0	14296	2547.454505323477	1
0	14297	2548.020636097161	0
0	14319	2550.905362156436	1
0	14323	2551.888657379212	2
0	14324	2553.144181379996	1
0	14334	2555.266044431888	2
0	14336	2555.639995488942	1
0	14342	2556.480702387735	0
0	14352	2557.968203352399	1
0	14358	2558.879543183131	2
0	14360	2559.219292917939	3
0	14361	2560.011492737831	2
0	14366	2560.012508830847	1
0	14371	2560.060841087809	0
0	14383	2561.42168949587	1
0	14384	2561.698979276089	0
0	14402	2564.625050278055	1
0	14406	2564.817187592735	2
0	14407	2564.827858224518	1
0	14413	2565.160594944702	2
0	14417	2566.046407958285	1
0	14422	2566.629927945048	0
0	14435	2567.804779675973	1
0	14436	2568.268978734658	0
0	14450	2570.279748354874	1
0	14451	2570.615883714049	0
0	14457	2571.934002927016	1
0	14460	2572.276351681767	0
0	14474	2573.819603299722	1
0	14476	2574.448248217713	0
0	14484	2575.483438703715	1
0	14486	2575.969792555943	2
0	14487	2576.587823541921	1
0	14493	2576.60555241378	2
0	14496	2577.077932381443	3
0	14498	2577.192784281191	4
0	14499	2577.633307034779	3
0	14504	2577.898538011348	2
0	14510	2578.915172330228	3
0	14511	2579.50288696551	2
0	14515	2579.535763946408	3
0	14518	2582.222213569852	2
0	14522	2582.445844911595	3
0	14524	2583.746733127466	4
0	14528	2584.613123052958	5
0	14532	2586.165252917993	6
0	14534	2586.349030521965	7
0	14540	2586.851164872122	8
0	14543	2587.905131009016	7
0	14548	2589.69350638613	6
0	14552	2589.701086633481	7
0	14559	2595.502354907945	8
0	14560	2595.811106151912	7
0	14565	2596.023726968853	6
0	14571	2597.65488378673	7
0	14574	2599.580287210293	6
0	14578	2600.308333860606	7
0	14581	2600.537798595218	6
0	14587	2604.310099991152	7
0	14591	2604.733143660111	8
0	14592	2605.17352599936	7
0	14598	2605.888493684693	8
0	14600	2606.046361555661	9
0	14603	2606.705192524692	8
0	14609	2607.798705528347	9
0	14613	2608.599400816015	10
0	14615	2608.907648066793	11
0	14617	2609.06287200264	12
0	14619	2609.281175075022	13
0	14622	2610.710266643195	12
0	14627	2611.457689291426	11
0	14633	2614.274184237765	12
0	14634	2614.489114776858	11
0	14638	2614.750083641298	12
0	14642	2615.645415031614	13
0	14643	2615.651791874375	12
0	14653	2618.572323519034	13
0	14656	2619.242835900982	14
0	14657	2620.247396155154	13
0	14663	2620.25634021241	14
0	14664	2620.667574993982	13
0	14670	2621.360218806743	14
0	14671	2621.416244741056	13
0	14676	2621.585848018832	12
0	14681	2624.011526692687	11
0	14688	2625.793807854468	10
0	14693	2626.489238386207	9
0	14701	2628.718134320722	10
0	14702	2628.873829264036	9
0	14706	2629.06768494185	10
0	14710	2630.20418393405	11
0	14712	2631.108598745951	12
0	14713	2631.333112404079	11
0	14718	2631.779815766997	10
0	14723	2633.198588991692	9
0	14727	2633.352484447472	10
0	14730	2634.651068741382	9
0	14735	2635.200613747347	8
0	14739	2635.979754491756	9
0	14743	2636.204094858589	10
0	14748	2637.146401194634	9
0	14752	2639.494128070456	10
0	14755	2640.682728816593	9
0	14759	2641.002771631171	10
0	14762	2642.138776623524	9
0	14766	2642.682987269314	10
0	14768	2643.213320051921	11
0	14773	2644.581784868102	10
0	14779	2646.939288172708	11
0	14783	2647.498114863456	12
0	14784	2649.956953453707	11
0	14789	2650.890502946657	10
0	14796	2651.745520604738	9
0	14802	2651.877640404033	10
0	14805	2652.465696291071	11
0	14808	2652.928335134034	10
0	14814	2654.060479585476	9
0	14820	2654.487633978782	10
0	14821	2654.916053286418	9
0	14827	2655.18655377353	10
0	14828	2656.25004496674	9
0	14832	2656.388424128523	10
0	14834	2656.468832251304	11
0	14837	2656.965631823872	10
0	14843	2658.309468307033	11
0	14845	2658.823507717984	12
0	14848	2659.661693565541	11
0	14853	2659.886204072433	10
0	14862	2665.577297474021	9
0	14866	2666.060009534112	10
0	14872	2667.627313478838	11
0	14877	2668.159192050555	10
0	14881	2669.918128175723	11
0	14883	2670.88017772068	12
0	14886	2671.900648019962	11
0	14892	2673.44334214034	12
0	14893	2673.826569514479	11
0	14899	2676.358197088555	12
0	14900	2677.052463154923	11
0	14909	2679.085791682161	12
0	14910	2679.123798446574	11
0	14915	2679.204944843444	10
0	14921	2680.74681635336	9
0	14926	2680.821851963267	8
0	14930	2681.05824647612	9
0	14936	2681.864556474663	10
0	14937	2682.657805250521	9
0	14943	2682.959581436901	8
0	14948	2683.064606350645	7
0	14952	2684.009210090413	8
0	14955	2684.235486486744	7
0	14962	2685.90403011384	8
0	14965	2687.694679405837	9
0	14968	2689.206264295054	8
0	14973	2689.532585293702	7
0	14978	2689.726770874352	6
0	14985	2690.976171481713	7
0	14986	2691.322259240083	6
0	14991	2691.511843510242	5
0	14997	2692.529503792569	6
0	14999	2693.034489077424	7
0	15003	2695.54045091366	8
0	15004	2695.779448022701	7
0	15008	2696.742189741809	8
0	15010	2696.742759596823	9
0	15016	2699.546600586905	8
0	15022	2700.180880233226	7
0	15027	2700.574150341049	6
0	15034	2702.712107479817	5
0	15043	2704.368139797633	4
0	15048	2704.802673753817	3
0	15053	2705.611400180875	2
0	15057	2705.617353162245	3
0	15059	2705.990529877042	4
0	15062	2706.986539628193	3
0	15068	2709.592510519872	2
0	15074	2709.604411100838	3
0	15075	2709.70433236928	2
0	15079	2709.938325962086	3
0	15081	2710.719277763781	4
0	15083	2711.160104360233	5
0	15085	2711.717946574652	6
0	15088	2713.284937952556	5
0	15095	2714.051075196695	4
0	15099	2715.054801489354	5
0	15101	2716.24942678744	6
0	15103	2716.76591295021	7
0	15106	2717.035696147267	6
0	15110	2717.458946334208	7
0	15112	2717.695089168621	8
0	15114	2719.109487966881	9
0	15117	2720.2372076943	8
0	15127	2721.759920007627	9
0	15131	2722.856957745865	8
0	15136	2723.06638403065	7
0	15143	2723.546346316044	6
0	15149	2723.609188170325	7
0	15150	2723.848605417296	6
0	15155	2724.105242478219	5
0	15159	2724.156507789877	6
0	15162	2724.895871103239	5
0	15167	2725.54919571058	4
0	15174	2728.680387030567	3
0	15180	2733.220459679908	4
0	15182	2736.331977273503	5
0	15184	2737.197202248423	6
0	15186	2738.56163323921	7
0	15192	2739.426893217342	8
0	15194	2739.664116617804	7
0	15199	2739.944096803743	6
0	15207	2741.649462039177	7
0	15208	2742.474946964369	6
0	15213	2742.972079156599	5
0	15218	2744.323108051086	4
0	15222	2744.68347884971	5
0	15227	2744.913743814648	4
0	15236	2746.100594209991	3
0	15242	2747.040167194932	4
0	15243	2747.902557473682	3
0	15248	2749.030075540802	2
0	15253	2749.430188569823	1
0	15257	2750.160170356095	2
0	15261	2750.84101916667	3
0	15262	2751.762843334005	2
0	15269	2752.650211025693	1
0	15275	2754.083592275446	2
0	15276	2754.34955489052	1
0	15280	2754.439632368048	2
0	15283	2754.767954347959	1
0	15287	2754.911861779277	2
0	15289	2755.66563561469	3
0	15294	2757.399263858973	2
0	15299	2757.617767443555	1
0	15305	2758.39292804885	2
0	15306	2758.676000877358	1
0	15313	2761.592594919174	0
0	15321	2762.906977527699	1
0	15322	2764.810346282933	0
0	15346	2767.32981873211	1
0	15347	2767.476696478053	0
0	15353	2767.726547257461	1
0	15356	2768.1110358429	2
0	15357	2769.162557622776	1
0	15363	2769.733996223473	0
0	15370	2770.014096979661	1
0	15374	2770.625742733219	2
0	15375	2770.846736595963	1
0	15383	2772.429782755708	0
0	15422	2777.213289146146	1
0	15427	2780.504007319641	0
0	15447	2783.259593738837	1
0	15449	2784.826321648867	2
0	15452	2785.194864105649	1
0	15458	2785.246787619413	2
0	15459	2785.382217141961	1
0	15464	2785.523136048415	0
0	15479	2788.492259317955	1
0	15483	2789.114611572254	2
0	15484	2789.577736174967	1
0	15489	2789.680799370172	0
0	15505	2791.516865637557	1
0	15508	2793.785444814236	0
0	15525	2795.003192824683	1
0	15526	2795.092525068759	0
0	15537	2796.697677528524	1
0	15539	2797.501277205773	0
0	15552	2799.42475932451	1
0	15555	2801.563475172518	0
0	15577	2806.72835567987	1
0	15579	2807.197211274353	2
0	15582	2807.585149132571	1
0	15590	2808.122045178348	2
0	15593	2808.419704613359	1
0	15601	2809.501273274111	2
0	15602	2809.705264793934	1
0	15609	2810.479535367366	0
0	15615	2810.666300025924	1
0	15619	2810.940940499206	0
0	15625	2811.152080427533	1
0	15626	2811.206325588774	0
0	15638	2812.077747181716	1
0	15640	2812.357149159525	0
0	15651	2812.803221276599	1
0	15652	2814.157458241196	0
0	15664	2816.746601011218	1
0	15665	2817.333174820934	0
0	15680	2818.838985369655	1
0	15682	2818.873478819044	2
0	15684	2820.134675030472	3
0	15685	2820.40365867293	2
0	15691	2821.951567402382	1
0	15696	2822.294875333392	0
0	15713	2823.147886760843	1
0	15714	2823.329977152187	0
0	15731	2824.58841331398	1
0	15732	2824.845845551625	0
0	15751	2828.173961293056	1
0	15753	2829.078977913635	0
0	15762	2831.065372723648	1
0	15764	2831.736170885071	2
0	15770	2832.621892439062	3
0	15772	2832.790751686779	2
0	15777	2832.807631668732	1
0	15783	2832.885809011471	2
0	15786	2835.232393379485	3
0	15789	2836.031276577128	4
0	15791	2837.050785622934	3
0	15796	2837.062408879437	2
0	15804	2839.126795646448	1
0	15809	2839.508650950714	0
0	15843	2843.773605070515	1
0	15846	2844.697955315594	0
0	15882	2848.595051816105	1
0	15884	2848.733609602461	2
0	15886	2849.025449619147	3
0	15889	2850.809529866636	2
0	15896	2851.568894960331	3
0	15898	2852.232178296452	4
0	15899	2852.342440159364	3
0	15904	2852.370386305005	2
0	15909	2852.836627461895	1
0	15915	2853.016189540122	2
0	15916	2853.495117486669	1
0	15921	2853.898727999179	0
0	15935	2856.935385632655	1
0	15939	2857.819540336745	0
0	15961	2860.542846813798	1
0	15963	2861.035423604714	0
0	15990	2864.688724711621	1
0	15992	2865.133602569575	0
0	16003	2865.868556739584	1
0	16004	2866.435919831614	0
0	16016	2867.305937853209	1
0	16018	2868.663160241606	0
0	16029	2869.609468389545	1
0	16030	2869.698070276843	0
0	16072	2875.477288123985	1
0	16073	2875.655858692266	0
0	16088	2877.774209808636	1
0	16091	2877.977896501253	0
0	16103	2880.214630161812	1
0	16104	2880.307640556714	0
0	16117	2881.401401536046	1
0	16120	2882.329589744549	2
0	16122	2882.760795330575	3
0	16125	2883.265002921341	4
0	16126	2883.627131063588	3
0	16131	2883.764672820476	2
0	16136	2883.838120328672	1
0	16141	2884.143138362605	0
0	16147	2884.144971489049	1
0	16149	2884.225383766748	2
0	16157	2885.707257048848	3
0	16158	2885.723805371625	2
0	16163	2886.002388408775	1
0	16175	2888.455000423501	2
0	16176	2888.719356099724	1
0	16181	2888.996381108767	0
0	16198	2891.357798525877	1
0	16202	2892.371078279393	2
0	16204	2892.857414740422	1
0	16211	2893.440345353181	0
0	16223	2893.972863325482	1
0	16225	2894.383231724773	2
0	16226	2895.831445646525	1
0	16232	2896.327895643202	2
0	16235	2896.983790943014	1
0	16241	2897.563787623087	2
0	16243	2898.361306330622	3
0	16245	2898.60283550049	4
0	16246	2898.852397277562	3
0	16252	2899.720651822779	4
0	16254	2900.722932990775	3
0	16259	2901.11903129803	2
0	16264	2901.607852684328	1
0	16270	2902.763560108835	2
0	16278	2903.116726514644	3
0	16280	2903.150022748564	2
0	16285	2904.638505036867	1
0	16291	2905.587910404556	2
0	16295	2906.469775829492	1
0	16300	2906.998913484898	0
0	16337	2912.076197490448	1
0	16342	2912.940243172829	2
0	16343	2913.49176706042	1
0	16349	2914.472881535687	0
0	16375	2917.713671696724	1
0	16378	2917.773015766548	0
0	16384	2918.367292557249	1
0	16385	2919.166679917477	0
0	16406	2921.802204457973	1
0	16407	2921.850414940337	0
0	16423	2923.150457357695	1
0	16429	2926.649925549052	2
0	16430	2926.691647609145	1
0	16435	2927.274610102464	0
0	16451	2931.376449317928	1
0	16452	2931.853636058451	0
0	16458	2935.618386057685	1
0	16461	2936.953565650281	0
0	16467	2937.18787474494	1
0	16468	2937.240297321697	0
0	16474	2937.786690320568	1
0	16478	2938.532133399186	0
0	16490	2940.166597663689	1
0	16493	2940.861306573093	2
0	16494	2941.759528186188	1
0	16499	2941.788520385813	0
0	16519	2944.262110090043	1
0	16522	2944.939137380872	0
0	16549	2947.470412802542	1
0	16551	2948.033276113267	2
0	16554	2948.34253023754	3
0	16556	2948.718729150958	2
0	16562	2948.908575793644	3
0	16563	2948.910901212816	2
0	16568	2948.983721938431	1
0	16573	2949.174809687315	0
0	16580	2949.340416112288	1
0	16583	2949.452357904553	2
0	16585	2949.769243748786	1
0	16590	2950.243201805469	0
0	16638	2957.158164626293	1
0	16639	2957.740107204558	0
0	16659	2960.276133862648	1
0	16661	2960.747781711473	2
0	16666	2962.751758190786	3
0	16667	2963.596362264449	2
0	16672	2963.887102595774	1
0	16678	2963.911596495767	2
0	16685	2964.838753706745	3
0	16688	2965.213055665625	4
0	16689	2965.444495147536	3
0	16694	2965.880574741328	2
0	16700	2966.389948807125	1
0	16705	2967.877775112834	0
0	16731	2968.903962584059	1
0	16734	2969.698777744357	2
0	16738	2971.821514300393	1
0	16743	2971.919848199515	0
0	16754	2972.567711277776	1
0	16756	2972.990165684224	2
0	16758	2973.203349672361	1
0	16765	2975.064718253957	0
0	16769	2975.246734142987	1
0	16771	2975.552118240948	2
0	16775	2976.314668687435	3
0	16779	2976.375462715239	4
0	16783	2976.519048163819	3
0	16788	2976.922005327982	2
0	16792	2978.6153753082	3
0	16794	2978.83591370979	4
0	16799	2980.54420523746	3
0	16806	2981.379697593886	2
0	16812	2983.012777216461	3
0	16815	2983.969639121702	4
0	16818	2985.240546990368	5
0	16819	2985.473580367012	4
0	16825	2985.630397088337	3
0	16833	2985.914719041224	2
0	16838	2987.611955070916	1
0	16843	2989.789362540352	0
0	16847	2990.282741255094	1
0	16851	2990.3145540183	2
0	16852	2990.828940247637	1
0	16856	2991.354833469844	2
0	16861	2992.727755085293	1
0	16869	2995.027475930071	2
0	16870	2995.430777814835	1
0	16875	2995.843195074362	0
0	16887	2998.017117901125	1
0	16888	2998.115052703831	0
0	16899	2999.198143406951	1
0	16901	3000.645122495716	0
0	16939	3005.375973335916	1
0	16940	3008.137516468302	0
0	16949	3009.813450147173	1
0	16952	3010.906145536035	0
0	16963	3012.384842637361	1
0	16966	3013.443891125969	0
0	16990	3017.618517588929	1
0	16992	3018.0246792517	2
0	16994	3018.556647536466	3
0	16996	3018.932851748357	4
0	17000	3019.299411578159	3
0	17005	3019.321286021646	2
0	17011	3020.544710615151	1
0	17015	3021.092646460048	2
0	17017	3021.334121855176	3
0	17023	3022.774659816917	2
0	17029	3023.00341987471	1
0	17034	3024.977875605253	0
0	17040	3025.905765591372	1
0	17042	3026.072329638788	2
0	17044	3026.115318107003	3
0	17045	3026.124956532767	2
0	17050	3026.849285719544	1
0	17056	3027.285527063893	2
0	17058	3027.575235534437	3
0	17059	3028.710972485957	2
0	17065	3029.362056558545	3
0	17070	3030.436069492802	4
[...]
5	165769	29097.439876047257	11.041628133171
5	165775	29097.696317662223	7.606298700075
5	165780	29097.776785018543	7.524248211401
5	165791	29099.433451769285	6.731338559128
5	165796	29100.834814704297	7.790944092568
5	165806	29103.572273042545	10.085301032332
5	165813	29103.846251871204	6.464419721099
5	165820	29106.721867704595	8.361255980935
5	165825	29107.715874351174	9.162702170657
5	165830	29108.703964732768	10.101874978037
5	165836	29111.129114100161	9.64589513567
5	165858	29113.692684277263	1.088267793214
5	165873	29116.699152760183	3.30260969998
5	165905	29133.811067697385	19.879682094412
5	165914	29137.060783385456	22.869340446547
5	165925	29140.430467700451	26.128141885063
5	165932	29143.878005174564	28.730196402553
5	165945	29145.183444261005	28.954262784809
5	165950	29146.126595828674	25.712237881316
5	165955	29147.451655791967	24.751654167347
5	165962	29148.434975713834	23.876875275381
5	165967	29148.862774520117	22.335108325
5	165975	29149.404512224552	21.339220462814
5	165984	29151.730139863569	22.801055460055
5	165989	29152.018715594617	20.60452406633
5	165996	29153.929483578597	22.227228470269
5	166003	29158.665819459507	26.642349136276
5	166008	29159.012482998303	26.867342428629
5	166017	29165.45699608568	27.370165867637
5	166025	29166.198293906295	27.892818899526
5	166031	29166.852335756257	27.061240160078
5	166039	29169.328068891686	27.187796582413
5	166044	29169.434083026826	25.330726310426
5	166049	29170.722619387011	25.644312557159
5	166056	29172.830178095007	23.486778321342
5	166061	29173.310123626146	20.380712333382
5	166071	29174.206700984909	19.110383558838
5	166076	29174.235898968689	8.485259547648
5	166093	29178.155270464175	10.213020537494
5	166098	29179.071249496773	5.379498207883
5	166103	29180.486327379968	6.304410174105
5	166108	29181.261753253586	6.80563781091
5	166115	29182.430522194678	7.329673571031
5	166123	29184.789199164076	8.847064502299
5	166130	29185.636736679153	8.307546265037
5	166142	29187.897556350254	10.565727456059
5	166148	29188.53501677477	7.013651872969
5	166155	29189.667631662136	3.263699441219
5	166160	29191.933009048495	4.610851339958
5	166173	29193.369960613697	3.932838639269
5	166187	29197.924451346826	5.206152535053
5	166192	29198.141436241969	4.803426488529
5	166201	29198.877762093132	2.419237409312
5	166206	29199.614868255996	2.888029436138
5	166211	29201.3368691589	4.574252499197
5	166216	29202.415978091013	4.084046189207
5	166245	29206.542123779831	3.131624902396
5	166273	29208.568889917081	0.370708076245
5	166287	29212.809795711042	2.60086931735
5	166292	29213.367107575036	1.710590172298
5	166315	29220.008369663724	3.695577025197
5	166322	29220.509879617575	3.106111830043
5	166328	29221.890386181862	2.872676863932
5	166359	29224.993566293407	1.871523811799
5	166368	29227.855616944009	4.439242658829
5	166398	29236.108893236619	6.046496286231
5	166406	29237.882282063038	7.186146679662
5	166422	29241.498879524218	9.282624488028
5	166427	29241.661760911812	6.062704632587
5	166432	29241.699572025417	5.433602993151
5	166444	29245.426481571609	6.688548101062
5	166449	29246.193154846379	6.273839153445
5	166461	29249.054575935015	8.686782974774
5	166466	29249.459838816936	6.918456211674
5	166476	29253.598939410454	9.283286761129
5	166481	29253.633220806932	9.150052710096
5	166486	29254.770698940545	6.601071158439
5	166491	29255.238937730569	6.58700677627
5	166512	29257.8002720559	1.583812981307
5	166519	29258.317920865358	1.682166807714
5	166546	29262.57448243364	3.059856710664
5	166552	29263.263717758927	2.715296078393
5	166579	29267.789429715577	4.086770480633
5	166584	29267.837443687701	2.960492975439
5	166597	29269.41918890653	2.976045816248
5	166602	29269.443977854307	0.818670815607
5	166607	29269.727877515533	0.471746348407
5	166626	29272.823097465351	2.531690708446
5	166640	29274.03331816874	1.097048498175
5	166662	29277.29961451438	1.923028324902
5	166670	29278.032543222899	2.340832922438
5	166675	29278.083649321505	0.348204871459
5	166714	29283.577458885157	1.364614292024
5	166726	29284.372266776628	0.755904512416
5	166748	29287.049863435528	1.309197948856
5	166755	29287.554809909096	1.729934609716
5	166817	29298.082123096773	1.120286100521
5	166823	29298.592684978102	0.926294830173
5	166839	29299.723042046992	0.629881346254
5	166869	29304.638908406867	3.262898535955
5	166874	29304.707239701547	2.493690597954
5	166880	29305.005841433736	1.576870380988
5	166887	29305.37084060618	1.845559680367
5	166892	29305.391290441722	0.893744406678
5	166922	29310.673299921867	1.301176609189
5	166953	29313.577739651605	0.177766270526
5	166976	29315.539682730799	1.467606980226
5	166985	29316.847515238434	2.268760857991
5	166990	29317.039087669964	2.407017850134
5	166997	29318.27419962051	3.294180803859
5	167002	29318.357560923373	1.877989111674
5	167008	29318.760500086649	1.980189872367
5	167022	29319.092231401019	0.062472001468
5	167027	29319.729530819766	0.692253599204
5	167045	29323.870661983329	3.8630534084
5	167053	29325.987156404927	5.045750300198
5	167063	29327.154703861298	6.132905818545
5	167068	29327.331456797196	3.108184348195
5	167087	29329.906200811595	1.466640785095
5	167096	29331.321576908384	2.816402649024
5	167102	29333.4213823629	3.976041996833
5	167109	29334.148909939176	4.179130403977
5	167116	29337.187986142154	6.796594489228
5	167121	29337.614938309836	1.857880715022
5	167158	29342.648167692197	2.055943961742
5	167170	29343.98712234764	1.875847037956
5	167175	29344.27508783573	0.988953286337
5	167192	29350.488096696274	6.835180940086
5	167200	29350.88171257545	2.09812909711
5	167213	29353.378096779566	3.868858763576
5	167226	29358.978220476957	8.635507722828
5	167237	29360.551274826235	10.054559545396
5	167244	29361.995739012321	10.195672232373
5	167249	29362.083727209285	8.78367526491
5	167256	29363.320543690969	9.121208105265
5	167261	29363.381449596703	6.409409613288
5	167266	29363.89291134648	6.346510284119
5	167277	29367.236756682354	8.01408370077
5	167284	29369.101639365982	8.895647342337
5	167295	29371.611397415701	10.831685302427
5	167300	29373.017565972923	9.090354742553
5	167310	29374.882692634696	9.278178689453
5	167315	29375.17026909019	8.084796802886
5	167332	29380.25667186696	10.428338732966
5	167345	29382.066281370459	11.574640369662
5	167351	29384.400049611307	13.627005929104
5	167356	29384.44779421469	11.046997790624
5	167363	29386.338868389621	11.507987121389
5	167371	29387.010143496555	11.739232944836
5	167377	29387.970239516289	12.029711230721
5	167382	29388.238438245298	12.244854172466
5	167388	29388.541799530578	8.049038218253
5	167393	29388.920869256376	8.186668220358
5	167398	29389.380535558275	7.950039642292
5	167405	29391.182728403147	9.662476187445
5	167410	29391.31801809466	4.851484365107
5	167428	29394.136275279146	2.624388558218
5	167436	29395.355428459298	3.317569487935
5	167450	29396.285771373824	0.687357039778
5	167492	29403.245878763875	3.326259667067
5	167499	29403.557223188259	0.409339596414
5	167519	29406.857552093112	2.909763948309
5	167526	29407.138097027453	1.745647787691
5	167539	29410.961963595938	4.10492672521
5	167544	29411.972167213909	4.384758646818
5	167549	29412.263339943579	2.934352035849
5	167556	29413.349476866111	3.846222048197
5	167593	29417.145425552449	1.10488962347
5	167601	29418.307507331667	2.06483761215
5	167610	29419.934498088177	3.339667850077
5	167617	29424.479733590065	6.004221071626
5	167622	29425.954082730427	5.736047456971
5	167637	29429.083305187502	2.681211321214
5	167658	29431.375279950931	1.95056793365
5	167675	29434.270355283171	4.401628049319
5	167682	29434.981083414026	3.163995629657
5	167697	29437.396500672451	4.846995139656
5	167705	29438.218461547642	5.604566071702
5	167710	29438.34705776199	4.275501206212
5	167719	29440.426749265055	5.876550403022
5	167724	29440.988309128862	5.958555006184
5	167730	29441.803062832122	4.664645016718
5	167735	29442.400318612028	4.210715560036
5	167742	29443.219414071158	3.428294252132
5	167748	29443.434093788289	3.215085673656
5	167796	29455.50103131205	2.548812652853
5	167803	29456.938643944236	3.238967891736
5	167833	29464.586519150638	7.290640453525
5	167839	29465.357603169501	8.020468707275
5	167849	29467.404421889183	8.95059152983
5	167858	29468.660272372677	9.610418655518
5	167867	29471.720082353023	10.938095649002
5	167872	29471.908340279935	9.462790677429
5	167879	29473.145998318272	6.647312787773
5	167886	29474.145624597503	6.650481314444
5	167891	29476.214414528574	8.048069369495
5	167899	29478.112383018665	7.398328833054
5	167904	29479.480583517611	8.634452143562
5	167921	29482.881673875594	9.962365476704
5	167928	29485.628234283473	12.227200380296
5	167933	29485.955709673464	9.735428693692
5	167940	29487.008646362216	6.364017463362
5	167951	29489.853523748939	7.100330842498
5	167964	29493.374582275952	7.298763316508
5	167971	29494.47158277253	6.971338019273
5	167982	29496.227867865296	7.535880361755
5	167992	29498.649236988284	7.674022652383
5	167997	29498.681938438979	2.708308705794
5	168004	29498.974274026308	0.44402183517
5	168051	29503.728694605257	1.391617256738
5	168073	29506.457146988145	1.95374939229
5	168079	29506.66114188826	1.013851496988
5	168096	29510.595941812059	2.693094282197
5	168103	29510.898787199456	0.409591163302
5	168124	29512.940822436077	0.765405387952
5	168139	29515.559083078723	2.328022919749
5	168144	29515.676695004277	0.510340931014
5	168162	29517.788293203231	1.235182724536
5	168171	29519.372523849643	2.485133299815
5	168177	29520.256888073502	2.763566713067
5	168182	29520.315878449779	0.965392063817
5	168195	29521.986204794696	1.650322668496
5	168209	29522.999303872631	0.700882231303
5	168252	29533.804370581035	3.600818113972
5	168262	29536.237647496786	5.930224701726
5	168270	29537.696312808349	2.190347417733
5	168292	29540.746596124096	2.530226488684
5	168330	29546.880328143059	2.485050357667
5	168335	29546.937946128635	0.708002390773
5	168369	29551.402579178555	2.160631573903
5	168403	29556.555494951124	0.873960990037
5	168408	29557.718713455621	1.785985587236
5	168433	29562.813404653861	3.598385954647
5	168441	29563.525845031026	2.548232280036
5	168448	29563.833707425835	2.827598653191
5	168456	29564.88545795959	3.427547486367
5	168472	29566.830273120281	1.577324186958
5	168479	29566.976444733943	1.032199245687
5	168494	29568.452281403992	1.193140345316
5	168536	29574.412813580361	4.009619686912
5	168541	29574.46119857038	3.623708674786
5	168546	29574.641220202786	1.410050938372
5	168556	29576.926558340036	2.607793415969
5	168565	29578.379054790671	2.296015012896
5	168576	29579.249931753489	1.562429582326
5	168633	29592.464662609468	2.241113954039
5	168638	29592.507205981607	1.53667696519
5	168646	29593.687177823812	1.315671077037
5	168658	29596.567539485676	4.02471403834
5	168665	29596.879498851029	2.263446418406
5	168681	29600.448193203148	3.776540571968
5	168686	29600.668543434924	2.256393386325
5	168691	29600.923011403316	2.39594661974
5	168697	29601.581167254521	2.717463094742
5	168724	29605.640931497074	1.691734756933
5	168751	29608.268460966484	1.80392399992
5	168772	29611.032490508894	0.909468110998
5	168813	29618.196086814386	2.068647824343
5	168824	29619.761639927209	0.657740370361
5	168839	29622.76883848863	0.953194220475
5	168847	29624.141091723073	0.071000862273
5	168855	29625.839578899645	0.297989729457
5	168875	29628.370810248474	0.461572723905
5	168879	29628.783004180853	0.863613086935
5	168887	29631.005846108419	0.458567839809
5	168911	29636.459130946214	0.100183719375
5	168922	29637.282969615492	0.74070644537
5	168926	29637.69778146782	0.800846405392
5	168948	29640.690303147946	1.813842642652
5	168969	29643.202110327891	1.878079570334
5	168977	29643.853840116177	2.017943837305
5	168983	29644.621360293465	2.730202589704
5	168999	29645.933088126743	0.913118014385
5	169048	29651.382880694352	1.05725296714
5	169055	29653.208571217417	1.937260864748
5	169064	29655.793165514774	3.224496587205
5	169072	29657.148753524602	3.685932005034
5	169084	29660.30202430277	5.005872897372
5	169092	29661.926245300031	2.045258827115
5	169120	29666.443631287188	3.413771311645
5	169126	29666.820446426083	1.331814330579
5	169179	29677.993986374434	8.164299999082
5	169188	29678.529772239868	6.738812759759
5	169197	29680.029072087253	6.329939136863
5	169202	29680.764711374536	4.175625802387
5	169207	29680.871358602812	3.415107184619
5	169218	29681.620331537246	3.476450964802
5	169223	29682.24459099551	3.86714887357
5	169231	29684.314352322805	3.234926107496
5	169251	29688.351384422696	3.476215451715
5	169294	29695.601558820298	1.016112202214
5	169330	29698.834652706568	2.213259240477
5	169335	29699.091962836488	1.57741003549
5	169342	29699.752059141935	1.779599356458
5	169349	29699.83468830814	1.644966317834
5	169356	29702.41611833806	2.611948377755
5	169372	29706.469911917917	5.814976731532
5	169377	29706.494440824983	3.590688289225
5	169384	29707.263403239614	4.338171765303
5	169393	29709.259637837484	5.335838092045
5	169402	29712.628387116261	8.584277708369
5	169409	29713.496258791028	6.730623577054
5	169414	29714.60089451181	5.691762745375
5	169428	29718.864870672625	9.14896522229
5	169435	29719.022169630308	7.02099666968
5	169451	29723.095013904662	7.464298763219
5	169456	29723.228524889703	7.454349143883
5	169465	29723.4805567227	5.190185193402
5	169471	29726.2335657146	7.319192001971
5	169479	29727.960627394523	8.852320009635
5	169486	29728.47795118477	9.003044563729
5	169491	29728.931466697542	7.046053808189
5	169507	29732.627307985509	9.293869886674
5	169514	29734.345819318335	10.943816850416
5	169521	29735.702822334483	8.508113862865
5	169526	29736.095226266359	7.757322754344
5	169533	29736.881181807903	7.605547914577
5	169539	29738.687121358696	8.115741020907
5	169548	29739.385442221685	8.48183252224
5	169555	29740.359994076283	9.390069982378
5	169562	29741.430099685902	9.477171265953
5	169571	29743.469131428552	10.263205821247
5	169576	29743.696682756666	8.298461012784
5	169585	29746.422682206367	10.241590461568
5	169600	29751.457518241747	12.55276332693
5	169611	29753.521386949113	14.132094717549
5	169623	29756.184941999982	14.916791296245
5	169636	29757.850699033398	14.994222181451
5	169641	29758.44903525357	15.051321177089
5	169646	29758.928023286341	12.867228322035
5	169651	29760.318316018136	12.699268448749
5	169656	29763.002713941514	15.338929734016
5	169665	29765.45614500487	17.301542458747
5	169671	29766.175776502282	16.600451920274
5	169676	29766.71743974275	15.700658730347
5	169682	29767.06723880833	15.024637702551
5	169688	29768.258840021866	15.948711486868
5	169695	29768.455346039558	15.130834311415
5	169705	29770.238798549826	15.286298536425
5	169713	29771.557206855429	16.537054812215
5	169718	29772.304962567768	16.796507384892
5	169725	29773.427827946444	16.324318039808
5	169730	29773.696183480987	16.481380688026
5	169739	29775.536606062768	6.901899383035
5	169746	29776.928261961798	5.999646119939
5	169753	29780.067931651417	6.070530294393
5	169758	29782.527769427794	7.968628912702
5	169765	29784.358012754736	8.01757751361
5	169782	29786.95311244077	7.127704079948
5	169793	29789.998278126825	5.515497361061
5	169800	29791.349498704161	6.416564377092
5	169811	29793.06927905861	7.94228126103
5	169820	29795.35338520554	8.621704982458
5	169829	29796.591784323399	8.000216190535
5	169840	29797.8033716824	8.540230923944
5	169849	29801.773134530982	8.958850722962
5	169854	29801.891861677302	7.757857048955
5	169865	29802.976651921171	6.827634529433
5	169870	29804.234637506551	7.751069777339
5	169875	29804.364725678019	7.74723837171
5	169883	29808.445090179409	11.504377722533
5	169890	29809.310012127791	8.904554737437
5	169898	29810.075163318126	8.694337908832
5	169903	29811.288110331582	9.05800194438
5	169909	29812.271012239758	9.652139989988
5	169915	29812.979331684448	10.223531252165
5	169922	29813.266418407111	3.271633782178
5	169936	29815.682963137193	0.927806934014
5	169953	29816.761777369619	1.067215547942
5	169981	29820.402885415846	1.535916190819
5	169994	29822.219747506634	2.295691276269
5	169999	29822.484680701557	2.270835945416
5	170004	29822.515031155803	1.728536785408
5	170053	29829.818218751143	0.805621610105
5	170082	29836.032611173352	2.753873555169
5	170089	29836.941338189647	3.523536436003
5	170109	29844.660059217536	9.989437413614
5	170116	29844.976510082803	8.34342984275
5	170133	29847.032093200348	7.228911324937
5	170138	29847.314825420927	6.325501848188
5	170145	29848.70393301566	7.148936351437
5	170150	29849.644227543415	5.122724731714
5	170159	29850.686753949843	5.3591140727
5	170171	29852.157354584401	6.797137710871
5	170176	29853.326386234726	7.281562274916
5	170187	29855.261006806368	6.563393392497
5	170192	29857.01691155013	7.281309965021
5	170197	29857.721245126915	6.960468441115
5	170202	29858.009449157433	6.572277359497
5	170212	29860.113782848893	5.534426866592
5	170227	29863.182322632372	8.505249202949
5	170235	29865.558753376619	7.32236618656
5	170242	29865.790094490841	6.166115632759
5	170247	29866.3263943342	3.257426036138
5	170252	29866.331913273882	1.5190342944
5	170257	29866.697388862245	0.913313893906
5	170280	29871.699875831689	4.74020295663
5	170285	29872.246136883852	4.746613635756
5	170290	29872.603103447202	2.402318025569
5	170296	29873.009257048739	1.85929282388
5	170323	29878.079291113625	2.333135735059
5	170328	29878.387837405976	2.284556544249
5	170333	29878.394038675321	1.987932134945
5	170338	29878.7021501014	0.881093944909
5	170363	29882.797863170219	1.971997580592
5	170419	29887.942439211457	1.034097123332
5	170425	29888.37700864099	1.106653437275
5	170435	29888.896814070342	1.158853632885
5	170440	29889.072029725899	0.523191063331
5	170457	29894.744793314433	6.181517081899
5	170463	29895.051888034895	5.73500260283
5	170471	29896.567610218119	6.750412525342
5	170476	29896.662461764116	5.945191926964
5	170482	29897.379336677813	3.983820316029
5	170487	29897.837523173322	3.565724725587
5	170508	29902.556611018471	8.020609881076
5	170514	29904.262169270477	9.207030936201
5	170521	29904.786604162745	4.889073240879
5	170531	29905.778787487313	5.618545631809
5	170538	29907.190784936276	6.406863620703
5	170543	29910.890165596208	10.076432337163
5	170549	29911.635703213804	7.103033892402
5	170556	29913.085660094211	7.817882691528
5	170563	29913.690982813382	7.695124385581
5	170569	29914.310205282217	0.735010029109
5	170587	29916.797908918165	1.903104540292
5	170592	29917.182124034827	1.64069366597
5	170622	29922.189611950204	1.829991363615
5	170627	29922.340289026448	0.265888612286
5	170652	29926.203067770522	0.94196643526
5	170674	29929.962353378768	3.546554843592
5	170685	29931.400353486369	4.775891140555
5	170694	29931.973537860324	3.658623452578
5	170701	29935.032682797102	5.658817059368
5	170709	29937.42923697321	5.989594478055
5	170714	29937.896376926374	0.69086411216
5	170728	29939.24408260943	1.333542140836
5	170735	29941.038468450087	2.329420468884
5	170748	29942.34616117732	1.103533671916
5	170781	29948.01165751983	3.037351443361
5	170786	29948.21643064282	2.938268628956
5	170841	29957.605215378522	4.712816588991
5	170846	29957.68404141449	2.774354576266
5	170852	29958.969196330396	2.504540053129
5	170884	29963.241499572886	2.338019222868
5	170891	29963.996658543902	2.703024142296
5	170898	29964.510931894876	3.069184077858
5	170903	29965.807372662741	2.291644724672
5	170925	29968.75976440701	2.34439165536
5	170937	29971.685021150807	4.880632634036
5	170942	29971.695241877485	3.691063303765
5	170948	29973.088380357759	2.590303272158
5	170955	29973.812727307415	2.746636584406
5	170964	29974.364877685365	2.892705672115
5	170972	29975.801976579467	1.825253478424
5	170985	29980.212124155407	6.162667027929
5	170990	29981.06251062877	5.816270535157
5	170996	29981.357142737502	3.228500815705
5	171002	29982.216159498242	3.781672393043
5	171007	29982.377748871809	2.980334160986
5	171030	29987.546233712527	5.106369277249
5	171045	29993.547352302176	7.336134081843
5	171050	29994.696120593736	8.113912894215
5	171059	29995.512391616685	8.893486339147
5	171064	29996.181057562914	9.45191460433
5	171075	29999.566133033303	12.505005105826

