version 2
run First-n3-10-20191016-14:52:53-3676
attr configname First-n3
attr datetime 20191016-14:52:53
attr experiment First-n3
attr inifile omnetpp.ini
attr iterationvars ""
attr iterationvarsf ""
attr measurement ""
attr network org.omnetpp.queueing.Pizza
attr processid 3676
attr repetition 10
attr replication ""
attr resultdir results
attr runnumber 10
attr seedset 10
param **.PS.maxInventoriedPS 3
param **.U1.interArrivalTime exponential(2s)
param **.U2.interArrivalTime exponential(4s)
param **.PS.serviceTimeForInventoryU1 exponential(0.8s)
param **.PS.serviceTimeForInventoryU2 exponential(1.0s)
param **.PS.serviceTimeDirectU1 exponential(1.2s)
param **.PS.serviceTimeDirectU2 exponential(1.4s)
param **.PS.probabilityProducing 0.5
param **.CS.serviceTimeU1 exponential(0.8s)
param **.CS.serviceTimeU2 exponential(1.0s)

vector 0 Pizza.EntryQueueU1 queueLength:vector ETV
attr interpolationmode sample-hold
attr title "queue length, vector"
vector 1 Pizza.CS queueLength:vector ETV
attr interpolationmode sample-hold
attr title "queue length, vector"
vector 2 Pizza.EntryQueueU2 queueLength:vector ETV
attr interpolationmode sample-hold
attr title "queue length, vector"
vector 3 Pizza.sink lifeTime:vector ETV
attr interpolationmode none
attr title "lifetime of arrived jobs, vector"
attr unit s
vector 4 Pizza.sink lifeTimeU2:vector ETV
attr interpolationmode none
attr title "lifetime of arrived jobs, vector"
attr unit s
0	0	0	0
0	9	2.950868889951	1
0	13	4.158229986914	0
0	20	4.331200204502	1
0	21	4.403018544262	0
0	36	6.643851325214	1
0	38	7.085448467383	2
0	43	7.434516905248	1
0	49	8.474420933571	0
0	53	8.981661905636	1
0	55	9.263540920408	2
0	61	10.827691676624	3
0	63	11.185648402948	2
0	68	11.452435649738	1
0	75	11.99388646103	2
0	77	12.293201717883	1
0	85	13.050484846771	0
0	109	14.894109054308	1
0	111	15.192925357061	2
0	113	15.636583037795	3
0	115	16.351089095045	2
0	122	17.475137184831	1
0	128	17.979129797276	0
0	139	18.548987302466	1
0	141	18.876737628926	2
0	143	19.90797674234	1
0	151	21.028696175047	2
0	156	23.421669179632	1
0	163	23.826557942165	0
0	179	24.527508650772	1
0	181	24.799083599159	2
0	182	24.882675021032	1
0	186	24.965005885723	2
0	192	25.694016702375	3
0	194	25.845427822883	2
0	199	25.942844524421	1
0	204	25.978087421633	0
0	210	26.816473505752	1
0	212	27.448416776533	0
0	218	28.300353909907	1
0	219	28.711392825162	0
0	286	38.071833708162	1
0	287	38.467515637612	0
0	365	52.123453637966	1
0	370	52.637819745354	2
0	371	52.683845336752	1
0	376	53.02271048749	0
0	382	54.725456825628	1
0	391	56.398337195351	2
0	392	57.227742286595	1
0	398	57.249746273303	2
0	399	57.917306023219	1
0	404	58.169491702458	0
0	410	60.387845476221	1
0	413	61.674584762323	0
0	419	62.142927219772	1
0	421	62.372658374725	0
0	441	64.869584516567	1
0	443	65.474879079279	2
0	447	66.119168868675	1
0	452	66.489943726309	0
0	466	67.254895950177	1
0	467	67.339051249386	0
0	473	67.41526779093	1
0	474	67.569075565219	0
0	481	68.387903284173	1
0	482	69.553782326693	0
0	488	70.215749347166	1
0	489	70.241659561508	0
0	525	73.990209885581	1
0	527	74.86872545109	0
0	560	78.463841289173	1
0	561	78.49309862581	0
0	601	88.969204075826	1
0	603	89.731729486158	2
0	605	90.983205040936	3
0	608	92.291830619453	2
0	613	92.312301463975	1
0	619	92.603366307587	0
0	658	97.82926088559	1
0	661	98.551874280236	0
0	675	100.992021953815	1
0	678	101.705973694481	2
0	682	102.715799584474	3
0	683	102.958073868524	2
0	690	103.381707885771	1
0	697	104.849010583234	0
0	703	105.868514242195	1
0	705	105.992371880256	2
0	707	106.32912398921	3
0	708	106.567439268836	2
0	713	108.063754254713	1
0	720	109.81457572516	0
0	761	115.333805184623	1
0	763	116.219337839258	0
0	784	119.246823692773	1
0	786	119.247036345511	2
0	787	120.319824517157	1
0	793	121.730508492509	0
0	805	122.156697826224	1
0	806	122.429175349079	0
0	842	128.145535835547	1
0	843	128.986400306322	0
0	862	132.399307658316	1
0	864	132.712658823429	2
0	865	132.75833723971	1
0	870	133.959802763518	0
0	881	134.158897599921	1
0	883	134.73946343085	0
0	905	138.81674847071	1
0	907	139.391692762091	0
0	911	139.699814936898	1
0	914	141.190835561035	0
0	918	141.329414088361	1
0	922	141.795617768823	2
0	923	141.876314247901	1
0	931	143.366093404411	2
0	932	143.55788259861	1
0	938	145.24972305415	2
0	943	148.695883692945	1
0	947	149.339658776539	2
0	953	149.668746963922	3
0	955	150.01828255121	4
0	959	150.699702614314	5
0	960	150.778406841671	4
0	965	151.541260588132	3
0	969	153.251355726745	4
0	972	154.254724556027	3
0	981	155.549377823129	2
0	985	155.75177012434	3
0	987	157.206374996989	4
0	990	158.447984630104	3
0	995	159.55041710637	2
0	999	159.779783670593	3
0	1002	160.770442542341	2
0	1007	161.384896976401	1
0	1012	163.201638732296	0
0	1016	163.46630009014	1
0	1022	166.959240183938	2
0	1025	167.973989897951	1
0	1037	169.329389370241	2
0	1039	169.599314181115	3
0	1041	169.88256834272	4
0	1044	170.115812722434	3
0	1048	170.215142565192	4
0	1051	170.734704764374	3
0	1056	170.94401109623	2
0	1061	173.078358161977	1
0	1067	174.756942418172	0
0	1078	175.036165618507	1
0	1079	175.644590975278	0
0	1083	175.797488249967	1
0	1085	176.589623035499	2
0	1087	177.225977559956	3
0	1092	177.579591087868	4
0	1093	177.849091595268	3
0	1097	179.206250369737	4
0	1104	180.36852144804	5
0	1105	180.910217651822	4
0	1110	180.940646698459	3
0	1115	182.148030489156	2
0	1120	183.010786563259	1
0	1125	183.118683528283	0
0	1129	183.192832090063	1
0	1133	185.302090714629	2
0	1136	185.358454905548	1
0	1140	186.095047157147	2
0	1142	186.171136851835	3
0	1146	188.026184282248	4
0	1148	188.376922309165	5
0	1149	189.43092468254	4
0	1156	190.020159553126	3
0	1162	190.274537161671	2
0	1170	192.023320586717	3
0	1171	192.33360557579	2
0	1175	192.754616727488	3
0	1181	194.434132861153	4
0	1184	194.974369643279	5
0	1188	195.46177395785	6
0	1189	195.694983548177	5
0	1194	196.485776725378	4
0	1198	197.93941213629	5
0	1200	198.359168497482	6
0	1203	199.255654603223	5
0	1209	199.835664987551	6
0	1213	202.046063935386	7
0	1214	202.17301850303	6
0	1221	203.159619401441	5
0	1227	204.412791161547	4
0	1232	204.799898432362	3
0	1236	205.153634030183	4
0	1239	205.585732391399	3
0	1245	206.848252852357	2
0	1251	207.001374929979	1
0	1257	207.796921626001	2
0	1258	208.33390317431	1
0	1262	208.364358409911	2
0	1264	210.181089900396	3
0	1267	211.280232470657	2
0	1273	211.89756146666	3
0	1276	213.014385384887	2
0	1280	213.929345562206	3
0	1282	216.742238519182	4
0	1285	217.492869015121	3
0	1291	220.029170736357	4
0	1293	221.576467613084	5
0	1294	221.849049797776	4
0	1298	224.086915243896	5
0	1300	224.104309197167	6
0	1307	226.732275571504	5
0	1311	226.76613558146	6
0	1316	227.532191941277	5
0	1322	229.329779717171	6
0	1325	229.545383901457	5
0	1330	230.650453074392	4
0	1336	232.68580679766	5
0	1337	233.034965288481	4
0	1341	233.604620839633	5
0	1347	235.155673077267	6
0	1348	235.427930920116	5
0	1356	236.82229464969	4
0	1361	236.82370361264	3
0	1366	238.592430770017	2
0	1370	238.819430031317	3
0	1375	240.765560284477	4
0	1376	240.833701091448	3
0	1382	241.022772260594	4
0	1384	242.134702999074	3
0	1392	242.417367786346	2
0	1397	242.42904402923	1
0	1402	246.350177842865	0
0	1406	246.408168910999	1
0	1408	246.948471750367	2
0	1411	249.069334349047	1
0	1416	249.680361325182	0
0	1420	251.044434642703	1
0	1422	251.170501437398	2
0	1425	253.55549304271	1
0	1431	254.033932531412	0
0	1443	254.81292596448	1
0	1444	255.323548165547	0
0	1475	260.19188366884	1
0	1476	260.192740122037	0
0	1512	263.978963772306	1
0	1514	264.147559145049	2
0	1520	267.025772756273	3
0	1523	268.107609147024	2
0	1528	268.92155041373	1
0	1536	270.251600673091	2
0	1537	270.54112790667	1
0	1542	270.930751081005	0
0	1584	277.661982190002	1
0	1588	278.904209285638	0
0	1597	279.407596701882	1
0	1603	281.439865404347	2
0	1605	282.293436473943	3
0	1609	284.3134563267	4
0	1610	284.454618569959	3
0	1615	285.016924189531	2
0	1620	285.086626116112	1
0	1627	285.304532764959	2
0	1628	285.308554253536	1
0	1633	285.756678010113	0
0	1653	289.618485689958	1
0	1655	289.858877124042	2
0	1659	290.650669765794	1
0	1666	290.848718232991	2
0	1667	290.940720521624	1
0	1672	291.009313262553	0
0	1686	291.57045622956	1
0	1689	294.555130524806	2
0	1690	294.64253595593	1
0	1695	294.903281819924	0
0	1699	295.071218933001	1
0	1701	295.27220121552	2
0	1705	297.28279350935	3
0	1709	298.013681676117	2
0	1719	300.091648869937	3
0	1720	300.197242789688	2
0	1726	300.387417364902	3
0	1729	301.019570461033	2
0	1734	301.239050223071	1
0	1738	301.485676875554	2
0	1743	302.452079565146	1
0	1747	302.50510382822	2
0	1749	302.513938610254	3
0	1751	302.69686501118	4
0	1753	302.997999881211	5
0	1759	303.310583548062	4
0	1766	305.641284327186	5
0	1767	306.04628918405	4
0	1774	306.535723556982	5
0	1775	306.862145719646	4
0	1781	306.902839340727	5
0	1782	307.041443878734	4
0	1791	308.335419617544	3
0	1799	309.429860012192	4
0	1801	309.867769086474	5
0	1802	309.998966493979	4
0	1806	312.311876469543	5
0	1809	314.844325916387	4
0	1813	314.953296370329	5
0	1815	314.97435769208	6
0	1819	315.452717327812	7
0	1820	315.743358616692	6
0	1826	317.446260436764	5
0	1832	317.459009564789	6
0	1835	318.791258026528	5
0	1840	319.394799124018	4
0	1845	319.721636410987	3
0	1856	323.638407062334	2
0	1864	323.803094376238	3
0	1865	323.808990041836	2
0	1872	324.619938301381	1
0	1877	324.71991031976	0
0	1883	325.971392872156	1
0	1884	326.357749521625	0
0	1921	333.55016716585	1
0	1922	334.702176440676	0
0	1946	340.294084650367	1
0	1947	340.650799263205	0
0	1961	341.904444811909	1
0	1964	342.661489370293	2
0	1967	343.066624399137	1
0	1973	343.291527875384	2
0	1979	345.127620867473	3
0	1981	345.794997447145	2
0	1989	346.585798393323	3
0	1990	347.123464971878	2
0	1997	348.388991999393	1
0	2005	349.724334436995	0
0	2011	349.852981889002	1
0	2013	351.300577150296	2
0	2014	351.455150737214	1
0	2019	351.638691441706	0
0	2025	352.079035570581	1
0	2026	353.315900375278	0
0	2033	354.583611018891	1
0	2034	354.804145689435	0
0	2057	359.592922951239	1
0	2059	360.736767164425	2
0	2060	360.897365113994	1
0	2066	361.62641137329	2
0	2067	362.160214150933	1
0	2071	362.601886769621	2
0	2073	362.634571164916	3
0	2079	365.533460196633	4
0	2083	367.104597270512	5
0	2085	367.15666960191	6
0	2090	368.177027426794	7
0	2091	368.399219075846	6
0	2096	368.980902316507	5
0	2101	369.440424445436	4
0	2106	369.692448044661	3
0	2110	370.01695786526	4
0	2113	373.085854088299	3
0	2118	376.139364040264	2
0	2122	376.962136111926	3
0	2125	377.867017952796	2
0	2129	378.302035949955	3
0	2131	378.349208780518	4
0	2133	378.932730173992	5
0	2135	379.207644870762	6
0	2139	379.725170270974	7
0	2142	380.68121150703	6
0	2147	381.20057414654	5
0	2151	381.571004082848	6
0	2153	381.812540770103	7
0	2155	382.359507263339	8
0	2159	382.710696956739	9
0	2160	382.809418873315	8
0	2165	384.069985926155	7
0	2172	384.52661204787	6
0	2177	385.648719075793	5
0	2183	387.783835317813	4
0	2188	388.272751613007	3
0	2193	388.875680321911	2
0	2200	389.916874141871	1
0	2204	390.630943992123	2
0	2206	390.655819746769	3
0	2208	391.117333443824	4
0	2212	391.284736710428	5
0	2214	391.744545196038	6
0	2215	391.836075661994	5
0	2220	392.667723607735	4
0	2225	393.957523572071	3
0	2231	395.104499020994	4
0	2233	395.564585382715	5
0	2235	395.800692359282	6
0	2243	398.132368015576	7
0	2244	398.243889249344	6
0	2250	398.375741795711	7
0	2251	399.430312127656	6
0	2258	401.752724824576	7
0	2259	401.822267440653	6
0	2266	402.41685401749	5
0	2270	403.348423823539	6
0	2274	404.628723561755	7
0	2277	404.907077782757	6
0	2281	405.127064817961	7
0	2283	405.421967120333	8
0	2285	405.901677533681	9
0	2293	408.843795845252	10
0	2295	409.173066842118	11
0	2296	409.455042339721	10
0	2301	410.554102443658	9
0	2305	410.887018222204	10
0	2309	413.040925059466	9
0	2315	413.886441125449	10
0	2317	413.936952532443	11
0	2318	415.232024238918	10
0	2324	416.375693233709	11
0	2329	417.284633488529	10
0	2336	419.11928298973	11
0	2340	420.896548173362	12
0	2341	420.97262971441	11
0	2347	421.340531318714	12
0	2348	422.081701603946	11
0	2354	424.992315469107	10
0	2360	425.176556608783	11
0	2363	425.647422305968	10
0	2369	426.661893369241	11
0	2373	430.528395917147	10
0	2379	431.004331378937	9
0	2384	431.139788377667	8
0	2393	432.25667997697	7
0	2398	432.393786902403	6
0	2403	432.635098070814	5
0	2409	433.607911230376	6
0	2412	434.284471951526	5
0	2416	435.602466342411	6
0	2419	436.299336428764	5
0	2424	437.613340449036	4
0	2428	438.039288930748	5
0	2432	439.671169907347	6
0	2433	439.998824635088	5
0	2438	442.785633456542	4
0	2443	443.913894416954	3
0	2451	446.447533549779	4
0	2453	447.092672574533	5
0	2455	447.291620273813	6
0	2456	448.590791547857	5
0	2462	451.387769611206	4
0	2467	451.738935431471	3
0	2473	455.249432297954	2
0	2478	455.611789558337	1
0	2482	457.081205756402	2
0	2484	457.231522597456	3
0	2486	458.037871515744	4
0	2489	459.764196379157	3
0	2493	459.954203712784	4
0	2498	460.922080920784	3
0	2503	461.888501839295	2
0	2508	462.949310259933	1
0	2513	463.284577241489	0
0	2519	465.073536108266	1
0	2522	465.817656139405	2
0	2523	466.715828245521	1
0	2530	467.593916421941	0
0	2541	468.590200570296	1
0	2546	469.220754375022	2
0	2551	470.856379160804	3
0	2555	471.905921687412	2
0	2568	473.055796608307	1
0	2573	473.417079060924	0
0	2577	474.565237122227	1
0	2579	475.118710469264	2
0	2583	476.029715775007	3
0	2585	476.144590888124	4
0	2586	476.582456563699	3
0	2590	477.267765527151	4
0	2592	477.281598844368	5
0	2599	479.199770299907	4
0	2607	481.903350379816	5
0	2608	482.285427715656	4
0	2612	482.510198510424	5
0	2616	483.395157241396	6
0	2618	484.715266790547	7
0	2619	484.744783762217	6
0	2624	485.282596276444	5
0	2629	485.713412484354	4
0	2634	486.557098059922	3
0	2640	488.991124777944	4
0	2642	489.337404615935	5
0	2647	490.696857264607	4
0	2655	492.402620382865	3
0	2660	492.913087684264	2
0	2666	495.191378438295	3
0	2668	495.414465497892	4
0	2669	495.700795239393	3
0	2675	496.870304925998	4
0	2676	497.060653790197	3
0	2682	499.023585607407	4
0	2684	499.892370383977	5
0	2685	501.142003530773	4
0	2691	502.520928040237	5
0	2692	503.734082698973	4
0	2696	504.324997536968	5
0	2699	506.500432700934	4
0	2703	506.616357279163	5
0	2705	507.002577208528	6
0	2707	507.978583233449	7
0	2710	508.458760493425	6
0	2714	508.940758426233	7
0	2717	509.486771367841	6
0	2722	511.273265445201	5
0	2732	514.839903832931	6
0	2740	518.667023970366	7
0	2741	518.879855205714	6
0	2745	519.026727569833	7
0	2750	519.669317100403	8
0	2751	519.70289270235	7
0	2756	519.965709871332	6
0	2769	521.253941549728	5
0	2774	521.323230810769	4
0	2779	523.625346949794	3
0	2783	524.268386187781	4
0	2786	525.792042115554	3
0	2790	526.999392679894	4
0	2792	527.360521184356	5
0	2796	528.145309140505	6
0	2797	528.57049642295	5
0	2802	529.96567554403	4
0	2808	531.563845699546	5
0	2810	532.1461374176	6
0	2812	533.327476113566	7
0	2814	533.471399908451	8
0	2817	534.580797808827	7
0	2823	535.962257896264	8
0	2828	538.019226231689	7
0	2833	539.210103509208	6
0	2839	539.671123062344	7
0	2841	540.637400327779	6
0	2846	541.394444666949	5
0	2851	543.019498604113	4
0	2856	544.839734789046	3
0	2861	548.976323784092	2
0	2869	553.104248702562	1
0	2878	554.162755353055	2
0	2880	555.941831362129	1
0	2887	557.076752385357	0
0	2916	559.165196693131	1
0	2920	560.23736183899	2
0	2921	560.376253314634	1
0	2927	561.129627182844	0
0	2956	566.053776874785	1
0	2957	566.391481832833	0
0	2963	566.721772253542	1
0	2966	567.444517898228	2
0	2967	568.528269479116	1
0	2972	568.604679571778	0
0	2992	570.809318647357	1
0	2994	571.530061062312	2
0	2995	571.902684880283	1
0	3001	572.505362905857	2
0	3002	572.573864338484	1
0	3008	572.590346509086	2
0	3011	573.515808134233	1
0	3020	573.816984149323	2
0	3023	574.546582813594	1
0	3032	575.126439613577	0
0	3043	575.533728404246	1
0	3044	575.56931357691	0
0	3057	576.682445902751	1
0	3060	579.083671443803	0
0	3093	584.102730787793	1
0	3095	584.329365222575	0
0	3122	587.256249353313	1
0	3123	587.851131970539	0
0	3135	589.793814072662	1
0	3137	589.794040285547	2
0	3142	591.549377148374	1
0	3147	591.943104887566	0
0	3153	592.238098326822	1
0	3154	592.534334482416	0
0	3173	594.741880138831	1
0	3176	595.492092792195	0
0	3180	596.015524928145	1
0	3183	597.306908095792	0
0	3187	598.328053359291	1
0	3191	599.83113659574	0
0	3201	602.194133377679	1
0	3205	605.160579973048	0
0	3218	605.739557311862	1
0	3219	605.902663741863	0
0	3225	606.006462576753	1
0	3226	606.166413561411	0
0	3237	606.886687527227	1
0	3243	610.504145583708	0
0	3249	610.86098263991	1
0	3250	611.228464813876	0
0	3262	613.851516615662	1
0	3264	614.003466919099	2
0	3271	615.840085392512	3
0	3272	615.941324702835	2
0	3277	615.986003169157	1
0	3282	616.615723270457	0
0	3288	618.175690702079	1
0	3289	618.22668560345	0
0	3313	620.761272711753	1
0	3315	621.392034382534	0
0	3329	621.693156246991	1
0	3331	621.896442851722	2
0	3333	622.179053137335	3
0	3338	625.000800523896	4
0	3339	625.194516457917	3
0	3346	625.911085084208	4
0	3347	626.283137112425	3
0	3355	626.42711205141	4
0	3360	626.791541136357	5
0	3362	627.507475232054	6
0	3363	627.760309551237	5
0	3368	628.436388016078	4
0	3376	628.648226982924	5
0	3377	628.915218290756	4
0	3382	629.458178772853	3
0	3390	631.312201301074	4
0	3391	632.031257821673	3
0	3397	633.052099196055	4
0	3402	635.270775904175	3
0	3407	636.031211970934	2
0	3412	636.753422057596	1
0	3421	639.049412071246	0
0	3432	639.931815994831	1
0	3436	640.336411269158	2
0	3447	641.072017624538	3
0	3449	641.823961586626	4
0	3450	642.002340937471	3
0	3456	642.477323084885	2
0	3462	642.493116088948	3
0	3463	642.509012503523	2
0	3469	644.148753829065	1
0	3474	644.177504473502	0
0	3496	645.834681158194	1
0	3501	646.950429827739	2
0	3503	647.152708703148	3
0	3507	647.884340049551	2
0	3512	649.087862403985	1
0	3519	650.566327993908	0
0	3523	651.337475129911	1
0	3525	651.585798032311	2
0	3527	651.705438477946	3
0	3533	652.947356518213	4
0	3534	653.155078517366	3
0	3538	653.900709248687	4
0	3540	654.568957279559	5
0	3544	655.830318509192	6
0	3545	656.083399388594	5
0	3549	656.181884905386	6
0	3551	657.535597887206	7
0	3557	660.433342738342	6
0	3562	660.682763549618	5
0	3570	663.138111026284	6
0	3571	663.201803131314	5
0	3576	663.551579221724	4
0	3581	664.964669431795	3
0	3587	666.372353290355	4
0	3591	666.995897640491	5
0	3592	667.928813921639	4
0	3598	669.622683442979	5
0	3603	672.117187331553	4
0	3607	672.249096882551	5
0	3609	672.51586174553	6
0	3617	677.109536318557	7
0	3618	677.778129870086	6
0	3622	677.837293897958	7
0	3627	679.328090090026	6
0	3635	679.621193937426	7
0	3638	680.451522081167	6
0	3648	683.567745514073	7
0	3649	683.618702645408	6
0	3655	685.187328729686	7
0	3657	685.581893201933	6
0	3663	687.059377284366	7
0	3665	687.648569332808	8
0	3667	688.527796524486	9
0	3673	690.969605973987	10
0	3674	691.331162058446	9
0	3679	691.335375799587	8
0	3684	691.425414160277	7
0	3693	692.28212861874	6
0	3699	692.331431721538	7
0	3700	692.533776804961	6
0	3707	694.449386465666	5
0	3711	695.477826049972	6
0	3716	696.024837316993	5
0	3721	696.35588582074	4
0	3725	699.279746929886	5
0	3727	699.342869595977	6
0	3732	703.798817813686	5
0	3737	704.799650598043	4
0	3743	705.818008151846	5
0	3745	706.351377749298	6
0	3747	707.070008814008	7
0	3750	708.586882091872	6
0	3756	710.079052221484	7
0	3757	710.302210244314	6
0	3762	710.936936832668	5
0	3766	711.389108995357	6
0	3773	712.960461106652	5
0	3778	713.175733991103	4
0	3783	714.238220838202	3
0	3789	716.763434613503	4
0	3792	718.505067454873	3
0	3803	721.466613481448	2
0	3807	721.566650535982	3
0	3809	723.739048080904	4
0	3811	724.287144724761	5
0	3815	726.491671164416	4
0	3822	726.948444287826	3
0	3827	729.663317482194	2
0	3833	730.652474246068	3
0	3835	731.037736058615	2
0	3840	731.343058324575	1
0	3845	733.806734755328	0
0	3849	733.93934068214	1
0	3852	734.812797686284	0
0	3858	735.922937523645	1
0	3862	737.421677960821	2
0	3864	738.478932895156	3
0	3865	739.850737455762	2
0	3869	740.846003440378	3
0	3873	741.847371788567	2
0	3878	741.989434667492	1
0	3886	743.360061858364	2
0	3888	743.871080446521	3
0	3889	744.427402415677	2
0	3893	744.960551876552	3
0	3895	745.785246093756	4
0	3897	746.3416716941	5
0	3899	746.970263400222	6
0	3903	747.51458142219	7
0	3906	748.938852775116	6
0	3911	749.103975862952	5
0	3917	751.612067672898	6
0	3919	752.2985769057	7
0	3920	752.386483274418	6
0	3926	753.643842894374	7
0	3927	753.90864765751	6
0	3932	754.295561533393	5
0	3938	754.612519740334	6
0	3940	754.640485478844	7
0	3944	754.915343170592	8
0	3945	755.924349283903	7
0	3949	756.007627583944	8
0	3951	756.402093517378	9
0	3953	757.392609118575	10
0	3955	758.636772482666	11
0	3959	759.390583505828	12
0	3961	759.959141476244	13
0	3964	760.571934585502	12
0	3969	762.40798387776	11
0	3974	763.338179140631	10
0	3980	764.771032581822	11
0	3983	765.478094510114	10
0	3987	765.509358988726	11
0	3989	765.965831106573	12
0	3991	766.330249472242	13
0	3995	768.287099548146	14
0	3997	768.795202638247	15
0	4003	770.166857284683	16
0	4004	770.453278396297	15
0	4010	771.00654030417	14
0	4016	771.264131060076	15
0	4018	771.325732256365	16
0	4019	771.591696184557	15
0	4025	771.757849244346	16
0	4027	772.719935010542	15
0	4033	773.493153633969	16
0	4035	774.39007602781	15
0	4040	774.644735485414	14
0	4044	775.393158166988	15
0	4047	775.867951408381	14
0	4056	776.998915450791	15
0	4058	777.972326649307	16
0	4059	778.414346968568	15
0	4064	779.069418292815	14
0	4072	780.670526546877	13
0	4077	780.840835634816	12
0	4083	781.755505917501	13
0	4087	782.669120873415	12
0	4092	782.777013206445	11
0	4096	784.093236211891	12
0	4098	784.677716194368	13
0	4102	785.515644520321	14
0	4107	787.073126777984	15
0	4108	787.496874284519	14
0	4113	787.706722475288	13
0	4118	788.597806526878	12
0	4122	788.753613371208	13
0	4126	790.761094705941	14
0	4127	791.069397523175	13
0	4132	791.782434985946	12
0	4136	792.091206399	13
0	4139	792.453369811369	12
0	4144	794.499542719695	11
0	4152	795.16857881157	10
0	4160	796.143588288489	9
0	4168	796.435357651936	8
0	4173	796.469515985117	7
0	4180	797.821249685437	6
0	4184	798.678604123723	7
0	4186	799.299958647606	8
0	4188	799.691585041252	9
0	4192	800.357449973507	10
0	4196	802.221181198051	11
0	4197	802.329063558639	10
0	4202	802.716814081152	9
0	4209	803.827184411678	8
0	4214	804.514381246666	7
0	4225	806.299199753534	6
0	4230	807.955463253821	5
0	4234	809.225179203206	6
0	4243	811.527368823491	5
0	4249	813.8991111541	6
0	4250	813.936178103537	5
0	4254	813.981664251275	6
0	4256	815.348674039361	7
0	4258	816.02714658069	8
0	4260	816.471378684083	9
0	4264	817.696705846874	8
0	4269	818.123338741029	7
0	4275	818.99402270665	6
0	4281	819.176651901266	7
0	4282	819.924502025105	6
0	4288	823.031296164637	7
0	4290	823.865000567753	8
0	4291	824.052283942651	7
0	4302	826.88305164248	6
0	4306	827.184097931903	7
0	4310	828.222175218804	8
0	4312	830.904595586802	7
0	4317	830.957468048572	6
0	4321	831.61800075506	7
0	4324	831.892221531296	6
0	4329	832.157968643828	5
0	4336	833.056397781775	4
0	4341	833.972112412443	3
0	4345	835.236471031879	4
0	4349	836.157376464338	3
0	4356	836.570909756342	2
0	4361	838.876565420494	1
0	4366	838.92772270344	0
0	4375	841.249053665632	1
0	4376	841.370857101884	0
0	4383	841.954296772192	1
0	4385	842.666852766841	2
0	4387	843.088453999271	3
0	4389	843.628717554584	4
0	4391	844.096837161669	5
0	4394	844.798044467978	4
0	4400	845.628462839658	3
0	4406	846.626304414921	2
0	4411	847.362555007131	1
0	4417	847.845629270324	2
0	4420	848.40904192981	1
0	4426	851.844987150292	2
0	4427	852.58134583235	1
0	4431	852.749709517234	2
0	4434	854.379170937293	1
0	4439	856.49199737123	0
0	4458	858.126760420654	1
0	4460	858.238074719278	0
0	4466	859.013150103425	1
0	4469	861.245277687755	2
0	4470	861.983787540517	1
0	4474	864.191461339825	2
0	4478	864.769265320109	3
0	4479	866.209485041133	2
0	4484	867.569364259947	1
0	4490	869.096417813185	2
0	4492	870.086546869915	3
0	4493	870.515315179401	2
0	4498	870.995542838176	1
0	4503	873.340666696347	0
0	4514	874.400964325248	1
0	4518	875.824863890081	0
0	4524	876.101375402767	1
0	4525	876.307960254202	0
0	4531	877.289701286845	1
0	4532	877.506440782851	0
0	4536	877.607465263744	1
0	4539	878.222902207735	0
0	4543	878.506849453921	1
0	4545	879.285952840839	2
0	4547	879.943519550834	3
0	4549	881.90054684229	4
0	4552	882.605562854902	3
0	4558	883.97237905941	2
0	4564	883.977673146731	3
0	4565	884.26576612322	2
0	4569	884.425696270628	3
0	4571	885.844803219867	4
0	4573	886.283651639002	5
0	4576	887.353810515925	4
0	4584	890.566288316951	5
0	4586	890.805612943594	6
0	4588	890.92638468306	7
0	4593	891.799710183765	6
0	4599	892.33164257948	5
0	4604	892.789588063078	4
0	4609	893.427545592301	3
0	4615	894.394399694558	4
0	4621	897.560357651365	5
0	4625	898.593030163874	4
0	4633	899.249254281603	3
0	4638	899.603701153866	2
0	4644	900.310696810255	3
0	4646	900.378413177466	4
0	4648	900.999238829387	5
0	4649	901.261088543233	4
0	4653	902.17129139824	5
0	4656	903.319653048382	4
0	4660	904.075410628748	5
0	4662	904.345945957919	6
0	4664	905.808709805178	7
0	4668	906.21626622309	6
0	4676	906.389081004167	5
0	4683	906.914251761958	6
0	4685	906.971786433866	7
0	4687	907.426063145503	8
0	4688	907.748480369304	7
0	4693	908.022817293476	6
0	4698	908.459296832096	5
0	4703	908.513271604675	4
0	4709	909.803966444973	5
0	4711	910.212012725991	4
0	4716	910.752329184782	3
0	4722	911.238865446082	4
0	4725	912.051561091478	5
0	4727	912.73470273335	6
0	4728	913.074501837499	5
0	4733	913.412236632959	4
0	4737	913.884001264587	5
0	4740	914.474495763108	4
0	4744	914.518770490916	5
0	4746	914.613759547942	6
0	4750	915.857217346349	5
0	4757	916.660773066761	6
0	4758	917.470560192599	5
0	4764	918.079493799159	4
0	4771	918.373274871405	3
0	4777	918.729476764752	4
0	4779	918.877883111037	3
0	4784	919.339220468057	2
0	4789	919.616934594317	1
0	4793	920.48204472101	2
0	4797	920.499847561912	3
0	4798	920.595409688862	2
0	4804	920.823977551657	3
0	4807	921.238330063015	4
0	4810	922.089419748554	3
0	4815	922.14064947928	2
0	4823	923.351242043801	3
0	4824	923.811451496727	2
0	4833	927.47644774071	1
0	4838	927.491349787739	0
0	4857	931.752683341203	1
0	4858	931.872184779203	0
0	4869	932.28878052649	1
0	4872	934.371326321702	0
0	4891	935.222445090192	1
0	4892	936.126522224234	0
0	4909	939.259477304515	1
0	4910	939.399642795761	0
0	4932	944.457365323618	1
0	4935	947.369888834824	0
0	4941	947.520463452031	1
0	4942	947.547181639233	0
0	5001	955.059275756105	1
0	5005	955.333178816065	2
0	5012	958.473600423686	3
0	5017	960.418843249424	4
0	5019	960.532470103089	5
0	5020	960.641367603742	4
0	5025	960.853151669073	3
0	5029	961.724667157008	4
0	5035	962.771438431043	3
0	5040	962.85056461132	2
0	5046	964.285126406588	3
0	5048	964.691170361899	4
0	5050	966.530008739521	3
0	5056	966.727403621423	4
0	5057	967.109105136979	3
0	5062	967.479148923941	2
0	5067	968.585875769376	1
0	5071	969.738068613349	2
0	5074	972.616103897195	1
0	5078	974.538635232918	2
0	5082	977.639177052115	3
0	5083	977.8814667068	2
0	5088	978.84885533777	1
0	5093	979.126347911253	0
0	5097	980.010904660476	1
0	5101	981.367252461549	2
0	5102	981.682050202104	1
0	5107	983.915967574166	0
0	5115	985.08586388735	1
0	5117	985.191224204404	2
0	5120	985.866377776889	1
0	5125	987.391217211091	0
0	5129	988.816478146853	1
0	5137	990.897441076619	0
0	5159	993.867090529994	1
0	5160	994.420318513417	0
0	5173	996.475480480556	1
0	5174	996.742147790772	0
0	5187	997.652515150762	1
0	5189	997.876372620612	2
0	5191	998.393579045507	3
0	5193	998.749241363745	4
0	5196	1000.884665765947	3
0	5202	1001.662895763335	2
0	5208	1002.883688073889	1
0	5213	1002.909458899851	0
0	5242	1005.696010357881	1
0	5245	1006.319271421259	0
0	5261	1011.164126622656	1
0	5263	1011.383220910468	0
0	5269	1011.416229580143	1
0	5274	1012.596044889273	2
0	5278	1013.700385916182	1
0	5284	1015.590852172814	0
0	5292	1017.113299953238	1
0	5294	1017.455068147663	0
0	5307	1018.446918639168	1
0	5308	1018.740645926588	0
0	5329	1019.752222910453	1
0	5331	1020.154345555979	0
0	5338	1021.669408985331	1
0	5339	1021.849335718739	0
0	5351	1023.033516604968	1
0	5358	1024.005102390702	2
0	5361	1024.350362471041	3
0	5365	1024.762472007016	4
0	5367	1024.789501122954	5
0	5369	1026.203326136328	6
0	5370	1026.422209281855	5
0	5375	1026.434799417331	4
0	5381	1026.864635904166	5
0	5385	1028.123707350833	4
0	5390	1029.363867300127	3
0	5394	1030.154751482703	4
0	5396	1030.342639320349	5
0	5400	1031.140781412075	4
0	5405	1031.287257961356	3
0	5410	1031.565779548238	2
0	5417	1032.456132787187	1
0	5425	1033.19614293925	0
0	5431	1033.622842091088	1
0	5433	1034.026662535622	2
0	5434	1034.101919751106	1
0	5440	1035.583296030115	0
0	5446	1036.390438233023	1
0	5448	1036.797411620845	2
0	5450	1037.155483175009	3
0	5452	1037.69209255669	4
0	5453	1038.227470423993	3
0	5458	1038.397387093297	2
0	5462	1040.787710137101	3
0	5464	1041.115113256081	4
0	5468	1041.311461185579	5
0	5477	1044.440519831181	4
0	5488	1046.191703513074	3
0	5493	1046.952590629375	2
0	5500	1049.045371229623	1
0	5509	1050.198719491766	2
0	5511	1050.338187793355	3
0	5512	1050.472722114902	2
0	5517	1051.424098985716	1
0	5522	1051.858703555804	0
0	5526	1052.804944183375	1
0	5528	1054.176166046678	2
0	5531	1055.717756762696	1
0	5535	1055.76912558318	2
0	5539	1059.843972292237	3
0	5541	1060.179929997775	4
0	5542	1061.242034422352	3
0	5548	1062.945955659269	4
0	5550	1062.998090707054	5
0	5551	1063.624690738145	4
0	5555	1065.555435815883	5
0	5559	1068.628992900873	6
0	5562	1070.9156552608	5
0	5568	1072.547516841273	6
0	5569	1072.670718920078	5
0	5573	1073.033849204968	6
0	5576	1074.209807349258	5
0	5581	1076.228119656848	4
0	5585	1076.77055132295	5
0	5591	1077.260352371144	6
0	5593	1077.266471736725	7
0	5595	1077.573432417889	8
0	5598	1079.755855649454	7
0	5604	1081.889087081618	8
0	5610	1083.804286961622	7
0	5617	1084.432320778536	6
0	5621	1084.638677323172	7
0	5626	1086.340291477135	6
0	5634	1087.45068824702	7
0	5637	1087.97949854747	6
0	5644	1088.091022018956	7
0	5645	1088.142307976006	6
0	5651	1088.278951969104	7
0	5652	1089.520132098796	6
0	5657	1089.738157869942	5
0	5662	1091.575180314113	4
0	5670	1092.879800427443	5
0	5673	1093.44380691699	4
0	5677	1093.49404960537	5
0	5679	1093.64436142735	6
0	5681	1094.295563214958	7
0	5683	1094.585531363843	8
0	5688	1096.044632003819	7
0	5692	1096.535452503659	8
0	5698	1097.152299181928	7
0	5704	1097.284354240976	8
0	5707	1097.587845620885	7
0	5713	1098.871886761768	8
0	5716	1101.012680532312	7
0	5722	1101.837801708276	6
0	5727	1103.281899005831	5
0	5731	1103.430083911226	6
0	5733	1105.230660576823	7
0	5736	1107.241825269491	6
0	5742	1107.910650744878	5
0	5748	1107.942850029895	6
0	5753	1108.571861586425	7
0	5754	1108.702965014291	6
0	5759	1109.48320096185	5
0	5763	1110.064881616649	6
0	5765	1110.299959624535	7
0	5769	1110.657154657629	8
0	5770	1110.8423498797	7
0	5779	1112.152818247859	6
0	5784	1113.010969093561	5
0	5790	1113.032128256305	6
0	5791	1113.121957427544	5
0	5795	1113.16763190434	6
0	5797	1113.915922678242	7
0	5799	1114.097331066574	8
0	5802	1115.420749646703	7
0	5806	1116.476528747946	8
0	5809	1118.590369857767	7
0	5816	1118.752167407853	6
0	5821	1119.419526906328	5
0	5829	1120.918748667088	6
0	5830	1121.312762241353	5
0	5836	1122.623138874914	6
0	5837	1122.74591948392	5
0	5841	1123.048582212297	6
0	5843	1123.784079495793	7
0	5845	1125.098781243331	8
0	5848	1125.447554687846	7
0	5854	1126.262519155555	6
0	5860	1126.420136402026	7
0	5861	1126.83498078882	6
0	5867	1126.982870191097	7
0	5869	1127.592590895417	8
0	5873	1128.532238725496	9
0	5875	1129.070902371437	10
0	5876	1129.073564216544	9
0	5881	1129.985425453287	8
0	5887	1131.208179896819	9
0	5888	1131.623077294049	8
0	5892	1132.575316124915	9
0	5896	1133.95049352283	10
0	5903	1135.396885905803	9
0	5907	1138.422428155152	10
0	5909	1138.519473108679	11
0	5913	1139.063539466981	10
0	5918	1139.242540941391	9
0	5923	1139.953462381565	8
0	5928	1141.388798124164	7
0	5935	1142.49704986184	6
0	5940	1143.080599076138	5
0	5944	1143.237809751944	6
0	5947	1145.032220185163	5
0	5951	1145.588119809443	6
0	5955	1148.310101767318	7
0	5962	1149.096119258089	8
0	5964	1150.789510876517	7
0	5969	1151.717488532206	6
0	5980	1153.137440968132	5
0	5986	1154.256152647321	6
0	5988	1154.711677173188	5
0	5994	1155.123846743712	6
0	5995	1155.168908849441	5
0	6001	1156.2728235334	6
0	6003	1156.291726215713	7
0	6005	1156.328684706577	8
0	6006	1157.431520072488	7
0	6010	1157.85026271316	8
0	6013	1158.219781222117	7
0	6018	1159.378554606874	6
0	6022	1159.892727011915	7
0	6031	1161.388985887191	6
0	6039	1164.672020737748	7
0	6040	1165.17528388594	6
0	6046	1165.25419981558	5
0	6051	1165.809939148041	4
0	6055	1166.281386525115	5
0	6059	1166.614959022661	6
0	6065	1168.70505130311	5
0	6070	1169.491713397476	4
0	6076	1169.508777198493	5
0	6079	1170.994955463096	4
0	6085	1173.344274469447	3
0	6090	1174.057119051433	2
0	6096	1174.466233382499	3
0	6098	1174.80427405036	4
0	6099	1175.244975220856	3
0	6104	1175.408847889288	2
0	6114	1176.378857234653	1
0	6120	1176.439296786936	2
0	6121	1176.528801758441	1
0	6127	1177.192397530466	2
0	6128	1177.579019276629	1
0	6132	1177.682419668368	2
0	6135	1179.564278153146	1
0	6140	1181.448986309893	0
0	6157	1182.343800657979	1
0	6160	1183.021462779914	0
0	6179	1184.756167462487	1
0	6181	1184.842703281682	0
0	6230	1195.235992527953	1
0	6234	1195.87202275171	2
0	6235	1195.93035501941	1
0	6242	1197.969759552989	0
0	6251	1198.201794449508	1
0	6258	1200.064470600191	0
0	6266	1200.455474707923	1
0	6268	1200.873505118426	0
0	6278	1202.346840715019	1
0	6280	1202.587539002372	2
0	6282	1202.920422356962	3
0	6283	1203.27518796098	2
0	6289	1203.415770755963	3
0	6290	1203.722216239425	2
0	6297	1204.502602860205	1
0	6303	1205.844725393261	2
0	6304	1206.072086265991	1
0	6309	1208.50541442534	0
0	6313	1208.806488250533	1
0	6315	1209.264664590808	2
0	6319	1209.732414680397	3
0	6321	1210.033699604933	2
0	6327	1210.08300541219	1
0	6333	1210.823197927798	2
0	6334	1211.179060649773	1
0	6338	1211.612258507479	2
0	6341	1212.371328751196	1
0	6347	1212.950556342319	2
0	6348	1212.969829151101	1
0	6356	1214.263970413495	2
0	6359	1215.069479371408	1
0	6364	1215.320167830459	0
0	6368	1215.456523112849	1
0	6370	1215.686167895095	2
0	6374	1216.586229625011	3
0	6378	1217.457167147015	2
0	6383	1217.466365400985	1
0	6387	1217.760087533923	2
0	6393	1220.111428854973	1
0	6399	1220.452602969621	2
0	6401	1221.147383345358	3
0	6403	1221.241133104264	4
0	6404	1221.298624198057	3
0	6408	1222.857359540745	4
0	6410	1223.278178398339	5
0	6412	1223.418443038212	6
0	6414	1225.091856087809	7
0	6420	1228.005777065516	8
0	6421	1228.428461425238	7
0	6425	1230.571944552577	8
0	6427	1231.696433430973	9
0	6433	1233.074759872754	8
0	6439	1233.281504223007	9
0	6440	1233.5324027208	8
0	6446	1234.340671270185	7
0	6451	1234.752316847076	6
0	6455	1234.772400951467	7
0	6458	1235.469848985225	6
0	6468	1237.03016374424	5
0	6473	1237.120595686168	4
0	6478	1238.025609732051	3
0	6485	1239.602676912252	2
0	6489	1240.082483568109	3
0	6493	1241.873287987643	2
0	6498	1242.339155535817	1
0	6502	1243.336646325713	2
0	6506	1243.892104723047	3
0	6508	1244.009122000095	4
0	6510	1244.095591220585	5
0	6512	1245.616554803921	6
0	6515	1246.420461453331	5
0	6519	1246.710542081626	6
0	6522	1246.9544664354	5
0	6527	1250.214870569039	4
0	6533	1250.739095284929	5
0	6535	1250.994624580826	6
0	6537	1251.162582134735	7
0	6538	1251.260922058545	6
0	6544	1252.505542832391	7
0	6545	1252.584377078692	6
0	6550	1253.1035914124	5
0	6557	1253.729505201966	6
0	6558	1253.915462820587	5
0	6563	1254.141920925502	4
0	6569	1254.97458921285	5
0	6571	1255.432276556913	6
0	6577	1256.863608841518	7
0	6578	1257.104305964182	6
0	6586	1258.859251820616	7
0	6589	1259.371352695366	6
0	6596	1260.046934120076	5
0	6601	1260.077696453687	4
0	6607	1260.212965860732	5
0	6609	1260.405614931684	6
0	6610	1260.44567885255	5
0	6615	1261.464145005829	4
0	6623	1264.567605229711	5
0	6624	1265.819433979	4
0	6629	1266.759182838209	3
0	6635	1268.332842672009	2
0	6642	1268.860741940641	1
0	6647	1269.873290792153	0
0	6662	1272.551382701305	1
0	6665	1273.650064597579	2
0	6666	1274.318408082977	1
0	6673	1275.156897373427	2
0	6674	1275.615172445781	1
0	6680	1276.20032577846	0
0	6694	1276.736484923871	1
0	6696	1277.340306754136	2
0	6698	1278.494385672939	1
0	6705	1279.023410730218	0
0	6717	1279.270862047648	1
0	6719	1279.335392299391	2
0	6720	1279.592209027561	1
0	6724	1280.204471110138	2
0	6727	1281.173401759823	1
0	6733	1281.53866951942	2
0	6735	1281.638628935428	3
0	6736	1281.993950106335	2
0	6742	1285.143836589752	1
0	6747	1285.363818118597	0
0	6764	1288.304688571523	1
0	6769	1289.229930805089	2
0	6771	1289.682111496873	1
0	6779	1291.031198950687	0
0	6793	1293.145344816075	1
0	6794	1293.547961970382	0
0	6821	1296.686685550894	1
0	6822	1297.170462342898	0
0	6847	1298.76439012589	1
0	6849	1299.092666944791	2
0	6850	1300.120321770475	1
0	6859	1300.517745068444	2
0	6863	1301.404539917256	3
0	6864	1301.482190759226	2
0	6870	1301.563227729409	3
0	6872	1301.721375067274	4
0	6874	1301.896215349691	5
0	6876	1302.348904728265	4
0	6882	1302.552067834224	3
0	6888	1304.891013280863	4
0	6892	1306.228330086864	3
0	6897	1306.487511480683	2
0	6902	1307.073251880814	1
0	6906	1307.11533683708	2
0	6909	1307.546767882964	1
0	6913	1307.755304095928	2
0	6915	1308.22550873534	3
0	6919	1308.676659143869	4
0	6920	1308.749677503911	3
0	6925	1310.177792003687	2
0	6930	1310.629926154949	1
0	6937	1311.096442074475	2
0	6939	1311.325766126617	3
0	6940	1312.143522972513	2
0	6945	1312.205883009873	1
0	6950	1312.720882086154	0
0	7006	1325.123355356576	1
0	7010	1326.413775488574	2
0	7013	1327.189158279142	3
0	7014	1327.204953601135	2
0	7019	1327.884027139688	1
0	7024	1327.920519975949	0
0	7046	1328.801499239536	1
0	7048	1329.056956141237	0
0	7062	1329.615500927669	1
0	7064	1330.071335492364	2
0	7066	1330.098585697879	3
0	7068	1330.12153278077	4
0	7072	1332.05020669613	5
0	7074	1332.505014409842	6
0	7077	1333.488102173084	5
0	7082	1335.960002955068	4
0	7087	1336.741457849627	3
0	7093	1337.06958338086	4
0	7094	1337.450357150716	3
0	7104	1339.203342694404	4
0	7105	1339.27518086061	3
0	7109	1340.102768405976	4
0	7114	1341.117504270302	3
0	7118	1341.447390885583	4
0	7120	1342.122564299886	5
0	7124	1343.208534212131	6
0	7126	1344.046424196035	5
0	7134	1345.647019723699	6
0	7138	1346.302981527976	7
0	7140	1346.447280178838	8
0	7141	1347.782884135306	7
0	7148	1349.490841826212	6
0	7152	1349.662300220134	7
0	7156	1349.917032064237	8
0	7158	1350.411658159025	7
0	7163	1351.164972393012	6
0	7167	1351.638971607035	7
0	7170	1352.798088132593	6
0	7174	1354.056825322487	7
0	7176	1354.488650734009	8
0	7179	1357.35355469454	7
0	7187	1360.223027409011	8
0	7189	1360.840206590973	7
0	7197	1361.988702684577	8
0	7199	1362.091747725345	7
0	7205	1362.450735271982	8
0	7207	1362.750176124181	9
0	7208	1362.794057167865	8
0	7217	1364.317868949111	7
0	7221	1364.607446857923	8
0	7224	1364.752385889397	7
0	7229	1365.661204077666	6
0	7236	1366.159363147568	7
0	7238	1366.302626993389	8
0	7239	1366.51529901303	7
0	7244	1366.81786453794	6
0	7251	1369.252358747574	5
0	7259	1369.687051273459	4
0	7265	1369.996296647172	5
0	7266	1370.057520388363	4
0	7270	1371.115852837771	5
0	7274	1373.186476348743	6
0	7275	1373.208921365271	5
0	7279	1373.885067818805	6
0	7283	1374.184374925898	7
0	7285	1374.524284202603	6
0	7290	1374.686440425563	5
0	7299	1376.00378230817	4
0	7306	1376.724114502694	3
0	7314	1378.34650693146	2
0	7320	1378.599503011757	3
0	7321	1380.0158906626	2
0	7326	1380.081593343764	1
0	7332	1380.648102034953	2
0	7336	1381.168025270598	3
0	7337	1381.401305072161	2
0	7342	1382.2046957332	1
0	7346	1382.370734713323	2
0	7349	1383.178818092159	1
0	7353	1383.512772059089	2
0	7358	1384.332557376258	3
0	7359	1385.163105552774	2
0	7366	1385.815557489498	1
0	7375	1387.962483724641	0
0	7381	1387.973509160696	1
0	7382	1388.002203287978	0
0	7386	1389.703803596297	1
0	7389	1389.841264028634	0
0	7393	1390.640919544777	1
0	7398	1392.136220981015	0
0	7409	1392.806990658717	1
0	7411	1394.081431497855	0
0	7439	1395.764285883421	1
0	7440	1396.511525078794	0
0	7449	1397.544139370525	1
0	7451	1397.985049425166	0
0	7457	1399.590014796158	1
0	7459	1400.063009087915	2
0	7463	1401.820661754453	1
0	7468	1402.077558728973	0
0	7480	1403.739040836244	1
0	7482	1404.424997459385	0
0	7488	1404.673383704571	1
0	7490	1407.13032650472	2
0	7491	1407.388416159985	1
0	7495	1407.785890053205	2
0	7497	1408.974853020829	3
0	7503	1409.821022053053	4
0	7504	1410.217200252995	3
0	7509	1410.321697014728	2
0	7515	1411.327825076608	3
0	7517	1411.759230069936	4
0	7518	1411.864214038615	3
0	7522	1413.258924579248	4
0	7527	1415.915249848308	3
0	7532	1416.298722946298	2
0	7538	1416.826079344444	3
0	7539	1417.623580398186	2
0	7547	1418.353820347615	1
0	7552	1419.072669190906	0
0	7556	1420.538524492369	1
0	7561	1421.677207995918	0
0	7598	1427.187256882546	1
0	7601	1428.076912560457	2
0	7602	1428.516732297421	1
0	7608	1429.268326329713	0
0	7615	1429.923700635464	1
0	7616	1430.325890679804	0
0	7622	1431.216402519475	1
0	7624	1431.306734529592	2
0	7626	1431.622030482106	3
0	7627	1431.635041372295	2
0	7632	1432.30108580114	1
0	7638	1433.715882280364	2
0	7641	1434.070037626103	1
0	7647	1434.676618314405	2
0	7650	1435.293209388413	3
0	7653	1435.383117095685	2
0	7661	1435.81533437427	1
0	7670	1437.770109889104	0
0	7681	1438.055009864083	1
0	7682	1438.38323388795	0
0	7708	1444.060268188436	1
0	7710	1445.163129310477	2
0	7713	1445.987125413585	1
0	7718	1446.046840009464	0
0	7724	1446.823294290325	1
0	7725	1446.983231784135	0
0	7740	1448.620279808287	1
0	7741	1448.87323861246	0
0	7752	1449.452253839172	1
0	7753	1449.652335659007	0
0	7764	1451.30507191732	1
0	7765	1451.488611547985	0
0	7771	1451.671708934473	1
0	7772	1452.061637402758	0
0	7780	1455.184217552857	1
0	7783	1456.455836072309	0
0	7812	1458.724785803741	1
0	7814	1458.972665489386	2
0	7815	1459.200994655699	1
0	7822	1460.148554632495	0
0	7833	1465.037023061779	1
0	7838	1465.197595520186	2
0	7843	1465.852059613913	3
0	7848	1467.325220606136	2
0	7854	1467.606035937968	3
0	7856	1467.676982039896	4
0	7857	1467.939145284231	3
0	7863	1468.189764603742	4
0	7867	1472.294852447133	5
0	7868	1472.377686989872	4
0	7873	1473.364354513429	3
0	7877	1473.382888006463	4
0	7881	1474.273645062361	3
0	7886	1474.435125543539	2
0	7891	1475.169929125611	1
0	7897	1476.793917991962	0
0	7925	1478.767579472893	1
0	7926	1478.783487469307	0
0	7934	1479.448962799468	1
0	7936	1480.471701009413	0
0	7972	1486.180106596568	1
0	7976	1488.700925364534	2
0	7977	1488.886794274122	1
0	7985	1489.635145467708	2
0	7988	1490.518499376083	1
0	7994	1490.878135268166	2
0	7995	1491.437081174969	1
0	8000	1491.477283294815	0
0	8023	1493.323640391409	1
0	8024	1493.419321798859	0
0	8066	1500.525647735158	1
0	8068	1500.541325470892	2
0	8070	1500.650629047195	3
0	8072	1502.748273031727	4
0	8076	1502.837164725763	5
0	8081	1504.842379713097	4
0	8089	1505.189620920698	3
0	8095	1505.344897227413	4
0	8097	1505.354452207309	5
0	8099	1505.564834442892	4
0	8105	1505.822746450924	5
0	8106	1506.558075912626	4
0	8115	1507.429766784108	5
0	8117	1507.893320801075	6
0	8118	1508.162013918156	5
0	8123	1509.001471592655	4
0	8127	1509.358940011168	5
0	8129	1509.868203749238	6
0	8131	1510.61233457425	7
0	8134	1514.037929959426	6
0	8140	1515.861000612257	7
0	8145	1519.282346943075	6
0	8150	1519.93049703386	5
0	8163	1522.349317019752	4
0	8167	1522.538167485801	5
0	8169	1525.350097477338	6
0	8172	1525.845319157901	5
0	8178	1527.190876303731	4
0	8186	1530.9596541557	3
0	8192	1531.094416611287	4
0	8193	1531.309170325548	3
0	8197	1531.862691690638	4
0	8201	1533.298941249215	3
0	8210	1534.287449993131	2
0	8215	1534.371836669204	1
0	8222	1535.645194605296	2
0	8224	1535.834439200754	3
0	8225	1535.89128581131	2
0	8231	1536.484540006838	3
0	8233	1537.584930354776	2
0	8238	1537.877091492334	1
0	8243	1538.356133347178	0
0	8255	1539.693175845489	1
0	8257	1539.864905931255	2
0	8262	1541.884169481035	1
0	8268	1542.39975820905	2
0	8269	1542.8966937194	1
0	8275	1542.937943891786	2
0	8276	1543.454362868776	1
0	8280	1543.7415874154	2
0	8283	1545.825499704945	1
0	8289	1546.30695431465	2
0	8291	1546.829593940723	1
0	8297	1546.895428484499	2
0	8298	1547.28227467258	1
0	8302	1548.696132688105	2
0	8304	1549.237507132583	3
0	8306	1549.276009693991	4
0	8310	1550.64828320674	5
0	8311	1551.552547085656	4
0	8316	1551.670772331061	3
0	8325	1552.62434182116	2
0	8331	1553.632548091162	3
0	8333	1553.970385027771	4
0	8334	1555.209501652223	3
0	8345	1557.851877657712	2
0	8351	1559.66845199749	3
0	8355	1560.618307485791	4
0	8356	1560.893143405413	3
0	8360	1561.066355385892	4
0	8368	1562.273714018677	5
0	8370	1563.184619026492	4
0	8376	1563.421012795393	5
0	8377	1563.58737903315	4
0	8382	1563.818891138344	3
0	8388	1564.4288572483	4
0	8390	1564.656840990837	3
0	8396	1564.798702766403	4
0	8397	1564.960124584175	3
0	8404	1565.622659180188	2
0	8409	1565.638559151779	1
0	8415	1565.77278705017	2
0	8416	1565.943806283827	1
0	8426	1571.105549033196	0
0	8448	1572.441144875421	1
0	8453	1574.492138868468	2
0	8457	1575.375589611503	1
0	8463	1576.086841730743	2
0	8464	1576.941557329894	1
0	8469	1577.037477293214	0
0	8504	1581.149462329636	1
0	8506	1582.097667676311	2
0	8507	1582.242614464351	1
0	8513	1582.253216493614	2
0	8515	1583.03788247299	1
0	8520	1583.048316238734	0
0	8529	1584.888167604733	1
0	8531	1585.61396305323	2
0	8537	1587.4467211233	1
0	8543	1587.48488434281	2
0	8544	1588.082606674479	1
0	8549	1589.805663334969	0
0	8563	1590.522151128359	1
0	8564	1590.589644317215	0
0	8570	1590.961595156233	1
0	8571	1591.350407989265	0
0	8583	1592.34328112856	1
0	8585	1592.464501542352	0
0	8591	1592.731925603234	1
0	8593	1592.872664394284	2
0	8594	1593.266111187482	1
0	8600	1595.195047320165	0
0	8606	1596.89294430252	1
0	8612	1597.95861410296	0
0	8632	1599.781929606828	1
0	8635	1600.369407142349	0
0	8657	1604.604029373275	1
0	8659	1606.446574964524	0
0	8666	1606.833282248253	1
0	8669	1607.25117824358	0
0	8688	1609.062286407693	1
0	8695	1611.59288321577	0
0	8721	1615.905706457908	1
0	8723	1616.827591418343	2
0	8725	1617.350813998705	3
0	8727	1617.515860100232	4
0	8730	1619.648641893122	3
0	8735	1619.722085842353	2
0	8741	1619.786747437141	3
0	8742	1620.047534701684	2
0	8750	1623.235012695128	1
0	8756	1625.045514822389	2
0	8758	1625.246473392352	1
0	8763	1625.66925204373	0
0	8771	1625.927989951516	1
0	8773	1626.909360421415	0
0	8784	1627.709491683382	1
0	8786	1628.015507000679	2
0	8788	1628.089723984668	1
0	8794	1629.748040577893	2
0	8796	1630.407877102949	1
0	8802	1631.777298337954	2
0	8807	1632.526433662809	3
0	8809	1633.216735034734	4
0	8810	1633.718496821176	3
0	8815	1633.865842279882	2
0	8821	1634.560089785575	1
0	8826	1634.805494047027	0
0	8832	1635.526587322983	1
0	8834	1635.855641028978	0
0	8841	1638.456229024154	1
0	8844	1638.689488704831	2
0	8846	1638.85565920415	3
0	8847	1639.31169909368	2
0	8852	1639.541364022474	1
0	8858	1641.843191951591	2
0	8862	1643.558225655238	3
0	8863	1644.681739008209	2
0	8868	1644.960996480184	1
0	8875	1648.967654485774	0
0	8892	1652.458718556196	1
0	8894	1653.256601971139	0
0	8902	1653.731906606105	1
0	8903	1653.861551541852	0
0	8909	1653.973006611913	1
0	8913	1654.348994778351	0
0	8924	1655.180136736335	1
0	8928	1656.428499981338	0
0	8950	1657.845291526214	1
0	8951	1658.642338032337	0
0	8963	1659.61989292267	1
0	8964	1659.623201048206	0
0	8970	1659.90853192382	1
0	8972	1660.622177633066	2
0	8980	1664.043280526954	1
0	8991	1667.334977776493	0
0	9017	1670.668443202127	1
0	9022	1671.208306451947	2
0	9026	1672.016675565297	3
0	9027	1673.233158036013	2
0	9033	1673.772255750275	1
0	9038	1674.184715018267	0
0	9050	1675.708296148486	1
0	9052	1676.116070754945	2
0	9053	1676.506619954312	1
0	9060	1676.890929230283	2
0	9063	1678.537675717298	1
0	9070	1679.328571713621	0
0	9087	1682.704179903252	1
0	9088	1683.015712026307	0
0	9094	1683.049509819433	1
0	9095	1683.113567939538	0
0	9099	1684.281863386407	1
0	9103	1686.139654354655	2
0	9107	1688.106520162648	3
0	9109	1688.113715839169	4
0	9113	1688.763033160556	5
0	9114	1688.866732447586	4
0	9119	1690.093190389102	3
0	9126	1691.766165315161	2
0	9133	1692.582356634903	1
0	9139	1693.284319901802	2
0	9141	1693.345626386186	3
0	9143	1693.616290326242	2
0	9147	1694.543197553794	3
0	9151	1695.316434228939	2
0	9157	1695.887961926498	1
0	9163	1696.213404993303	2
0	9165	1696.606715393092	3
0	9169	1697.713144757104	2
0	9175	1698.978184045143	3
0	9178	1699.065155027408	2
0	9184	1699.793699244382	1
0	9190	1700.083003195839	2
0	9192	1700.129203803126	3
0	9194	1700.136020487189	4
0	9196	1700.662792585073	3
0	9202	1700.713427064786	4
0	9203	1700.783230629234	3
0	9208	1701.370449207363	2
0	9216	1704.439770047816	3
0	9221	1708.404564934007	2
0	9225	1708.424088908464	3
0	9229	1708.992278017431	2
0	9234	1710.312795085234	1
0	9239	1710.837840481081	0
0	9245	1711.026971972058	1
0	9246	1711.514034896487	0
0	9252	1714.241665075992	1
0	9253	1716.611685130443	0
0	9257	1716.941784349505	1
0	9259	1717.13753971574	2
0	9262	1717.624052735468	1
0	9269	1718.058245463157	0
0	9275	1719.442253980241	1
0	9277	1719.570148765698	2
0	9280	1721.121391589932	1
0	9286	1723.250255642741	0
0	9298	1723.586448850807	1
0	9301	1724.721600317845	0
0	9312	1725.53795079267	1
0	9315	1726.311442054356	2
0	9317	1726.360040080089	3
0	9319	1726.485651072205	2
0	9324	1727.088887969553	1
0	9329	1727.161523460354	0
0	9348	1730.164494508052	1
0	9351	1730.560582680587	2
0	9352	1731.000732752553	1
0	9357	1731.080774483291	0
0	9376	1733.572766683164	1
0	9378	1733.887766025913	0
0	9389	1733.997495911547	1
0	9392	1734.051694058007	2
0	9394	1735.33604557725	1
0	9399	1735.903336978716	0
0	9434	1742.405429521667	1
0	9438	1743.365136175556	2
0	9444	1744.740244229168	1
0	9450	1745.005228243917	0
0	9457	1745.26881950388	1
0	9459	1745.327684261937	2
0	9460	1745.693266940223	1
0	9466	1745.791335768473	2
0	9467	1746.312491015416	1
0	9473	1747.133306886922	0
0	9479	1748.061235619176	1
0	9480	1748.228095639838	0
0	9484	1748.281060030063	1
0	9490	1750.501185275516	0
0	9512	1753.444046414893	1
0	9514	1753.500557099036	2
0	9516	1753.538176008502	3
0	9517	1753.605296399902	2
0	9524	1756.075528770202	1
0	9533	1757.153493236454	0
0	9537	1757.278110766676	1
0	9539	1758.860371648382	2
0	9542	1759.524564327547	1
0	9546	1761.166726607669	2
0	9550	1761.821742837508	3
0	9553	1762.802780362839	2
0	9557	1763.100219724883	3
0	9563	1764.925045663725	4
0	9566	1765.263463961938	3
0	9571	1765.66494999048	2
0	9577	1765.782247636902	3
0	9579	1766.569359872207	4
0	9581	1767.542619739247	5
0	9583	1767.648571568004	6
0	9585	1769.914871743774	7
0	9588	1770.545242496023	6
0	9593	1770.997481554338	5
0	9599	1771.14275926307	6
0	9600	1772.783668849062	5
0	9607	1775.768047752136	4
0	9612	1776.182213039449	3
0	9617	1776.974110390051	2
0	9622	1777.605389641966	1
0	9630	1778.580551313901	2
0	9631	1778.873735221371	1
0	9637	1780.399786268121	2
0	9639	1782.061969764367	3
0	9641	1782.245202743196	4
0	9643	1783.71878677094	5
0	9647	1784.56603516599	6
0	9648	1785.458039590685	5
0	9654	1786.234590851026	6
0	9658	1786.79106133097	5
0	9666	1788.157010618414	4
0	9671	1788.165754934067	3
0	9676	1788.415547918767	2
0	9684	1789.449103347968	1
0	9689	1789.534528609517	0
0	9695	1789.589123403296	1
0	9696	1789.664104321914	0
0	9720	1791.29992897922	1
0	9721	1791.370004009018	0
0	9727	1791.611295867136	1
0	9728	1791.795814406778	0
0	9743	1793.462483733194	1
0	9744	1793.483146937315	0
0	9750	1793.498535859182	1
0	9752	1794.58071530381	0
0	9758	1795.142891922436	1
0	9760	1795.18918582385	2
0	9762	1795.964619143795	3
0	9765	1796.390993491489	4
0	9766	1796.397857801847	3
0	9771	1796.906790311922	2
0	9779	1797.242783634252	3
0	9781	1797.368452769912	4
0	9782	1797.783732000083	3
0	9787	1798.511284232755	2
0	9793	1798.646398023688	3
0	9794	1798.808567244157	2
0	9799	1799.512153274014	1
0	9806	1802.298609350194	0
0	9810	1802.329011496303	1
0	9816	1805.096337523122	0
0	9833	1807.531070001844	1
0	9836	1807.912043431272	2
0	9840	1809.339386897302	3
0	9841	1809.530177148152	2
0	9846	1809.53494188603	1
0	9855	1810.872975540748	2
0	9857	1811.218261591405	3
0	9859	1811.383053617746	2
0	9866	1814.090750773476	1
0	9873	1814.749590553629	0
0	9890	1817.381609398079	1
0	9892	1818.939151373715	0
0	9927	1825.065694165572	1
0	9930	1826.224711845436	0
0	9936	1826.288463369472	1
0	9937	1826.540845177876	0
0	9946	1827.308655893598	1
0	9948	1827.418509544017	2
0	9950	1827.89163095062	3
0	9955	1831.85984727911	2
0	9960	1832.420001676249	1
0	9967	1832.99794730601	0
0	9976	1834.270759433244	1
0	9978	1834.818155010112	2
0	9982	1835.222526577871	1
0	9987	1835.225603373956	0
0	10007	1839.02948704812	1
0	10008	1839.890254226818	0
0	10028	1842.686272998743	1
0	10034	1843.075604829885	2
0	10035	1843.149620846881	1
0	10042	1844.393995432999	0
0	10056	1844.938756235047	1
0	10063	1848.087632184779	0
0	10069	1848.501984073538	1
0	10075	1849.953978253358	0
0	10089	1853.012183633784	1
0	10092	1853.31187000957	0
0	10112	1856.665936743237	1
0	10115	1857.271297775429	0
0	10125	1858.449138618994	1
0	10128	1859.629143081512	2
0	10131	1860.408904497965	1
0	10143	1863.019692955934	0
0	10158	1864.614649593841	1
0	10162	1865.447444923301	2
0	10163	1865.638423992329	1
0	10171	1867.006319323494	0
0	10195	1870.495922411746	1
0	10199	1871.894819688032	2
0	10201	1872.272600489893	3
0	10204	1874.325628051625	2
0	10210	1875.083684844469	1
0	10215	1875.170524031011	0
0	10231	1876.902627657798	1
0	10232	1877.963955778077	0
0	10240	1878.631187189459	1
0	10241	1879.029043297833	0
0	10258	1880.097640641259	1
0	10261	1880.87229919273	0
0	10267	1880.895984110933	1
0	10268	1881.010715763567	0
0	10274	1882.652676511173	1
0	10277	1883.613735420631	0
0	10283	1884.27326504414	1
0	10286	1884.620633395152	0
0	10292	1885.618465646798	1
0	10295	1886.106043905424	2
0	10296	1886.323851429745	1
0	10300	1886.690738671773	2
0	10308	1890.79502944021	1
0	10315	1892.056676683192	2
0	10316	1892.093656102353	1
0	10322	1893.711257415204	0
0	10341	1895.380383243001	1
0	10343	1895.625754325099	2
0	10345	1897.01803496005	1
0	10350	1897.525275713804	0
0	10363	1898.701932960027	1
0	10364	1898.72142325082	0
0	10384	1901.406568789236	1
0	10395	1904.287227321938	0
0	10416	1906.003194796106	1
0	10418	1906.123623129166	2
0	10420	1908.016158143504	1
0	10429	1910.819157319806	2
0	10431	1912.016734962869	3
0	10433	1912.491839183832	4
0	10434	1912.804760468	3
0	10440	1912.996847344823	4
0	10442	1914.318159068219	5
0	10444	1914.431640676985	6
0	10449	1915.964895960598	7
0	10450	1915.974632417734	6
0	10457	1916.224545491769	7
0	10458	1916.254668161788	6
0	10465	1917.199988818481	5
0	10470	1917.518422647591	4
0	10476	1917.734980704665	5
0	10480	1919.873531905726	6
0	10481	1920.155112125523	5
0	10487	1921.536029504142	6
0	10488	1922.28148221966	5
0	10494	1922.675208959437	4
0	10500	1923.076423224782	5
0	10501	1923.177627859877	4
0	10505	1923.856150363014	5
0	10507	1924.398309863433	6
0	10509	1924.560412556817	7
0	10512	1925.467552649839	6
0	10517	1926.413422291829	5
0	10521	1928.154490703136	6
0	10523	1928.267804680379	7
0	10526	1928.608553893905	6
0	10532	1929.15617010256	5
0	10537	1929.180670500338	4
0	10549	1932.997743079579	5
0	10552	1933.411976386907	4
0	10556	1933.523619215914	5
0	10558	1933.70872558387	6
0	10561	1934.256499933951	5
0	10566	1935.647103589997	4
0	10572	1937.075308816643	5
0	10573	1938.84831939132	4
0	10579	1940.518908739581	5
0	10583	1941.176146685477	6
0	10585	1941.276326314784	7
0	10588	1942.971311557146	6
0	10596	1944.574470256704	7
0	10600	1945.670642662413	8
0	10601	1946.25667324042	7
0	10605	1946.448273525583	8
0	10611	1949.964462229591	9
0	10612	1950.089481408459	8
0	10619	1951.517383021626	7
0	10624	1952.015365919912	6
0	10628	1952.169862954229	7
0	10630	1952.205261733304	8
0	10632	1952.388106118142	9
0	10638	1953.362116222298	8
0	10643	1953.494013745391	7
0	10650	1956.945252816727	6
0	10655	1957.043141511651	5
0	10661	1957.074598238729	6
0	10662	1957.365506349708	5
0	10666	1957.757373681154	6
0	10669	1958.21024993823	5
0	10673	1959.520708894464	6
0	10677	1960.207684290811	7
0	10680	1961.026975040886	8
0	10684	1963.018190172161	7
0	10690	1963.956138022084	6
0	10696	1964.035284915904	7
0	10698	1964.494186860198	8
0	10699	1964.742358002166	7
0	10705	1964.761152757783	8
0	10706	1964.82883351268	7
0	10710	1964.935673688294	8
0	10712	1965.517271277748	9
0	10717	1967.333176825304	8
0	10721	1967.445515847567	9
0	10723	1967.817749172125	10
0	10727	1968.211246602199	11
0	10729	1968.351814105278	12
0	10730	1968.739590074383	11
0	10734	1969.612832363642	12
0	10739	1970.998131484562	11
0	10748	1974.897919667531	10
0	10753	1975.296154596765	9
0	10757	1975.624865698814	10
0	10760	1980.30503306154	9
0	10767	1981.150637287414	8
0	10772	1981.768108588807	7
0	10778	1983.077360949828	8
0	10779	1983.196408203958	7
0	10789	1985.451601551431	6
0	10795	1985.486113795886	7
0	10797	1987.322293597806	6
0	10802	1988.007596044521	5
0	10807	1991.075126119346	4
0	10812	1991.286910522256	3
0	10816	1991.346520890908	4
0	10820	1992.174114700795	3
0	10825	1993.049228590219	2
0	10829	1993.52589004872	3
0	10838	1995.789665330484	2
0	10845	1996.956796019317	1
0	10853	1998.108909831668	2
0	10855	1998.165592521935	3
0	10857	1998.513445776348	4
0	10859	1998.517839791169	5
0	10861	1999.235248758616	6
0	10862	2000.134733831395	5
0	10867	2000.508900720046	4
0	10872	2000.606688914578	3
0	10877	2001.005814117518	2
0	10882	2002.375181826202	1
0	10887	2003.322312282725	0
0	10900	2004.985958948183	1
0	10902	2005.805575669522	2
0	10905	2006.656485385912	1
0	10910	2007.239064091467	0
0	10917	2007.562531099116	1
0	10918	2007.782907840529	0
0	10940	2009.668722848161	1
0	10943	2010.897605289397	0
0	10967	2014.611793019077	1
0	10970	2016.501634592342	0
0	10980	2016.809653419191	1
0	10982	2017.404592285996	2
0	10991	2020.456528175071	3
0	10992	2020.849073279143	2
0	10998	2021.516266286814	1
0	11003	2021.714460123085	0
0	11015	2022.307684328385	1
0	11016	2022.46166079821	0
0	11027	2022.94591680466	1
0	11030	2023.710329051592	2
0	11032	2025.551686468761	3
0	11036	2027.852016474426	4
0	11039	2029.734202506094	3
0	11044	2030.1316415295	2
0	11048	2031.407487184117	3
0	11050	2031.465219607434	4
0	11052	2032.500107730262	5
0	11054	2032.805347224652	6
0	11056	2033.010351272217	7
0	11058	2033.534461976866	8
0	11061	2034.319213561442	7
0	11066	2036.335985973177	6
0	11072	2036.719617338204	7
0	11074	2037.211426691284	8
0	11076	2037.773319433534	9
0	11078	2037.859156999145	10
0	11080	2038.067590372658	11
0	11083	2040.774797818865	10
0	11088	2041.388998886372	9
0	11095	2043.790698875257	8
0	11100	2044.448471316143	7
0	11104	2045.078944568719	8
0	11107	2045.892892253459	7
0	11111	2045.911980590977	8
0	11118	2048.008295086506	9
0	11121	2048.459804193825	8
0	11126	2048.691754197381	7
0	11133	2051.050329717242	6
0	11140	2052.528070811824	5
0	11144	2053.856385996628	6
0	11146	2054.337415264444	7
0	11148	2054.448946837508	8
0	11151	2054.879154394406	7
0	11156	2055.432320841251	6
0	11162	2056.297976812268	7
0	11164	2056.905696402632	8
0	11166	2057.059318330707	9
0	11171	2057.665609918928	8
0	11177	2058.279919407161	9
0	11178	2058.413854653522	8
0	11183	2058.914110286586	7
0	11191	2060.497473391779	8
0	11193	2061.221275005132	9
0	11196	2062.607740881315	10
0	11197	2063.496441332375	9
0	11204	2063.612853147431	10
0	11205	2063.769647856105	9
0	11210	2063.900860599281	8
0	11217	2064.211336689705	9
0	11219	2064.977942215927	10
0	11221	2065.601071586068	11
0	11222	2065.869377958734	10
0	11228	2065.968410927827	11
0	11229	2066.161118404898	10
0	11234	2066.518201851568	9
0	11240	2068.422464931406	10
0	11242	2069.989059056357	9
0	11247	2070.11034430385	8
0	11253	2071.532226302998	7
0	11259	2072.244096891258	6
0	11264	2072.400343489213	5
0	11269	2072.813032247597	4
0	11273	2072.820501526785	5
0	11276	2073.331600857365	4
0	11282	2074.223472063747	5
0	11284	2074.239575231386	6
0	11285	2074.476531855341	5
0	11289	2074.773785899664	6
0	11292	2076.192910551184	5
0	11299	2077.818844427471	4
0	11303	2078.108722561759	5
0	11309	2079.973343109508	4
0	11315	2080.133922999504	3
0	11320	2080.262258525281	2
0	11327	2081.238227453539	1
0	11334	2082.968195731553	0
0	11355	2084.717047463805	1
0	11356	2084.86807070901	0
0	11376	2087.612706529547	1
0	11378	2087.72768479075	2
0	11380	2089.266530456351	3
0	11382	2089.633265046808	2
0	11388	2090.181925952331	3
0	11390	2090.809641321485	2
0	11396	2091.510289436219	1
0	11402	2091.581465213509	2
0	11403	2092.091602936164	1
0	11408	2092.551347073563	0
0	11416	2094.143596373571	1
0	11418	2094.428341433483	2
0	11420	2094.458327010308	3
0	11422	2094.667044887777	4
0	11428	2096.241978429626	5
0	11432	2098.282637499931	4
0	11437	2098.650134872844	3
0	11445	2099.94457542987	4
0	11447	2100.211248482889	5
0	11448	2100.597775476358	4
0	11452	2101.333496536843	5
0	11456	2102.496371345859	6
0	11457	2102.809031398129	5
0	11465	2103.571721938766	6
0	11468	2104.4975780011	5
0	11472	2104.774946509201	6
0	11478	2106.108199503885	7
0	11480	2106.454818385588	8
0	11481	2107.214845038962	7
0	11485	2107.349228328037	8
0	11490	2108.387638207735	7
0	11497	2112.399331514941	6
0	11501	2113.290089223587	7
0	11504	2114.265250676621	6
0	11510	2114.90215644595	5
0	11515	2115.37966101324	4
0	11519	2115.816786989541	5
0	11524	2116.637508965301	6
0	11525	2117.114475298085	5
0	11530	2117.242593198895	4
0	11537	2118.243735610401	3
0	11545	2119.223902361837	4
0	11549	2120.326468846374	5
0	11550	2120.487696962644	4
0	11556	2121.609646965849	5
0	11557	2121.703192073011	4
0	11561	2121.844078544413	5
0	11564	2122.759249765687	4
0	11570	2124.606056816983	5
0	11574	2124.69646979293	6
0	11575	2124.740996887006	5
0	11580	2125.127878485761	4
0	11585	2125.750288363352	3
0	11589	2126.612073604644	4
0	11593	2129.380800737964	3
0	11599	2129.399097071855	4
0	11600	2129.430523522459	3
0	11604	2129.524991861711	4
0	11606	2130.923834697159	5
0	11613	2131.977128182985	6
0	11614	2132.078340076997	5
0	11619	2132.472984532779	4
0	11623	2132.591954294919	5
0	11628	2132.976419774693	4
0	11635	2134.977509121578	3
0	11640	2135.695270831627	2
0	11645	2136.949197648704	1
0	11649	2137.016644713328	2
0	11652	2137.724360480924	1
0	11658	2139.133444605644	2
0	11659	2139.696054054557	1
0	11665	2140.356220067585	2
0	11666	2140.609182020587	1
0	11671	2141.025117217078	0
0	11686	2144.795675657158	1
0	11688	2146.581845800803	2
0	11690	2146.945648757219	3
0	11691	2147.01833379443	2
0	11697	2147.825026389976	1
0	11702	2148.424350252208	0
0	11708	2149.101404730317	1
0	11713	2149.947508553434	2
0	11719	2151.847811786383	1
0	11725	2151.909748336394	2
0	11727	2152.366387228071	3
0	11730	2152.577633556693	2
0	11736	2152.660756001082	3
0	11740	2154.199146020626	4
0	11742	2154.439712428325	3
0	11750	2155.733046527993	2
0	11757	2156.75540930968	1
0	11761	2157.320699277642	2
0	11764	2158.013874502467	1
0	11770	2159.620197898281	2
0	11772	2160.229067699897	3
0	11774	2160.832679575019	2
0	11779	2161.065315785446	1
0	11785	2163.369549031327	2
0	11788	2164.517130443015	1
0	11793	2165.131306831307	0
0	11812	2167.449320021058	1
0	11813	2168.010584697206	0
0	11826	2170.00277527484	1
0	11830	2171.601429712276	2
0	11833	2171.889936058339	1
0	11839	2172.344168395644	2
0	11841	2173.427584133829	1
0	11848	2174.572962408085	0
0	11871	2178.712503052626	1
0	11872	2178.95226905088	0
0	11884	2179.512920469588	1
0	11890	2181.13877501799	2
0	11892	2181.711390007053	3
0	11894	2181.986146190745	2
0	11899	2182.018502078479	1
0	11906	2182.619870952265	2
0	11909	2183.639350909532	3
0	11912	2184.210422696677	4
0	11913	2184.644708623536	3
0	11918	2185.364632968633	2
0	11923	2186.078460081354	1
0	11929	2187.499445815976	0
0	11935	2187.69677198185	1
0	11936	2187.989059581547	0
0	11940	2188.593309127672	1
0	11942	2188.600709143951	2
0	11947	2189.640024210096	3
0	11948	2190.17034454911	2
0	11956	2190.592492976166	3
0	11958	2190.875945100522	4
0	11959	2190.910137643118	3
0	11963	2190.980563390955	4
0	11968	2192.635928332997	3
0	11974	2194.625477265351	4
0	11976	2194.665581637454	5
0	11978	2194.762194320298	6
0	11980	2194.814050224791	7
0	11982	2196.488076610588	8
0	11986	2200.390745461543	9
0	11988	2200.693077807234	10
0	11991	2203.087385111456	9
0	11998	2204.241418697867	8
0	12004	2205.408759022956	9
0	12006	2205.706601248732	10
0	12008	2206.203223266401	11
0	12014	2207.060409962779	12
0	12018	2208.513230095728	13
0	12019	2209.160221636846	12
0	12026	2211.043941316759	11
0	12030	2211.275908107738	12
0	12036	2212.000913793508	13
0	12040	2213.164899169383	14
0	12041	2214.029362032721	13
0	12045	2214.632720791444	14
0	12050	2216.018207895247	13
0	12055	2216.059244020326	12
0	12061	2216.128084878284	13
0	12064	2216.815725269219	14
0	12067	2217.244922485148	13
0	12072	2218.761420759663	12
0	12078	2220.606531845493	11
0	12084	2220.87471482755	12
0	12085	2222.415530992882	11
0	12090	2222.574650945913	10
0	12094	2222.739583519978	11
0	12097	2223.209631458054	10
0	12102	2224.332232780338	9
0	12106	2225.001265334496	10
0	12108	2227.249663777438	11
0	12111	2234.781079320685	10
0	12121	2236.633030698023	11
0	12122	2236.943361842616	10
0	12126	2238.169251882687	11
0	12128	2238.445607537997	12
0	12131	2239.313601500773	11
0	12135	2239.39669239332	12
0	12138	2240.717418115571	11
0	12142	2240.722908915167	12
0	12144	2240.960103175529	13
0	12146	2240.979342948649	14
0	12148	2241.372003769707	15
0	12150	2242.346900029672	16
0	12155	2243.024199312526	17
0	12158	2245.424406119808	16
0	12166	2247.840927491228	17
0	12167	2247.967591859856	16
0	12173	2247.97691185958	17
0	12178	2251.790912734818	16
0	12186	2253.895953918648	15
0	12191	2254.067612084292	14
0	12196	2254.252108128545	13
0	12204	2256.181313283604	12
0	12209	2256.435987471098	11
0	12215	2258.076617818629	12
0	12217	2258.625141780556	13
0	12218	2259.160108073721	12
0	12224	2259.524400039989	13
0	12230	2261.377607788046	12
0	12236	2263.340611031679	11
0	12243	2263.722269372627	10
0	12254	2266.181423643476	9
0	12258	2266.88851843255	10
0	12262	2272.261327682167	11
0	12267	2275.044109638402	12
0	12268	2275.229927561579	11
0	12279	2279.300252783853	12
0	12280	2279.393445681064	11
0	12285	2279.641573699033	10
0	12291	2279.875075993528	11
0	12293	2280.249073198052	12
0	12295	2280.635631139596	13
0	12298	2281.056289009549	12
0	12304	2281.178107589684	13
0	12308	2281.477402784407	14
0	12309	2281.978385320346	13
0	12314	2282.315517915153	12
0	12318	2282.363532698739	13
0	12323	2282.761606606206	12
0	12327	2283.378180290734	13
0	12331	2283.969320872885	14
0	12332	2284.401655418477	13
0	12338	2285.832603634347	14
0	12340	2286.836548665244	13
0	12345	2286.903889463182	12
0	12350	2288.260996249505	11
0	12355	2288.52948709325	10
0	12361	2289.462409015502	11
0	12368	2293.152063277051	10
0	12372	2294.799160360629	11
0	12376	2295.359235912255	10
0	12381	2295.61904996832	9
0	12387	2296.431811372036	10
0	12391	2297.529349495151	9
0	12396	2297.807661717849	8
0	12401	2298.223449110981	7
0	12407	2298.896214811649	8
0	12412	2299.85155090124	9
0	12413	2300.568533505328	8
0	12418	2302.554586541102	7
0	12424	2303.15237743685	8
0	12425	2304.685064890724	7
0	12429	2304.852741683673	8
0	12433	2306.194971581628	9
0	12434	2307.187156023019	8
0	12442	2308.813585778336	9
0	12446	2310.644683173149	10
0	12447	2311.182938673054	9
0	12454	2312.110963194467	8
0	12460	2312.199084627411	9
0	12464	2312.431901750593	10
0	12465	2312.653668709868	9
0	12470	2312.979387341447	8
0	12477	2314.236171518307	7
0	12483	2314.672078114422	8
0	12485	2314.808813779923	9
0	12486	2314.824645543	8
0	12491	2315.684706455552	7
0	12496	2315.856999434138	6
0	12502	2317.327724638625	7
0	12503	2317.859526083396	6
0	12508	2318.69532809113	5
0	12512	2319.059329335899	6
0	12518	2320.512296585762	7
0	12519	2320.512452159115	6
0	12525	2320.65418678828	7
0	12528	2321.029649899207	6
0	12533	2321.267426217103	5
0	12537	2321.845420610859	6
0	12540	2322.918388497891	5
0	12548	2324.140426056264	6
0	12549	2324.476659479764	5
0	12555	2325.26319952433	6
0	12557	2325.415761643133	7
0	12560	2326.173681202953	6
0	12564	2326.293139786366	7
0	12569	2327.839951886103	6
0	12573	2327.893287652849	7
0	12576	2329.385858495093	6
0	12581	2329.871547221391	5
0	12585	2329.959702203848	6
0	12587	2330.105935888136	7
0	12591	2332.431807154872	8
0	12592	2332.998320886021	7
0	12596	2333.061547084037	8
0	12601	2335.605443199412	9
0	12603	2336.0406269539	10
0	12605	2336.367523028696	11
0	12607	2336.46856277443	12
0	12610	2337.094499214361	11
0	12616	2337.216755908167	12
0	12617	2337.329946654148	11
0	12623	2338.258536691808	10
0	12628	2338.50203127375	9
0	12633	2340.659720227185	8
0	12642	2343.438266157875	7
0	12650	2344.40339165145	6
0	12655	2344.550527783583	5
0	12662	2347.031901040742	4
0	12667	2347.798399531051	3
0	12671	2347.946613825486	4
0	12677	2349.231871019005	5
0	12679	2349.765269577833	6
0	12683	2351.523956778196	7
0	12688	2353.303534601322	6
0	12693	2353.486044815766	5
0	12698	2354.921604337494	4
0	12708	2356.82999370657	3
0	12713	2357.1956994911	2
0	12720	2359.048783887733	1
0	12726	2360.006259707437	2
0	12727	2361.507172520466	1
0	12732	2362.899025342717	0
0	12736	2363.511299753833	1
0	12738	2363.722407330889	2
0	12745	2365.675542375262	3
0	12746	2365.835106149306	2
0	12751	2366.00439420614	1
0	12757	2366.618701145814	2
0	12760	2367.451666343917	1
0	12764	2367.682842176067	2
0	12767	2369.311759406032	1
0	12772	2370.470081869	0
0	12785	2372.947534727794	1
0	12789	2373.182830489581	0
0	12793	2373.333844762546	1
0	12797	2373.659067516149	0
0	12826	2376.550222604448	1
0	12830	2377.014627191047	2
0	12833	2377.916839194529	3
0	12839	2379.373877129153	4
0	12840	2380.200842822712	3
0	12849	2381.494377304511	2
0	12855	2382.103411987063	3
0	12857	2382.184186983949	4
0	12858	2382.229047930069	3
0	12863	2383.040203252387	2
0	12871	2385.273060131496	3
0	12873	2385.449401837081	4
0	12875	2385.739287457088	5
0	12876	2386.098775197684	4
0	12882	2386.405220730768	5
0	12884	2386.598642731424	6
0	12887	2386.92716706048	5
0	12893	2387.3283025844	4
0	12900	2387.496862268646	3
0	12906	2389.069457816074	4
0	12907	2389.837881913164	3
0	12912	2391.788446481501	2
0	12918	2393.521725369215	1
0	12923	2393.689038938514	0
0	12931	2394.361545619976	1
0	12932	2395.946902757787	0
0	12948	2398.144967359904	1
0	12949	2398.821363151583	0
0	12962	2400.787931303839	1
0	12963	2400.826053235967	0
0	12997	2404.837579450475	1
0	12998	2405.372773720925	0
0	13004	2405.899590845847	1
0	13007	2406.179122211217	0
0	13033	2411.09446804563	1
0	13035	2414.68372535592	2
0	13038	2417.533098260589	1
0	13044	2418.733092275733	0
0	13071	2421.899769673957	1
0	13076	2422.094286272441	2
0	13078	2422.464013989676	1
0	13084	2422.737468410094	2
0	13085	2422.8878406738	1
0	13090	2423.09764146766	0
0	13102	2424.077755178988	1
0	13106	2424.509730444715	0
0	13115	2424.696892875188	1
0	13118	2426.460354630154	0
0	13127	2426.967470949399	1
0	13129	2427.208957534934	2
0	13134	2428.229863134329	1
0	13138	2428.71362348839	2
0	13142	2429.227244856253	3
0	13144	2429.64774732176	4
0	13145	2429.84556537801	3
0	13149	2430.794326369754	4
0	13153	2431.520765263642	5
0	13154	2431.649801738805	4
0	13159	2432.769611101054	3
0	13163	2434.047195812335	4
0	13166	2434.685626326445	3
0	13174	2436.465930543053	2
0	13180	2436.995418836393	1
0	13184	2437.142769006092	2
0	13194	2441.514583222535	3
0	13195	2442.314475716519	2
0	13205	2443.250964204598	1
0	13210	2443.261864977507	0
0	13230	2444.711037197328	1
0	13232	2445.229744471277	2
0	13234	2445.728746254894	3
0	13237	2447.225182698613	2
0	13243	2447.772229691275	1
0	13251	2448.332667489142	0
0	13276	2450.386250638026	1
0	13280	2450.980450759345	2
0	13283	2451.993652510627	1
0	13291	2456.479117721607	0
0	13302	2456.87757163586	1
0	13305	2457.390517117572	2
0	13306	2458.284660196911	1
0	13312	2458.289852113546	2
0	13313	2458.725676929152	1
0	13318	2458.759493121303	0
0	13322	2459.469868556045	1
0	13327	2460.971095153933	2
0	13328	2460.973684356475	1
0	13333	2461.121611079367	0
0	13363	2465.412394672568	1
0	13366	2466.045681626955	2
0	13368	2466.469568769994	1
0	13376	2467.860601589652	0
0	13392	2469.759304934026	1
0	13395	2470.481553243622	0
0	13416	2473.131641694548	1
0	13418	2474.127112514159	0
0	13432	2476.153280805685	1
0	13434	2477.150218393285	2
0	13435	2477.666178394773	1
0	13442	2478.148750389401	2
0	13443	2478.246632817459	1
0	13450	2479.032378940431	0
0	13490	2481.902454744975	1
0	13492	2481.917167581889	2
0	13496	2482.467008617652	3
0	13498	2483.423911002137	2
0	13505	2483.737759841582	1
0	13511	2483.983618014064	0
0	13525	2484.291050301414	1
0	13527	2484.585965456529	2
0	13528	2484.59605249693	1
0	13534	2486.055244070016	0
0	13543	2488.111900293118	1
0	13545	2488.964687463547	2
0	13547	2489.089775350621	3
0	13551	2490.054916981418	4
0	13553	2490.546885151451	3
0	13559	2491.578155034733	2
0	13564	2491.663603882029	1
0	13570	2492.46886402028	2
0	13572	2494.65150909064	3
0	13576	2496.13347551674	2
0	13582	2496.855828724504	1
0	13588	2498.286888697025	0
0	13604	2501.73940443728	1
0	13607	2502.386638539901	2
0	13610	2503.832012245363	1
0	13615	2504.096077291379	0
0	13625	2505.15790219261	1
0	13626	2506.280059717847	0
0	13632	2506.732529054341	1
0	13634	2506.930740550996	2
0	13637	2507.675834838556	3
0	13638	2507.784805606852	2
0	13645	2507.898916927324	1
0	13651	2508.621670248518	2
0	13653	2508.634908009914	3
0	13654	2508.737983327309	2
0	13660	2509.254445868097	3
0	13661	2509.565410705391	2
0	13666	2509.987430862386	1
0	13671	2510.601323498691	0
0	13683	2512.218946232882	1
0	13685	2512.905620629099	0
0	13696	2513.114209925063	1
0	13699	2513.821317166332	0
0	13705	2514.317551337567	1
0	13706	2515.213947246834	0
0	13712	2515.73548288962	1
0	13714	2515.822912282291	2
0	13716	2516.440069787769	3
0	13717	2516.508922481669	2
0	13721	2517.541117345515	3
0	13723	2517.878246054992	4
0	13727	2519.678484810196	5
0	13728	2519.783646337109	4
0	13732	2520.315320095072	5
0	13734	2521.452558362081	6
0	13736	2521.671786569218	7
0	13738	2521.799306776032	8
0	13745	2523.451616057791	9
0	13746	2524.877243854398	8
0	13752	2525.021338009637	9
0	13754	2525.045151571204	10
0	13755	2525.549550705234	9
0	13760	2526.645453040303	8
0	13769	2527.571974078517	7
0	13774	2527.843912041505	6
0	13779	2527.867725528999	5
0	13786	2529.01435738554	6
0	13788	2529.32203482101	7
0	13792	2529.71929512208	8
0	13793	2530.205940997606	7
0	13798	2530.430995881287	6
0	13802	2530.515501958374	7
0	13805	2533.41370962292	6
0	13810	2533.845430531375	5
0	13816	2536.737713704471	6
0	13819	2536.908299052618	5
0	13823	2538.572350021873	6
0	13825	2538.699039608058	7
0	13828	2540.028219556264	6
0	13832	2540.238758997817	7
0	13834	2541.960705602345	8
0	13838	2542.526998004204	9
0	13843	2544.171215240167	8
0	13848	2545.147599643357	7
0	13854	2546.478227671464	8
0	13858	2547.328460592847	9
0	13859	2547.65898146479	8
0	13865	2547.867285784218	9
0	13866	2548.796509953481	8
0	13871	2551.109222469641	7
0	13876	2551.291818551473	6
0	13881	2551.945338706707	5
0	13886	2552.193068185662	4
0	13892	2552.541486352643	3
0	13898	2552.744192455301	4
0	13900	2552.991859050983	3
0	13905	2553.034283761549	2
0	13910	2553.234172776872	1
0	13919	2554.854877712357	0
0	13927	2556.810934881883	1
0	13930	2557.516024337612	0
0	13934	2557.603370597874	1
0	13937	2557.920065509424	0
0	13977	2563.819780732405	1
0	13978	2564.150109628846	0
0	14010	2570.416151118259	1
0	14011	2571.278383769915	0
0	14025	2573.338040346628	1
0	14033	2574.152545515224	2
0	14034	2574.623187524407	1
0	14040	2574.639207823572	2
0	14041	2574.715278390743	1
0	14048	2574.78879467414	0
0	14059	2576.092357217727	1
0	14061	2576.240411304291	2
0	14062	2576.258215257322	1
0	14066	2577.710387509412	2
0	14068	2577.735172240878	3
0	14072	2578.494984932126	2
0	14076	2578.844523366902	3
0	14082	2580.218202935705	4
0	14085	2580.765817015765	3
0	14091	2581.521206394049	2
0	14096	2582.101148871381	1
0	14106	2583.433373669705	0
0	14139	2587.339455508816	1
0	14140	2587.47596323642	0
0	14157	2589.054415722577	1
0	14160	2589.562709568444	0
0	14189	2593.941302491405	1
0	14199	2595.454299550738	0
0	14227	2600.981975687288	1
0	14229	2601.482287037224	2
0	14231	2604.232729281085	3
0	14236	2605.904800815763	2
0	14241	2605.988851748634	1
0	14246	2606.00311310251	0
0	14253	2607.648399107767	1
0	14254	2607.700930928031	0
0	14260	2607.785594038304	1
0	14263	2608.360740212828	2
0	14266	2608.835489372475	3
0	14268	2609.193701214311	4
0	14269	2609.859633917964	3
0	14276	2610.538445397695	2
0	14282	2610.904453127311	1
0	14288	2611.104277685042	2
0	14294	2612.142763980105	3
0	14295	2612.297080084333	2
0	14300	2612.956947895242	1
0	14307	2613.454666322008	0
0	14333	2616.753029941825	1
0	14336	2616.905140663346	0
0	14352	2619.725295683749	1
0	14354	2619.736591115911	2
0	14357	2620.229070739425	1
0	14363	2621.270775736557	2
0	14366	2621.96658820143	1
0	14370	2622.486159795879	2
0	14377	2625.299766649426	1
0	14383	2625.923023916465	0
0	14396	2626.710685882273	1
0	14401	2629.100584716865	2
0	14406	2631.898396112173	1
0	14411	2632.040410426929	0
0	14419	2632.505241348007	1
0	14421	2634.321486967293	2
0	14423	2634.454693073764	3
0	14424	2634.760809167186	2
0	14429	2636.715715641514	1
0	14434	2638.214860446394	0
0	14469	2642.473521867659	1
0	14472	2643.029369855768	0
0	14486	2644.68050801659	1
0	14491	2645.699020287044	0
0	14538	2654.542094287529	1
0	14540	2654.927529774618	2
0	14542	2655.447189728389	3
0	14545	2656.897656009122	4
0	14547	2658.131432575311	5
0	14548	2658.465900008812	4
0	14556	2659.241012552229	3
0	14561	2659.991115061077	2
0	14568	2660.71990093182	3
0	14570	2661.039400946165	2
0	14576	2661.305708216351	3
0	14578	2661.614732552385	2
0	14584	2663.226803536666	1
0	14589	2663.312396371391	0
0	14595	2664.409628820418	1
0	14597	2664.960605575417	2
0	14598	2665.574600234653	1
0	14605	2667.83930859104	0
0	14609	2667.996527121988	1
0	14612	2668.588885009541	0
0	14618	2669.895167111292	1
0	14620	2670.053012529282	2
0	14624	2670.39738178365	3
0	14626	2671.138652180616	2
0	14632	2671.608297422146	3
0	14635	2672.895918586166	2
0	14639	2673.244930840689	3
0	14644	2674.178811898211	2
0	14651	2675.960092351869	1
0	14659	2677.211529452485	2
0	14662	2677.706638102386	3
0	14663	2678.138570566186	2
0	14669	2678.741646347676	3
0	14671	2678.907750843457	4
0	14673	2679.166354729802	5
0	14674	2679.28449036634	4
0	14678	2679.382096821615	5
0	14681	2679.930812379392	4
0	14689	2680.894333031575	5
0	14692	2681.388823748788	4
0	14700	2682.814703730357	3
0	14705	2683.251317691926	2
0	14714	2684.650619904538	1
0	14720	2684.680750084652	2
0	14721	2684.999813753142	1
0	14725	2685.299820015942	2
0	14729	2686.958039684813	3
0	14731	2687.854420942677	4
0	14732	2688.072833148589	3
0	14736	2688.476373505528	4
0	14739	2690.653057888067	3
0	14744	2692.149379444026	2
0	14749	2692.725622946215	1
0	14754	2693.407233985932	0
0	14758	2693.489207272069	1
0	14761	2694.386516676551	0
0	14799	2698.478746045409	1
0	14801	2698.735580849468	2
0	14802	2698.81625042786	1
0	14809	2698.953663037246	0
0	14821	2700.199527367874	1
0	14822	2700.82032093721	0
0	14838	2706.752361556318	1
0	14840	2707.736903773478	0
0	14849	2709.399804431538	1
0	14852	2709.777732488839	0
0	14858	2709.868059833415	1
0	14859	2710.067381154303	0
0	14865	2711.394862235505	1
0	14867	2711.598887865663	2
0	14870	2712.299035939134	1
0	14875	2712.675639926176	0
0	14879	2712.854953192842	1
0	14885	2715.226954658472	2
0	14886	2715.542526712239	1
0	14891	2716.346614655953	0
0	14899	2716.881492396501	1
0	14901	2718.179482663404	0
0	14910	2720.830475428489	1
0	14912	2722.524120828917	2
0	14913	2722.669411265636	1
0	14918	2722.727016113057	0
0	14922	2723.53839597747	1
0	14928	2724.744016367821	0
0	14942	2726.126729105206	1
0	14943	2726.703027339617	0
0	14969	2728.758597723815	1
0	14976	2730.008552661016	2
0	14978	2730.145709803689	1
0	14983	2730.169379823053	0
0	14998	2733.954941752828	1
0	14999	2734.013264298397	0
0	15030	2736.463201372669	1
0	15035	2737.919031136818	2
0	15036	2738.219604540922	1
0	15041	2738.394891812094	0
0	15055	2740.728796468641	1
0	15059	2741.042239257114	2
0	15061	2741.608721781349	3
0	15065	2742.724632791137	2
0	15070	2742.896029432017	1
0	15076	2743.228591405565	0
0	15082	2744.694659190569	1
0	15085	2745.906842834131	2
0	15089	2746.888524672126	3
0	15092	2747.512643737207	4
0	15093	2747.827131263514	3
0	15098	2747.94444514149	2
0	15104	2748.007763597619	1
0	15109	2749.126336212468	0
[...]
4	154803	27915.07155355481	3590.3553104699
4	154887	27925.887377596006	3593.9441872103
4	155246	27996.341812895033	3656.5276239296
4	155274	28002.033699678017	3662.0597164976
4	155591	28061.967640599878	3720.960467259
4	155617	28066.622602739332	3725.2108154541
4	155622	28067.984648040776	3712.7720996503
4	155627	28068.158100827953	3703.824166072
4	155634	28072.247196818931	3707.8129274489
4	155641	28072.734247164699	3700.4815922869
4	155653	28074.321021079572	3695.8927634738
4	155674	28076.786339540807	3689.9264498514
4	155683	28077.466362724859	3688.3942692414
4	155704	28081.609932570833	3686.6095978314
4	155758	28093.257338719558	3695.9679518063
4	155767	28095.191813337747	3686.7289975851
4	155844	28116.235454269743	3699.2408027174
4	155851	28116.661026288757	3697.4566359199
4	155861	28117.256724438688	3697.5197625322
4	155871	28119.283504624422	3692.2226118821
4	155900	28126.671781128838	3690.0486755064
4	155916	28130.481504809394	3672.2955812882
4	156147	28177.223011156581	3718.4368392404
4	156152	28177.6632235224	3718.8358093151
4	156159	28177.765839211595	3714.9107970408
4	156180	28179.598042647861	3712.0175348491
4	156381	28216.915940775203	3739.2891396743
4	156597	28250.8265803533	3772.0054961458
4	156602	28250.86650337942	3771.6860028257
4	156618	28254.167306556228	3773.7589342571
4	156646	28255.574223314393	3769.2423543414
4	156669	28260.436049631552	3763.0312809512
4	156721	28269.433116024472	3769.4288104773
4	156745	28273.564809517382	3772.721447507
4	156761	28274.174920794563	3773.049987683
4	156778	28276.238021425065	3772.395522117
4	156799	28281.064073548908	3774.4520646751
4	156815	28282.844582941987	3773.5616855032
4	156828	28286.911567089493	3774.06384895
4	157029	28326.871710668837	3809.8487629367
4	157039	28327.777629024056	3809.7662784878
4	157100	28339.488034837512	3817.7234174244
4	157147	28345.717632735976	3821.7892985813
4	157160	28346.106583800138	3816.3808816117
4	157180	28351.01373963853	3807.0273853612
4	157189	28351.396562893489	3795.2441823303
4	157206	28356.808137468943	3793.9857685441
4	157216	28357.683306110192	3787.7588497919
4	157221	28357.858526455842	3782.0550460353
4	157237	28364.578476860487	3783.0764576943
4	157265	28368.615043191931	3786.1815441715
4	157270	28368.7973123795	3774.7985200345
4	157275	28369.170329834534	3767.8313849395
4	157286	28373.361543027398	3759.7344368305
4	157351	28383.585867908353	3763.6631614075
4	157358	28386.079991218406	3764.6096380528
4	157370	28388.519158651622	3761.7392056383
4	157384	28389.894395660873	3758.7468549173
4	157399	28391.420942263941	3758.3270428698
4	157418	28396.953982880924	3762.7561599121
4	157446	28406.666639331745	3770.1281511606
4	157737	28461.443410633177	3823.1187345758
4	157745	28462.395831217827	3823.7986299996
4	157755	28462.76305102647	3821.566420814
4	157761	28463.292265807439	3808.3878020904
4	157776	28465.48973421264	3810.5049901257
4	157820	28471.332885928322	3815.7826969149
4	157841	28473.720036516969	3812.9814429722
4	157851	28476.021259523222	3812.154383367
4	157863	28476.782743223707	3808.3363427515
4	157873	28477.887234826146	3807.044311949
4	157887	28478.549534769986	3801.2144210546
4	157892	28478.874742293403	3799.2298515591
4	157897	28479.349448476717	3799.499850489
4	157904	28480.302560309079	3790.6747539115
4	157926	28484.193785336801	3779.9639440023
4	157947	28485.686801717785	3768.3798120563
4	157952	28486.169035738196	3768.4903470905
4	157957	28488.286971484944	3769.9307071127
4	157962	28488.925652876544	3766.1876069976
4	157970	28491.740063415747	3764.6203376639
4	157975	28492.0852861775	3759.1515963095
4	157980	28493.005004081317	3757.9648686023
4	157993	28495.066586458705	3756.3558062784
4	158058	28503.194654023758	3764.2482449129
4	158065	28503.529258363577	3750.9817801322
4	158076	28504.031526623941	3749.0500963579
4	158084	28505.037658397736	3746.8318401424
4	158089	28505.073312323186	3743.9620641577
4	158105	28507.947737238605	3742.0881533463
4	158131	28512.632148324736	3745.44910005
4	158136	28513.299863342304	3735.6161957292
4	158147	28515.188782241851	3733.6506171785
4	158165	28518.103838099393	3731.1173811368
4	158180	28521.71956271916	3733.4174144957
4	158185	28521.895136584459	3733.2006274016
4	158200	28524.751633857142	3735.0460037096
4	158281	28536.346144622791	3736.0090576896
4	158286	28536.777467512305	3735.5954955292
4	158291	28537.481308862392	3732.6231337814
4	158299	28538.426626687347	3732.829592608
4	158316	28542.819732372361	3722.7509089991
4	158348	28546.953237637989	3719.8235017398
4	158359	28548.23378537335	3715.7613835822
4	158372	28552.856842564775	3719.6313105151
4	158395	28556.652521287537	3708.6038993344
4	158400	28556.809783754778	3695.1874617858
4	158405	28556.9653152894	3692.9229758671
4	158412	28557.110606072919	3691.6935183314
4	158440	28563.600983680015	3683.91468496
4	158476	28570.842540135121	3681.8480692647
4	158484	28571.451229587104	3682.1026095811
4	158494	28572.216160624409	3682.2295570471
4	158504	28573.109080849622	3678.3316000895
4	158514	28574.524370474181	3678.087085312
4	158522	28575.754971062951	3675.4938362568
4	158530	28576.24974999216	3675.8814660548
4	158553	28579.73796991812	3678.8237495973
4	158560	28580.0712408281	3675.5942757009
4	158580	28583.871769157349	3676.4062459669
4	158587	28584.468298989026	3671.1096934659
4	158594	28585.404658180461	3668.6685712676
4	158612	28588.734086260892	3668.1444684183
4	158632	28592.184623212598	3670.2039197871
4	158668	28595.312247928619	3668.0877184051
4	158673	28595.321672121425	3666.9957880117
4	158690	28601.831623065744	3672.6000183845
4	158732	28608.327195494269	3677.6473368488
4	158737	28608.518062651485	3673.1177307223
4	158745	28609.391410238383	3673.1575561847
4	158758	28610.639568956652	3672.5832653557
4	158765	28611.243776456313	3673.1192170108
4	158772	28612.768920593485	3672.4403213789
4	158777	28614.41492337735	3672.2525616729
4	158786	28616.95232290833	3672.8729480434
4	158800	28620.921181323312	3676.107868849
4	158835	28623.011203162533	3678.1533645383
4	158845	28623.930397716042	3676.730773353
4	158857	28625.899766075115	3677.8467352234
4	158866	28629.78766446218	3678.2813319672
4	158889	28632.289701387506	3673.8407340521
4	158906	28636.605373031588	3667.7037067455
4	158918	28638.992480627203	3661.2053236884
4	159041	28658.007690018724	3677.8606786908
4	159055	28660.053215707131	3665.7434769561
4	159249	28700.63678964289	3704.3583643882
4	159259	28702.394524864637	3704.9098389336
4	159264	28702.749036810654	3704.3068096052
4	159270	28703.175260838779	3703.084869159
4	159276	28704.322719069697	3701.5542528251
4	159283	28704.64008664406	3700.405026164
4	159294	28705.726397987456	3700.9846198223
4	159303	28706.277100243913	3700.4599586597
4	159358	28713.074672815472	3704.3779809431
4	159363	28713.132713417658	3702.3468139184
4	159372	28717.104043708277	3692.3809593578
4	159381	28718.833947032296	3693.3974840805
4	159395	28719.900026425643	3694.4373653752
4	159671	28782.965168528658	3756.116015346
4	159689	28784.482839391499	3754.2429074505
4	159700	28787.094711746017	3752.2658904862
4	159713	28788.499143675793	3745.7475964763
4	159718	28788.683928450841	3742.6157177157
4	159723	28788.802868994879	3735.3707968154
4	159730	28790.428511406984	3732.8735434295
4	159736	28791.685766943959	3732.785801857
4	159741	28791.980402529381	3728.1550547259
4	159748	28792.893726426081	3728.8782593109
4	159753	28793.326057246923	3724.2569827695
4	159758	28793.568596249792	3724.2514364935
4	159765	28795.282878328638	3723.6140757199
4	159781	28800.16008882763	3725.9987885855
4	159792	28800.76218191382	3723.1748968264
4	159799	28801.919358475557	3712.1222927452
4	159811	28802.976131548298	3705.62560597
4	159823	28805.829903088523	3703.387564074
4	159834	28806.722917828562	3703.7564873553
4	159847	28809.675330808279	3706.2522353604
4	159903	28820.813828004524	3714.8841459921
4	159912	28821.400041284447	3715.1392074529
4	159922	28821.67061843812	3713.2677143139
4	159927	28822.543484595683	3710.9591366557
4	159936	28826.198604402475	3713.6288555199
4	159947	28827.178659185564	3696.4014106033
4	159955	28828.029588076768	3696.9774327188
4	159969	28829.764590576368	3688.2580556796
4	159976	28830.990823280693	3687.5712451547
4	159994	28841.976332132599	3691.4129863358
4	160001	28843.225442793295	3689.5731423466
4	160017	28846.778137668428	3692.636242404
4	160033	28849.214596928713	3693.0700192744
4	160038	28849.302034740255	3691.4900781529
4	160055	28854.004338366323	3694.3824290961
4	160166	28875.119813865562	3704.4649878837
4	160179	28875.497779436538	3700.9688364561
4	160202	28882.392505417514	3705.6034422877
4	160235	28885.392470480018	3691.9110409712
4	160277	28891.141175727135	3692.3416230074
4	160282	28892.344662951302	3693.0214908064
4	160299	28901.726625033571	3688.8822888867
4	160328	28907.635607730372	3689.8078184451
4	160379	28918.220932205768	3699.4274369387
4	160394	28920.152887250697	3697.8947910829
4	160411	28923.227203196476	3693.6640822835
4	160436	28927.461864621666	3695.3651549467
4	160446	28928.749692956474	3692.473381085
4	161093	29045.218489463496	3804.1159194024
4	161105	29049.233825839681	3798.9100137891
4	161117	29050.475245777916	3796.6152474813
4	161125	29052.358021626578	3795.4444792229
4	161135	29054.002246693457	3794.4127661292
4	161157	29056.765387367566	3795.9144423304
4	161173	29059.129394879906	3796.662475201
4	161181	29060.790331703727	3796.9584282503
4	161188	29061.211224210009	3794.4923681385
4	161197	29062.793600105285	3795.7759588507
4	161204	29064.906894741355	3791.1185118959
4	161211	29066.724738045109	3791.7022054367
4	161226	29071.515053761353	3795.1716725803
4	161232	29072.552950889362	3795.5086278699
4	161237	29072.554839679854	3794.9365168855
4	161242	29072.803115469362	3794.5375867799
4	161247	29073.427387921248	3794.4873451708
4	161258	29075.364180610894	3792.6398225054
4	161279	29078.507497906957	3781.853439368
4	161284	29079.169149643424	3781.3378533106
4	161290	29079.840191941481	3750.1806701411
4	161295	29080.985601659548	3742.0757149566
4	161302	29081.595627745262	3738.2156729649
4	161313	29082.217960445286	3738.5963342623
4	161329	29085.911991800747	3741.5904328626
4	161352	29088.290427707318	3732.5641997752
4	161374	29089.961474755818	3730.4192633221
4	161379	29090.373794872589	3724.3668427813
4	161386	29092.987394120255	3725.6406488156
4	161393	29093.444620861372	3722.9887521747
4	161398	29093.787370053511	3716.1648433528
4	161404	29094.062752096228	3711.0602085071
4	161411	29094.400832579005	3705.6454797176
4	161475	29109.08652702227	3720.1429352033
4	161488	29111.303544758801	3719.7905993088
4	161619	29138.193089400949	3746.2650106523
4	161626	29141.303016640655	3748.6355348582
4	161636	29142.14367497113	3743.4760295452
4	161643	29142.492971176385	3743.698958144
4	161663	29144.542117853217	3735.4706313396
4	161668	29145.297707273357	3732.360991165
4	161673	29146.288067174771	3725.7864433352
4	161678	29147.15221246859	3723.3040651643
4	161688	29150.975179002929	3724.4926103714
4	161693	29151.615375010877	3722.9429007488
4	161698	29152.34175844653	3710.6822428047
4	161703	29155.162637595357	3710.3686151526
4	161710	29157.438259153247	3709.0429565262
4	161783	29165.714537586919	3705.7498514737
4	161840	29174.735951374045	3713.9822735972
4	161849	29175.415862396025	3710.3142621394
4	161860	29176.807555511141	3710.5644213509
4	161866	29176.888417313054	3697.4726790152
4	161872	29177.907555226331	3696.2540482663
4	161883	29182.318103128664	3696.2609296377
4	161957	29190.310609983827	3703.2464161093
4	161969	29191.525604161143	3704.2135415551
4	161987	29193.894821241195	3702.367950563
4	162003	29194.731277733279	3702.2175040896
4	162009	29194.996983215659	3696.5206638853
4	162014	29195.042470628944	3689.6798232554
4	162019	29195.133591713369	3685.6137755624
4	162032	29197.868611683933	3685.123452446
4	162062	29200.700239726088	3685.3949912787
4	162069	29202.74192027599	3687.0832909737
4	162079	29203.845118424204	3687.0321441001
4	162104	29206.856840535223	3689.1821521905
4	162110	29207.548089549143	3689.3851485412
4	162117	29207.95989116276	3679.3812549355
4	162134	29209.972084926128	3678.3886424804
4	162149	29211.206453256901	3674.1868041447
4	162163	29213.519377810805	3674.2224766641
4	162187	29216.126574533981	3671.6104099301
4	162192	29216.60780572888	3664.3075371485
4	162199	29218.197237765971	3662.2778658745
4	162209	29219.420172930765	3646.5429028883
4	162269	29239.593259097822	3660.3428785085
4	162279	29240.267123778392	3654.8913738739
4	162284	29240.316063510042	3651.2991469389
4	162289	29240.477421007958	3647.4469348422
4	162295	29241.100354112117	3643.5524906522
4	162300	29241.241393841157	3641.3344625571
4	162310	29248.830930112257	3647.9981014303
4	162324	29249.817388224624	3638.2359052692
4	162346	29255.88556203539	3641.4664686089
4	162385	29262.809336250086	3645.5269806249
4	162391	29263.547806410383	3643.2540879659
4	162397	29264.096312171365	3642.6764436689
4	162402	29264.194991961426	3640.0449976423
4	162412	29265.276537085079	3639.142693101
4	162417	29265.420184810397	3638.7757512777
4	162428	29268.603501529898	3637.5716063909
4	162443	29270.221800544493	3636.8583759189
4	162458	29271.743440960659	3630.7519822253
4	162463	29272.03114077962	3630.287351014
4	162468	29272.475680701599	3630.2343678624
4	162479	29273.909022761224	3626.8223719839
4	162493	29275.113733519856	3623.883290661
4	162503	29275.964359976631	3619.1233154237
4	162511	29276.690937183239	3618.7010585374
4	162517	29276.824651911011	3616.5810982981
4	162525	29277.360265721744	3600.7847497636
4	162530	29278.759163837277	3599.1083068458
4	162536	29279.853297581072	3599.8247387306
4	162542	29279.93135637391	3596.327702243
4	162550	29280.898098911922	3596.8593521042
4	162560	29282.215399214102	3594.3122498774
4	162567	29283.57187654842	3593.8275054578
4	162574	29284.246636799261	3591.8627768677
4	162582	29286.211382105298	3593.5785523762
4	162596	29287.656039885379	3593.4805901184
4	162622	29291.589252304189	3576.8700021205
4	162636	29292.414505028873	3577.3029358377
4	162648	29294.87563465691	3563.8433883169
4	162653	29296.077521526136	3561.8637996355
4	162664	29301.794118809486	3566.8633365976
4	162751	29315.421006892296	3579.4274684925
4	162759	29315.735925856956	3577.8659866732
4	162796	29322.048262324733	3581.1157704041
4	162802	29322.675366226999	3580.292638644
4	162812	29323.138769335979	3576.9280414569
4	162831	29325.430520347474	3577.6355443812
4	162838	29325.557603038773	3571.5196717066
4	162845	29327.009526935798	3564.7810277473
4	162892	29333.440839287266	3567.4561007563
4	162900	29334.847640281531	3568.5926012263
4	162937	29338.740101262632	3569.4002351873
4	162944	29339.080892134205	3558.7436929789
4	162960	29342.766769959809	3559.406808744
4	162994	29348.44731764564	3562.9366171526
4	162999	29348.530234627843	3561.5205676644
4	163004	29348.744547274906	3552.0412283708
4	163011	29349.984563485718	3549.6993702267
4	163028	29354.885630761821	3549.1835260237
4	163033	29355.134776813645	3549.1233435817
4	163038	29355.564324140609	3549.2222271454
4	163047	29356.004387074883	3547.6046225508
4	163104	29364.328395648583	3552.0547190533
4	163123	29369.349776127617	3556.8978889755
4	163133	29370.500204919504	3555.82934588
4	163277	29391.155613831973	3575.4623794253
4	163295	29394.832472749366	3577.523897246
4	163302	29396.62741893924	3574.8885686552
4	163309	29398.435296858128	3574.0466048737
4	163358	29408.666666571869	3579.4615510442
4	163481	29431.1445660052	3592.7641309634
4	163609	29454.303816752168	3611.2991987221
4	163615	29454.923090556681	3611.7217582822
4	163620	29455.889538540997	3605.7264047362
4	163628	29458.61288692209	3608.3486898557
4	163633	29459.007039818874	3607.3483935674
4	163648	29462.22309942628	3610.1120716013
4	163776	29483.946338116606	3625.627457802
4	163781	29484.740059717068	3624.887313912
4	163786	29484.788032805988	3615.5111230965
4	163794	29486.589688270094	3610.3485244732
4	163805	29487.937195704029	3606.9903138996
4	163815	29492.459807731153	3599.4983424372
4	163834	29494.492793286782	3597.8756808917
4	163847	29496.225253687452	3595.3392438866
4	163868	29498.876401078163	3595.3652240502
4	163874	29499.832590496377	3593.7767148258
4	163880	29499.942042773148	3593.5547635762
4	163891	29503.980954609881	3597.4610202011
4	163926	29508.108185446044	3600.6828152397
4	163936	29508.742785189588	3600.0139419522
4	163943	29509.866744574758	3599.7328029775
4	163956	29511.445561079985	3601.1608808055
4	163961	29511.589339082833	3601.06721787
4	163967	29515.294669821014	3604.4287274433
4	163982	29518.219895367949	3606.9531929482
4	164102	29540.846973338471	3629.5056825401
4	164109	29541.337475213213	3628.3429137562
4	164122	29544.913909983953	3629.5798543964
4	164133	29547.457611531895	3616.8956447841
4	164145	29549.195156871371	3606.6408567043
4	164212	29563.693550214936	3612.0438322957
4	164220	29564.384383795063	3611.0512490255
4	164233	29565.90717710057	3610.7050775293
4	164238	29566.08059286873	3604.483803167
4	164243	29566.275757454281	3603.3131766751
4	164248	29568.538212001185	3589.5403852376
4	164261	29572.691615592805	3580.2264745489
4	164279	29575.226637866585	3576.9717459483
4	164285	29575.653323173102	3573.7634695408
4	164290	29576.042114920011	3562.6043227559
4	164301	29578.666792556035	3564.9169170058
4	164339	29583.428896867865	3568.9787021044
4	164349	29584.635625511646	3567.7055195479
4	164360	29585.860492586534	3561.1439802691
4	164436	29599.357542994224	3567.3959973788
4	164441	29600.04941672524	3564.9590316076
4	164453	29600.929749071793	3545.3887972092
4	164474	29603.521909626718	3544.4353337685
4	164479	29603.544589831705	3538.3308015523
4	164484	29603.988175196895	3538.0812654784
4	164493	29607.276143977019	3539.482933124
4	164523	29614.382940242915	3544.2881614756
4	164639	29645.483120939326	3570.4138691187
4	165001	29734.716965274873	3659.065141411
4	165014	29735.565986438666	3656.8785910738
4	165019	29735.903294040291	3649.2349543425
4	165024	29736.121094338872	3638.6736610386
4	165037	29737.518939238814	3639.803753564
4	165098	29745.508541916259	3640.8284786912
4	165112	29749.307721113867	3643.3518334629
4	165138	29751.904960168113	3633.6474227546
4	165143	29752.015296043991	3631.5399784405
4	165151	29753.225457864854	3623.8835107083
4	165173	29762.098377643949	3623.2463252794
4	165433	29820.408087749426	3673.3419298429
4	165445	29822.279783881187	3671.6275234011
4	165451	29822.638118605313	3652.3963818288
4	165458	29822.960063482325	3647.8985613419
4	165473	29826.523499512491	3650.1558971589
4	165490	29828.512856247634	3649.4341265016
4	165498	29830.760641966527	3650.5170075441
4	165510	29831.995753844744	3650.0719789914
4	165530	29837.640085457089	3649.8091375333
4	165572	29844.861847047794	3656.6168843267
4	165578	29846.060967070902	3640.7088759886
4	165583	29846.31210880232	3640.3262978632
4	165599	29849.029828543795	3635.5402217895
4	165630	29852.598791977797	3636.4037789334
4	165779	29875.467239716415	3654.9889105762
4	165789	29876.15785254406	3652.8838455043
4	165796	29876.8131592406	3650.0562165725
4	165821	29883.637313826532	3654.1875245364
4	165847	29889.461319380971	3659.5326851503
4	165855	29890.326025388161	3659.0644551992
4	165861	29891.352747751172	3655.870238307
4	165866	29891.548881679346	3655.8824941133
4	165878	29894.671862028101	3658.9632792019
4	165911	29896.979699091404	3654.5064255524
4	165923	29898.056090163346	3647.9122881612
4	165931	29899.753610291802	3647.3590746749
4	165949	29904.431868029864	3650.5018210937
4	165993	29911.798079189353	3656.1832102613
4	166006	29912.587149636814	3654.2154350515
4	166028	29915.823223475093	3653.5883209965
4	166044	29917.68813640971	3654.4028135925
4	166062	29920.465343220229	3651.8129125474
4	166070	29921.940962914116	3652.1255033406
4	166081	29922.471319353469	3643.5539754544
4	166090	29924.433137173163	3642.2389331932
4	166095	29925.354218558807	3640.0120112005
4	166100	29927.462269034093	3641.7774719197
4	166105	29928.015710710452	3639.6037614864
4	166122	29933.54132035223	3643.48386974
4	166303	29974.789504991608	3676.3856630633
4	166316	29976.942205925229	3676.4931320726

