version 2
run First-n5-1-20191016-14:52:37-120
attr configname First-n5
attr datetime 20191016-14:52:37
attr experiment First-n5
attr inifile omnetpp.ini
attr iterationvars ""
attr iterationvarsf ""
attr measurement ""
attr network org.omnetpp.queueing.Pizza
attr processid 120
attr repetition 1
attr replication ""
attr resultdir results
attr runnumber 1
attr seedset 1
param **.PS.maxInventoriedPS 5
param **.U1.interArrivalTime exponential(2s)
param **.U2.interArrivalTime exponential(4s)
param **.PS.serviceTimeForInventoryU1 exponential(0.8s)
param **.PS.serviceTimeForInventoryU2 exponential(1.0s)
param **.PS.serviceTimeDirectU1 exponential(1.2s)
param **.PS.serviceTimeDirectU2 exponential(1.4s)
param **.PS.probabilityProducing 0.5
param **.CS.serviceTimeU1 exponential(0.8s)
param **.CS.serviceTimeU2 exponential(1.0s)

vector 0 Pizza.EntryQueueU1 queueLength:vector ETV
attr interpolationmode sample-hold
attr title "queue length, vector"
vector 1 Pizza.CS queueLength:vector ETV
attr interpolationmode sample-hold
attr title "queue length, vector"
vector 2 Pizza.EntryQueueU2 queueLength:vector ETV
attr interpolationmode sample-hold
attr title "queue length, vector"
vector 3 Pizza.sink lifeTime:vector ETV
attr interpolationmode none
attr title "lifetime of arrived jobs, vector"
attr unit s
vector 4 Pizza.sink lifeTimeU2:vector ETV
attr interpolationmode none
attr title "lifetime of arrived jobs, vector"
attr unit s
0	0	0	0
0	5	3.627462129344	1
0	7	3.627690904589	2
0	9	3.901908065775	3
0	13	4.530428224701	2
0	17	4.621933561487	3
0	20	5.182127811435	2
0	24	5.60368787706	3
0	26	7.151607417611	4
0	31	9.396866798728	3
0	37	10.008433400689	2
0	44	10.662839249793	1
0	50	10.897254751353	2
0	51	11.669781018733	1
0	56	11.747695610033	0
0	69	17.877384684236	1
0	73	18.249635262153	2
0	75	18.456685966464	3
0	76	19.06859720885	2
0	81	20.149097756203	1
0	85	20.254892129289	2
0	87	20.695065818721	3
0	90	21.185866746755	2
0	95	23.003373512305	1
0	101	23.049579000559	2
0	104	23.808119311178	1
0	110	25.935566546714	0
0	150	32.044200337266	1
0	152	32.2601157313	2
0	153	32.673669105986	1
0	158	33.622052096983	0
0	164	33.784889437194	1
0	166	33.88737804696	2
0	169	34.244320173384	1
0	176	36.558785036523	0
0	182	36.787850415703	1
0	184	37.083632016244	2
0	185	37.18138001185	1
0	191	38.271974682015	2
0	192	38.499055660051	1
0	197	38.643653922786	0
0	203	39.22026899017	1
0	205	40.116787781064	2
0	206	40.743083562892	1
0	210	40.971491120843	2
0	213	42.794361407153	1
0	219	43.750587238759	2
0	220	43.893878232384	1
0	229	45.705176685415	2
0	231	46.298516316329	1
0	238	48.976794399736	0
0	254	50.229718475498	1
0	258	51.278677993194	2
0	261	53.058287621417	1
0	269	54.231947772957	2
0	270	54.243613039817	1
0	275	54.250852090041	0
0	289	55.960454378477	1
0	291	55.992349843714	2
0	294	56.619036354104	3
0	295	57.630315091815	2
0	300	58.271480169692	1
0	305	58.329606830041	0
0	338	60.448359755219	1
0	339	60.586722571814	0
0	357	62.561627226875	1
0	360	63.759001944282	0
0	367	64.249877428003	1
0	369	64.934182108589	2
0	370	65.100297762566	1
0	376	65.464651981203	2
0	377	66.416785979546	1
0	384	67.363044903934	2
0	385	68.010175839093	1
0	390	68.457603886504	0
0	406	70.112738293143	1
0	409	70.624354182055	2
0	411	70.697680980049	3
0	412	71.274680337325	2
0	418	71.38587816894	1
0	423	71.743926943424	0
0	440	72.338356039912	1
0	443	74.079838760198	2
0	445	74.1824634219	3
0	446	75.083756554675	2
0	454	75.367589635999	1
0	460	77.155689399685	0
0	472	77.934861472683	1
0	475	78.895109108183	0
0	482	79.617466584782	1
0	484	79.933191439594	2
0	489	80.8897184992	3
0	493	82.475557200378	2
0	498	82.589054425862	1
0	503	82.958789723163	0
0	516	83.625326673446	1
0	519	83.825647706415	2
0	522	84.255587502073	3
0	523	84.704922097613	2
0	528	85.299919397081	1
0	536	86.295897135927	2
0	538	86.907037430156	3
0	539	87.370087404365	2
0	545	87.691693488511	3
0	547	88.432706933228	2
0	553	89.171067070984	3
0	555	89.532687141122	4
0	558	90.33988066457	3
0	564	91.39994408892	2
0	569	93.780943866001	1
0	577	94.908360908526	2
0	579	95.3634431156	3
0	580	96.463517723235	2
0	587	98.559912241923	1
0	595	99.720250442905	0
0	601	100.307969480946	1
0	602	101.041871048776	0
0	643	105.328010701012	1
0	646	105.883026778308	0
0	652	106.173446841759	1
0	654	106.580872993394	0
0	680	110.705572273016	1
0	684	112.1951490224	0
0	714	114.692860467832	1
0	719	116.413172647975	2
0	720	117.011304920574	1
0	725	117.246482635225	0
0	757	123.936859666237	1
0	759	123.946208106183	2
0	763	124.725433949404	3
0	769	126.774221308463	2
0	776	126.947545472688	3
0	778	127.184857024646	2
0	784	127.226517285083	3
0	789	128.319681131357	4
0	796	128.959817091589	5
0	798	129.456397014281	6
0	799	130.09851727317	5
0	807	132.283640273216	4
0	812	132.296920098533	3
0	819	132.651799202368	4
0	823	133.841174462239	3
0	828	134.310487814707	2
0	833	134.326094052562	1
0	838	134.381601597477	0
0	863	136.582362312279	1
0	867	137.695699581571	0
0	878	138.741934920934	1
0	881	139.490652369189	2
0	884	139.724636344345	1
0	889	139.922055702651	0
0	972	150.439239626785	1
0	973	151.822462680658	0
0	1027	162.133481928801	1
0	1031	163.693330925539	2
0	1032	164.241181469753	1
0	1037	165.050992060424	0
0	1060	171.05042613519	1
0	1062	171.112168828676	2
0	1063	171.329506761933	1
0	1069	171.866351364746	2
0	1073	172.915917822547	1
0	1081	174.389064554297	0
0	1093	175.138283133243	1
0	1094	175.657385959396	0
0	1102	176.359484196049	1
0	1105	177.352618085308	0
0	1122	178.941307989453	1
0	1124	179.303607613074	2
0	1126	180.262959725664	3
0	1127	180.646620188031	2
0	1132	181.219165903637	1
0	1137	181.417447026093	0
0	1143	181.661276277678	1
0	1145	182.257557134618	2
0	1147	182.323271126769	3
0	1148	182.720999930047	2
0	1154	183.221392972218	1
0	1162	183.785125537317	0
0	1168	183.984454974387	1
0	1171	184.143750198655	0
0	1175	184.215318794714	1
0	1177	184.309106910013	2
0	1180	185.839961618564	1
0	1184	187.557836814992	2
0	1187	189.079838109828	1
0	1193	190.219420783988	2
0	1197	190.859588410637	1
0	1203	191.599641001388	0
0	1210	192.355485262708	1
0	1211	192.364261122328	0
0	1215	192.411838463427	1
0	1219	195.223702135577	2
0	1223	196.228261551854	3
0	1226	197.432699525922	4
0	1227	197.635719305073	3
0	1232	198.155900586553	2
0	1236	198.628688989404	3
0	1240	199.91361205294	4
0	1243	200.943254296277	5
0	1244	203.299202096149	4
0	1249	203.329414302462	3
0	1254	204.63243567554	2
0	1259	205.564497267708	1
0	1263	205.644414688755	2
0	1265	205.665251371488	3
0	1268	207.052475097892	2
0	1274	207.542390970676	3
0	1275	208.253756398714	2
0	1280	211.475960862826	1
0	1286	212.258629575351	2
0	1288	212.573243429336	3
0	1290	212.735183931174	4
0	1292	213.078493388869	5
0	1296	214.989098328355	6
0	1297	215.21730375461	5
0	1303	217.370588970557	6
0	1306	219.045628789254	5
0	1321	226.571984693934	6
0	1323	226.889489391838	7
0	1324	227.385816377041	6
0	1330	228.75361721276	5
0	1337	230.654477400615	6
0	1339	231.274710990809	7
0	1340	231.98629563779	6
0	1347	232.54343564233	5
0	1356	234.476691446144	4
0	1362	234.490201612624	5
0	1364	234.581947296709	6
0	1365	234.931444402447	5
0	1371	236.018026983023	6
0	1373	236.080903065062	7
0	1376	236.410038933922	6
0	1382	236.810235541283	7
0	1384	236.865568412111	8
0	1386	237.176404685376	9
0	1387	237.250019128634	8
0	1393	238.652908228327	9
0	1394	239.257987716525	8
0	1399	241.176660065618	7
0	1406	242.341288916808	6
0	1410	243.010847305651	7
0	1417	243.696100775176	8
0	1419	244.442418648029	9
0	1422	244.968962928916	8
0	1427	246.954388328624	7
0	1435	247.86762762766	8
0	1438	248.795809959711	9
0	1442	250.222545124047	8
0	1447	250.603487266817	7
0	1452	251.422822488566	6
0	1458	252.150840346733	5
0	1464	252.304510863753	4
0	1469	252.390585842764	3
0	1475	253.147705748467	4
0	1477	253.512702057652	5
0	1479	253.922156405882	6
0	1480	254.386847179206	5
0	1484	255.07966751456	6
0	1486	255.429365936201	7
0	1490	255.97917568486	8
0	1491	256.522208526725	7
0	1499	257.28107727019	8
0	1500	257.295066320582	7
0	1506	257.579736025871	8
0	1507	257.880603319563	7
0	1513	257.971895617342	8
0	1514	258.557112293898	7
0	1522	263.237516384419	8
0	1524	264.44282928134	9
0	1527	265.723464555631	8
0	1531	266.247469974748	9
0	1536	268.531836683748	8
0	1540	269.13636757823	9
0	1542	269.332866184162	10
0	1544	269.762871171615	11
0	1546	269.898083945874	12
0	1550	270.039854110543	13
0	1551	270.39838653071	12
0	1555	270.810734741838	13
0	1561	272.665842619476	14
0	1564	275.016379030319	13
0	1569	277.886979258393	12
0	1574	279.531431072761	11
0	1580	279.874006973082	12
0	1581	279.895633862833	11
0	1586	281.41265770299	10
0	1593	282.827297625702	11
0	1595	282.849194528153	12
0	1596	282.932020867822	11
0	1602	283.086535843632	12
0	1603	283.232374704641	11
0	1607	283.857722076751	12
0	1618	289.952905599131	11
0	1623	290.231903325259	10
0	1631	291.279686672227	9
0	1636	292.176002527709	8
0	1640	292.17657083756	9
0	1644	295.03866168014	8
0	1650	295.117227168089	9
0	1651	297.192291052016	8
0	1657	298.438570744189	9
0	1660	298.804292494504	8
0	1666	300.832810897601	9
0	1668	301.121952018985	10
0	1670	302.455399255837	9
0	1676	302.985382596741	8
0	1682	303.18963069656	9
0	1685	304.404830606612	8
0	1689	305.138469444363	9
0	1692	305.831188877112	8
0	1698	306.831377174588	7
0	1704	307.378335904723	8
0	1705	307.466853467486	7
0	1713	308.034988512261	6
0	1719	308.247391523969	7
0	1722	308.800185842178	6
0	1727	309.182943921551	5
0	1733	309.375270539927	4
0	1738	309.853491248539	3
0	1744	311.220056649738	4
0	1746	311.338383411645	5
0	1747	311.353548084852	4
0	1753	311.75994668267	3
0	1758	311.882951069453	2
0	1763	312.720270385495	1
0	1768	313.863462550257	0
0	1772	314.06723900893	1
0	1775	315.225422293071	0
0	1801	317.283881452371	1
0	1807	318.569471737737	0
0	1818	319.208019168889	1
0	1821	319.511328146185	0
0	1833	320.243726038758	1
0	1835	320.95389820712	0
0	1860	324.508204255984	1
0	1865	326.879913063497	0
0	1882	327.556393409826	1
0	1883	327.706852221179	0
0	1906	330.109275072387	1
0	1907	330.118633191051	0
0	1913	330.337999841928	1
0	1915	330.563405483076	2
0	1916	330.852425803968	1
0	1921	331.008421738695	0
0	1951	333.628589070612	1
0	1953	334.017091615656	2
0	1957	334.622721497758	3
0	1959	335.128207416229	2
0	1965	335.783001257183	1
0	1970	335.970355494124	0
0	2007	342.663674481122	1
0	2009	343.114532027626	0
0	2017	343.69155517455	1
0	2018	344.090842279712	0
0	2029	344.238628910628	1
0	2031	344.53032210912	0
0	2072	349.054153782497	1
0	2075	350.291817792101	0
0	2083	350.653567237397	1
0	2084	351.14604218197	0
0	2095	351.788293971613	1
0	2096	352.741681872709	0
0	2130	360.489605138665	1
0	2132	361.923440110766	0
0	2139	362.447729189252	1
0	2141	362.609530244648	2
0	2142	362.696106840175	1
0	2148	362.738626771776	2
0	2153	365.033384664313	1
0	2161	366.603717730091	0
0	2167	366.670346336304	1
0	2168	366.719126886657	0
0	2197	370.291603203563	1
0	2207	373.265078303248	0
0	2235	375.896257452311	1
0	2238	376.206542033697	2
0	2239	376.754645652098	1
0	2245	376.951476199759	2
0	2246	377.174906138684	1
0	2251	377.59284961816	0
0	2276	381.941508011767	1
0	2278	381.953559306969	2
0	2279	382.286600150062	1
0	2284	382.311955003646	0
0	2301	382.838370985379	1
0	2305	382.988820244077	2
0	2306	383.32386495214	1
0	2311	383.486914680143	0
0	2322	383.786140232342	1
0	2323	384.304661864158	0
0	2351	390.923765269135	1
0	2353	391.544868733336	0
0	2383	394.22228172834	1
0	2385	394.666315767531	0
0	2399	395.619231212147	1
0	2401	396.025798936783	2
0	2402	396.810771964564	1
0	2407	397.258970026795	0
0	2440	404.088421054225	1
0	2444	406.031195705875	0
0	2451	406.315456973817	1
0	2452	406.539986183948	0
0	2481	414.936398677305	1
0	2485	416.109115599885	0
0	2491	416.289835306277	1
0	2492	416.415138044265	0
0	2498	416.423696691547	1
0	2499	416.466952844317	0
0	2505	416.532597543249	1
0	2508	417.631566427332	2
0	2510	417.859043859006	3
0	2512	418.072892948686	4
0	2515	418.845141951062	3
0	2520	419.113099415285	2
0	2525	419.163482506684	1
0	2531	420.027472856386	2
0	2532	420.136101129269	1
0	2536	420.537266961147	2
0	2538	420.707179422182	3
0	2541	421.463976431014	2
0	2545	421.658677524396	3
0	2552	424.27154620408	2
0	2557	425.772703297583	1
0	2562	425.817868744445	0
0	2584	427.971779814351	1
0	2588	429.195743213814	0
0	2601	429.995953460922	1
0	2603	430.001078367792	2
0	2605	431.626773617824	3
0	2609	431.760847184835	4
0	2610	431.822527884861	3
0	2615	431.870635927721	2
0	2621	432.713148340539	1
0	2627	432.87236630748	0
0	2647	435.509120452194	1
0	2648	435.542157476589	0
0	2665	436.015148772745	1
0	2667	436.580793895329	0
0	2712	442.748979489744	1
0	2715	443.168463636567	2
0	2719	443.838040572605	1
0	2725	443.854283865919	2
0	2729	446.008053585236	3
0	2730	446.147671595014	2
0	2737	446.339227877125	3
0	2738	446.483189899607	2
0	2744	447.418532491554	3
0	2745	447.627685384264	2
0	2750	447.937423709851	1
0	2756	448.449059578564	2
0	2757	448.590420757079	1
0	2762	448.784169422141	0
0	2770	449.137841636188	1
0	2771	451.322910949536	0
0	2845	462.819847468702	1
0	2846	463.143145269471	0
0	2852	463.487444232645	1
0	2854	464.125298107518	0
0	2860	464.316708402821	1
0	2862	465.063777858232	2
0	2863	465.243414828062	1
0	2868	465.558996036531	0
0	2881	466.966745838927	1
0	2886	468.062562267849	2
0	2887	468.074218058317	1
0	2893	468.147281696221	2
0	2895	468.222919436922	3
0	2896	468.402969333364	2
0	2900	469.643140739024	3
0	2904	470.273764217289	2
0	2909	472.373782064919	1
0	2914	472.538422680872	0
0	2928	473.911249516766	1
0	2929	474.547119793317	0
0	2935	475.119449448083	1
0	2939	476.176724075551	0
0	2951	477.041298864354	1
0	2952	477.222467964034	0
0	2956	477.680983426298	1
0	2959	478.736984081013	0
0	2969	481.4526379339	1
0	2971	481.988584703589	2
0	2977	482.813326414617	1
0	2982	483.325940160946	0
0	2986	483.435883120521	1
0	2988	483.704187676061	2
0	2993	484.549522362197	1
0	2999	485.312023758842	0
0	3012	490.385224123103	1
0	3013	490.70414168382	0
0	3030	492.830999476554	1
0	3032	493.432012644168	2
0	3034	493.56624103164	3
0	3036	493.681901003799	2
0	3041	494.648768516329	1
0	3047	494.973024192257	2
0	3048	495.391716042111	1
0	3052	496.346371342488	2
0	3054	496.370676050953	3
0	3056	496.955232059251	4
0	3059	497.220961690825	3
0	3063	498.228070287895	4
0	3066	499.355252751091	3
0	3072	500.59745377392	4
0	3075	502.172016995227	3
0	3079	502.310997191592	4
0	3082	503.361071770703	3
0	3086	505.937317321043	4
0	3091	507.044899966805	3
0	3096	507.987591253216	2
0	3103	509.044742345517	1
0	3107	510.059517495912	2
0	3110	510.699672219716	1
0	3114	511.39350485778	2
0	3116	511.512604762107	3
0	3119	513.143790268626	2
0	3125	513.473310414396	3
0	3128	514.547258391632	4
0	3129	515.110109932729	3
0	3135	515.307327433313	4
0	3136	515.316092122056	3
0	3141	516.622615047116	2
0	3147	517.398213944681	3
0	3153	518.357375743569	4
0	3156	520.07026238956	3
0	3162	522.084391793429	4
0	3166	522.576185645701	5
0	3167	523.190638258709	4
0	3171	523.636372391272	5
0	3174	524.923066648252	4
0	3180	525.426585139579	5
0	3182	526.256184333953	4
0	3187	526.501215885957	3
0	3192	527.876327444118	2
0	3197	529.492484923661	1
0	3202	530.333764922008	0
0	3206	531.34768221672	1
0	3209	533.355044143438	0
0	3213	533.449818361517	1
0	3215	533.555365143525	2
0	3220	534.786829344722	1
0	3225	535.356323619172	0
0	3243	537.01381525235	1
0	3246	539.149391506258	0
0	3265	540.118996680006	1
0	3267	540.536050291598	0
0	3274	541.533973426099	1
0	3277	542.262490097066	2
0	3278	542.675106687376	1
0	3285	542.899352025059	0
0	3293	543.191820547848	1
0	3295	543.479516417045	2
0	3297	543.62884976471	3
0	3299	544.740244827174	4
0	3300	545.623165692926	3
0	3307	548.082892618402	2
0	3313	550.263460477559	1
0	3319	551.156407458728	0
0	3330	551.826918088439	1
0	3332	552.463293452362	0
0	3340	553.698566757252	1
0	3341	553.884052476884	0
0	3360	556.736352364765	1
0	3363	558.260532103913	0
0	3379	558.822059292726	1
0	3382	559.25302464696	2
0	3384	559.992619990788	3
0	3385	560.241357200366	2
0	3391	561.823382332724	3
0	3392	562.140205519925	2
0	3398	562.280776615166	3
0	3400	562.535886478402	2
0	3406	563.065555091638	1
0	3411	563.38640503537	0
0	3417	563.519091346225	1
0	3419	563.919922513472	2
0	3423	565.038702809	3
0	3424	565.558808846311	2
0	3429	566.434347011121	1
0	3435	567.179134016666	2
0	3437	567.283603809008	3
0	3439	568.01127333638	4
0	3440	568.828622465157	3
0	3444	569.359098483206	4
0	3450	572.558595826088	3
0	3456	573.488954310367	4
0	3458	573.646384735795	5
0	3459	574.776951821455	4
0	3463	574.978554616494	5
0	3468	578.742611482894	6
0	3469	578.82369360297	5
0	3474	578.955004453664	4
0	3478	579.010404075489	5
0	3483	580.559924210534	4
0	3489	581.028153614857	5
0	3493	583.007165058793	6
0	3494	584.674171247088	5
0	3498	584.789986335886	6
0	3500	585.230862710518	7
0	3504	587.000368546802	6
0	3511	588.284439329908	5
0	3517	589.460701974759	6
0	3520	590.920485036794	5
0	3524	590.923664209636	6
0	3528	591.162984371348	7
0	3529	591.517397665942	6
0	3534	592.48070104054	5
0	3541	595.467782340812	6
0	3544	597.012987956942	5
0	3550	597.414853744375	4
0	3555	597.874286301881	3
0	3561	600.370773017	2
0	3568	600.785034852155	3
0	3570	600.830081379889	4
0	3571	602.304327460352	3
0	3576	603.017599485776	2
0	3580	603.090651319721	3
0	3584	604.122403550225	4
0	3586	605.000062861956	5
0	3588	605.449939215768	6
0	3589	606.003631078001	5
0	3594	607.013620747537	4
0	3601	609.166948409331	3
0	3607	609.67953430938	2
0	3612	609.861490362955	1
0	3617	611.438509803166	0
0	3621	612.765680005464	1
0	3624	614.158255312308	0
0	3630	615.802350771852	1
0	3637	617.172020004471	2
0	3638	618.052555001654	1
0	3644	618.150765548598	2
0	3646	618.164024148078	3
0	3647	618.595762478561	2
0	3653	618.751258404368	3
0	3654	619.173846448961	2
0	3659	619.352036501045	1
0	3663	619.717885099049	2
0	3667	620.913653031558	3
0	3669	620.969957355906	2
0	3675	621.303994051683	3
0	3676	622.060444476712	2
0	3682	623.466880979118	1
0	3688	623.642529290546	2
0	3689	624.2805554552	1
0	3694	624.812682941792	0
0	3700	626.928430957677	1
0	3702	628.160642993235	2
0	3703	628.412175987486	1
0	3707	629.260794765331	2
0	3710	630.860226881431	1
0	3714	631.66914560834	2
0	3716	632.789160401718	3
0	3720	633.233976370071	4
0	3722	633.467686013129	5
0	3724	633.73866894231	6
0	3726	635.074118638891	7
0	3732	635.451042175438	6
0	3737	635.565929018795	5
0	3741	635.634252025945	6
0	3743	636.31891448355	7
0	3746	636.718127107558	6
0	3752	638.550906085839	7
0	3755	639.387732277287	6
0	3760	639.856583768391	5
0	3766	641.432206929289	4
0	3771	641.495898122791	3
0	3777	644.283517005165	4
0	3780	644.866547289487	3
0	3784	645.137005073482	4
0	3789	646.34423474095	3
0	3795	647.067525699209	4
0	3796	648.635786938827	3
0	3803	649.619902476531	2
0	3809	650.162927134913	3
0	3811	650.736912238768	4
0	3813	651.73478192633	5
0	3817	652.140878759687	6
0	3818	652.171405024902	5
0	3825	654.606444877017	4
0	3831	655.676667182804	3
0	3837	655.978281848362	2
0	3843	656.174970492458	1
0	3848	656.754340130872	0
0	3852	658.095580752301	1
0	3857	658.717009953475	0
0	3861	658.763014732805	1
0	3864	660.057141880629	0
0	3868	660.372113411756	1
0	3872	662.832780359521	2
0	3875	663.502174147598	1
0	3882	666.934270636718	2
0	3885	669.077374842606	3
0	3888	669.940591346782	2
0	3895	670.129950294398	1
0	3901	670.284982059339	2
0	3902	670.460958923396	1
0	3906	670.506741636971	2
0	3908	671.491643916683	3
0	3910	673.271501452815	4
0	3913	673.34968797727	3
0	3919	674.815829060028	4
0	3921	675.126718910135	3
0	3927	675.806424338453	4
0	3928	675.918240949159	3
0	3933	676.801334293887	2
0	3939	678.075830664314	3
0	3941	678.347107778602	2
0	3946	679.341153538837	1
0	3950	679.975072469629	2
0	3953	681.113392183364	1
0	3959	682.301501076497	2
0	3961	682.771387137735	3
0	3963	682.848045426762	4
0	3964	682.887799219744	3
0	3968	683.188049839097	4
0	3970	683.244275712931	5
0	3975	684.705066781204	6
0	3981	686.235781081056	7
0	3983	687.57136568258	6
0	3989	687.828593963124	7
0	3990	688.006629768571	6
0	3998	689.925857080275	7
0	4000	690.081199578338	8
0	4001	690.150748436219	7
0	4011	692.163742527742	6
0	4016	692.606426309653	5
0	4022	692.935750439269	6
0	4023	693.755448867303	5
0	4028	696.018720625946	4
0	4032	697.463315745359	5
0	4034	700.926545455222	6
0	4036	701.227375899427	7
0	4042	701.894951468752	8
0	4044	702.04756196123	9
0	4046	703.178748879778	10
0	4048	703.208456003064	11
0	4050	703.456632169403	12
0	4054	704.033128407377	11
0	4064	706.182580027945	10
0	4069	707.217238767465	9
0	4074	707.238253004711	8
0	4079	707.266373780624	7
0	4084	707.289888971591	6
0	4089	709.01793760815	5
0	4093	710.594923108062	6
0	4096	711.50811492024	5
0	4102	713.543036440701	6
0	4104	713.599461277731	7
0	4105	713.732973091084	6
0	4111	714.335460205514	7
0	4112	715.391160147929	6
0	4119	717.248442085059	5
0	4126	720.349750616607	4
0	4131	721.596718789419	3
0	4135	721.872705109198	4
0	4139	722.404796002316	5
0	4140	723.403358783003	4
0	4145	725.396593163431	3
0	4150	725.95941836184	2
0	4160	731.69807182815	3
0	4165	733.565585347477	2
0	4171	734.679071652102	3
0	4173	735.070772366862	4
0	4175	735.967484166682	5
0	4180	739.337515411025	4
0	4184	739.900663915764	5
0	4187	743.231835099684	4
0	4192	743.947877602524	3
0	4202	744.849825540721	2
0	4208	745.341688982683	3
0	4209	745.725642439435	2
0	4214	746.528520811626	1
0	4220	746.637848956981	2
0	4224	748.385414563117	1
0	4229	749.873016349018	0
0	4252	752.173518811971	1
0	4255	752.795973983225	0
0	4259	752.843412733552	1
0	4261	754.71411265095	2
0	4266	755.787107327262	1
0	4275	758.337126851771	0
0	4288	759.138729305201	1
0	4294	761.487734288779	2
0	4296	762.048840230152	3
0	4297	762.263164029311	2
0	4302	762.2911944209	1
0	4309	763.11489778584	0
0	4320	763.40431255375	1
0	4322	763.501721836529	2
0	4323	763.528295263361	1
0	4328	764.067277340913	0
0	4365	767.949934128787	1
0	4366	768.460538922501	0
0	4388	771.905084740421	1
0	4389	772.010122678294	0
0	4397	773.812037866224	1
0	4398	774.365787816874	0
0	4407	776.375772515019	1
0	4411	776.730519587105	0
0	4431	783.240854354417	1
0	4438	788.089198772616	0
0	4444	788.793061938871	1
0	4447	788.985426710136	2
0	4449	791.764065416587	1
0	4454	791.811844878055	0
0	4461	792.43116344125	1
0	4463	792.67715775002	0
0	4513	796.81938015198	1
0	4517	798.039692249241	0
0	4526	800.899455354566	1
0	4531	801.768350680394	0
0	4538	802.529037708856	1
0	4540	803.117435257658	0
0	4552	805.756525665885	1
0	4553	805.925617383575	0
0	4559	806.571220849937	1
0	4560	806.578457564315	0
0	4593	810.906022872692	1
0	4596	811.357339355774	0
0	4607	811.507670137913	1
0	4611	812.437943786741	0
0	4617	812.525468316873	1
0	4620	812.948948736402	0
0	4638	814.719823462123	1
0	4640	815.140247034372	2
0	4641	815.246185976455	1
0	4645	815.375881277156	2
0	4650	819.172630855111	3
0	4652	819.50315044087	4
0	4655	820.545873719105	5
0	4656	820.566287880009	4
0	4661	821.186465512932	3
0	4665	821.365080802994	4
0	4667	821.377374949645	5
0	4672	822.538903400027	4
0	4676	823.184356624701	5
0	4678	826.090835561037	6
0	4681	826.823799695204	5
0	4687	827.911239195408	6
0	4695	830.634570825842	7
0	4696	830.797177640536	6
0	4700	831.540833877055	7
0	4705	834.507671444501	6
0	4712	835.259937231296	5
0	4718	835.997161153337	6
0	4719	836.057027826874	5
0	4723	837.069309655872	6
0	4727	837.496385265227	7
0	4728	837.615199871481	6
0	4734	838.796117782561	7
0	4735	838.832206923414	6
0	4742	840.155893490179	5
0	4746	842.455555424131	6
0	4751	843.996766117656	5
0	4755	844.564023103093	6
0	4759	845.58139740781	7
0	4761	845.916056420563	8
0	4762	846.285940729958	7
0	4766	846.857538192435	8
0	4773	849.466523688641	7
0	4777	850.282610701401	8
0	4782	850.822215522603	9
0	4783	851.605612123772	8
0	4788	851.853280888851	7
0	4792	852.516624466354	8
0	4798	855.116111271881	7
0	4803	855.147212275161	6
0	4808	856.185504885379	5
0	4818	858.369292706045	6
0	4819	860.148857945711	5
0	4824	860.654686721171	4
0	4828	860.81714969209	5
0	4834	862.375060275383	6
0	4835	862.587535938869	5
0	4841	863.982875354791	4
0	4847	864.404309822675	5
0	4848	865.477519786775	4
0	4855	871.660684836457	3
0	4862	873.155814545155	2
0	4870	874.467055516951	3
0	4871	874.685246691525	2
0	4876	875.308558251247	1
0	4881	876.001114393028	0
0	4892	876.554099115476	1
0	4895	877.796961078803	2
0	4897	878.244131862077	1
0	4903	879.04304569985	0
0	4930	881.3427170255	1
0	4934	881.721959207594	2
0	4937	881.975207429156	1
0	4943	882.083216601003	2
0	4950	884.451942658248	1
0	4955	884.487481721955	0
0	4966	886.308243978198	1
0	4970	887.222939190696	2
0	4971	887.437825454697	1
0	4975	888.671472427104	2
0	4977	888.763798698217	3
0	4981	889.990810815348	4
0	4983	890.587334454226	5
0	4984	891.580523528722	4
0	4988	891.736060848902	5
0	4993	895.494615431759	4
0	4998	895.903914231527	3
0	5007	897.617103768493	4
0	5011	898.408620561779	5
0	5012	898.445666398632	4
0	5016	898.982551111741	5
0	5018	899.477597559544	6
0	5021	900.784182758076	5
0	5028	902.227415640482	6
0	5029	903.158217283726	5
0	5034	903.781630280261	4
0	5039	905.974831143697	3
0	5047	908.058698127939	4
0	5050	909.395390289482	5
0	5051	910.282779058195	4
0	5056	910.475891138774	3
0	5061	911.248303855054	2
0	5066	911.405088838885	1
0	5073	912.504458317895	0
0	5080	913.479776827991	1
0	5081	914.750266449129	0
0	5117	920.014308891161	1
0	5119	920.119235599514	2
0	5120	920.16688739564	1
0	5128	921.099869814087	2
0	5129	922.258985871502	1
0	5135	922.705771717345	2
0	5138	922.920038695765	1
0	5144	923.32399662815	0
0	5148	923.365435882903	1
0	5152	924.080593121591	2
0	5154	924.225274297732	3
0	5155	925.060642546569	2
0	5163	925.53733053923	3
0	5166	925.693999463823	2
0	5171	925.786277853048	1
0	5177	925.962993950365	0
0	5214	931.756924352506	1
0	5215	932.635112208149	0
0	5221	933.055397275255	1
0	5222	933.450623604605	0
0	5254	935.496080337304	1
0	5256	936.600017265488	0
0	5279	940.116974511157	1
0	5281	940.140289059001	2
0	5283	941.029893577893	3
0	5288	941.985205423857	4
0	5292	943.92026002634	3
0	5299	944.663992593066	4
0	5301	945.604052516713	3
0	5306	945.773494820728	2
0	5311	946.004924901288	1
0	5317	946.263585477142	2
0	5318	946.386741033779	1
0	5328	948.03834868046	0
0	5370	952.721293835897	1
0	5372	953.264096267272	2
0	5375	953.448265571321	1
0	5381	954.221663588856	0
0	5395	955.40718851338	1
0	5396	955.513730469319	0
0	5400	956.354063833753	1
0	5404	957.020718130249	2
0	5408	958.015551876024	3
0	5411	958.940940824062	2
0	5415	959.015892480449	3
0	5419	959.092509159731	4
0	5421	959.213899558757	3
0	5426	959.306884026759	2
0	5433	960.770075491492	1
0	5439	961.53996694131	0
0	5461	964.211046319163	1
0	5462	964.230896163337	0
0	5478	965.70292568675	1
0	5487	972.252177284912	0
0	5503	973.560540287831	1
0	5504	973.898486376333	0
0	5535	980.543091672669	1
0	5541	982.093420648547	0
0	5552	982.147113910364	1
0	5556	983.004424658687	0
0	5592	985.911195912942	1
0	5594	986.28886697026	2
0	5595	987.524395944487	1
0	5601	987.750052184596	2
0	5604	988.319899078991	3
0	5606	988.840903696348	2
0	5612	988.946407775573	3
0	5617	990.008872603905	2
0	5623	990.781661192643	1
0	5633	992.023768264491	0
0	5646	992.732279998159	1
0	5647	992.761914505658	0
0	5660	994.302611491733	1
0	5663	994.898964827199	0
0	5667	995.002399622645	1
0	5670	995.776270222821	0
0	5694	998.508655203488	1
0	5696	998.599332599248	2
0	5697	998.715154093026	1
0	5702	999.313535236999	0
0	5706	1000.291970166609	1
0	5709	1000.740583757675	0
0	5715	1001.164082365345	1
0	5718	1002.952535146193	0
0	5724	1005.696202781714	1
0	5729	1006.398907388042	0
0	5748	1009.141548251492	1
0	5751	1010.718957437783	0
0	5774	1013.156698282188	1
0	5776	1013.652441685007	0
0	5790	1014.627499372405	1
0	5792	1015.477187681222	0
0	5813	1016.348160838887	1
0	5814	1016.382187618596	0
0	5830	1020.289812283407	1
0	5831	1020.478445042483	0
0	5837	1020.693848282655	1
0	5840	1021.329858297124	2
0	5843	1021.570474410504	3
0	5844	1021.584941351594	2
0	5850	1021.844935869897	3
0	5853	1023.49503899981	2
0	5857	1024.143721069076	3
0	5860	1025.551048996461	2
0	5869	1026.92316441479	1
0	5874	1027.191466685392	0
0	5916	1031.157419551085	1
0	5917	1031.327494689259	0
0	5930	1034.328638911505	1
0	5934	1035.204826473058	0
0	5947	1036.140478021854	1
0	5950	1036.738738104775	0
0	5954	1038.907321302973	1
0	5956	1038.988414714194	2
0	5964	1040.689097032709	3
0	5965	1041.443580895066	2
0	5972	1041.870572091889	1
0	5978	1042.312498010757	0
0	6021	1045.951132822111	1
0	6022	1047.046489151384	0
0	6050	1054.122579343256	1
0	6053	1054.532152841078	0
0	6059	1054.776141589929	1
0	6061	1055.232642251302	0
0	6067	1056.622705633632	1
0	6070	1058.023789367103	0
0	6076	1058.90853299923	1
0	6080	1059.322420053892	0
0	6091	1059.643084802232	1
0	6094	1060.293749467924	2
0	6096	1060.8454118446	3
0	6098	1061.752171994704	4
0	6100	1062.388740003577	3
0	6106	1062.914108731936	2
0	6113	1064.257349745244	1
0	6119	1064.520367065856	0
0	6144	1067.183675135032	1
0	6145	1067.444139948489	0
0	6152	1068.832054182923	1
0	6154	1069.132327848085	0
0	6178	1072.010597765345	1
0	6180	1072.282107732864	2
0	6182	1073.05404059419	3
0	6183	1073.2041740675	2
0	6191	1073.934538875922	1
0	6196	1074.011055454677	0
0	6209	1075.035999962533	1
0	6211	1076.208189986807	2
0	6213	1076.247814684091	3
0	6217	1078.29754861303	2
0	6223	1078.641422832015	3
0	6224	1078.677540432508	2
0	6229	1078.764337990359	1
0	6237	1079.856492221318	2
0	6238	1080.677283827353	1
0	6244	1080.895773457288	0
0	6261	1082.630075167006	1
0	6263	1083.037192781399	2
0	6267	1085.389685461449	1
0	6274	1085.523363920858	0
0	6280	1085.569561154691	1
0	6281	1085.839772543706	0
0	6333	1094.673222707785	1
0	6338	1096.153025433238	0
0	6348	1098.489369341812	1
0	6350	1098.976395521378	2
0	6352	1099.466202071621	3
0	6354	1100.403681456954	4
0	6355	1101.409531588596	3
0	6361	1101.780257012745	4
0	6362	1101.98650357069	3
0	6368	1103.433497196164	2
0	6375	1104.301964559484	3
0	6377	1105.453615974243	2
0	6384	1105.708870396265	3
0	6385	1105.850067547741	2
0	6390	1105.943795830926	1
0	6396	1108.456047924584	0
0	6411	1109.001339392067	1
0	6414	1109.697095774908	2
0	6418	1110.797377044024	1
0	6424	1111.085214033116	0
0	6430	1111.280682147966	1
0	6434	1113.237713816329	0
0	6454	1114.593915069375	1
0	6455	1114.870904883934	0
0	6470	1115.911367835928	1
0	6472	1116.020802415403	2
0	6473	1116.303417329648	1
0	6479	1116.713478293642	2
0	6482	1117.196897197914	3
0	6483	1117.286277720862	2
0	6489	1117.720007494602	1
0	6495	1117.965242057479	2
0	6496	1118.231097252156	1
0	6504	1119.597482399929	0
0	6536	1123.095758665792	1
0	6539	1124.314779396895	2
0	6541	1124.599767947565	3
0	6544	1125.585692057302	2
0	6549	1126.01807179055	1
0	6555	1127.583068028047	0
0	6561	1128.287277920501	1
0	6563	1128.823240533381	0
0	6586	1133.1466508713	1
0	6588	1133.322175169556	2
0	6590	1133.974292604932	3
0	6594	1136.885865996543	2
0	6598	1137.513197504395	3
0	6600	1137.658927781558	4
0	6602	1137.723941493674	5
0	6605	1139.006830411184	4
0	6609	1139.360679741454	5
0	6613	1141.723762696439	6
0	6617	1143.494725616659	7
0	6621	1144.431791621524	8
0	6624	1145.536523682477	9
0	6628	1145.967155876835	10
0	6630	1146.459815255419	11
0	6631	1148.004933394916	10
0	6636	1148.470760951059	9
0	6642	1148.63604379171	10
0	6646	1150.340026561234	11
0	6647	1151.335185317487	10
0	6653	1151.908950182805	11
0	6654	1152.709179538549	10
0	6658	1152.87022259869	11
0	6661	1153.877740932378	10
0	6666	1154.355222583342	9
0	6678	1157.674997381309	8
0	6685	1158.462564825784	7
0	6691	1160.075291479671	6
0	6696	1160.23002496476	5
0	6700	1160.409060744114	6
0	6705	1161.029604231219	5
0	6709	1161.24603722125	6
0	6712	1162.416507318435	5
0	6718	1163.424961566992	6
0	6725	1166.415841232362	7
0	6727	1166.769960307435	8
0	6728	1166.799028923012	7
0	6733	1166.925989131859	6
0	6737	1167.739347832125	7
0	6741	1170.126589820077	8
0	6742	1171.100049576662	7
0	6748	1172.492517876632	8
0	6749	1172.723143334731	7
0	6753	1172.903141093489	8
0	6755	1173.027488539788	9
0	6758	1174.099288123699	8
0	6768	1179.331107320532	9
0	6769	1179.763816374438	8
0	6773	1179.957906930096	9
0	6780	1184.604503112993	8
0	6787	1185.005278501278	7
0	6791	1185.101864470412	8
0	6795	1186.958114541516	9
0	6796	1187.201543973775	8
0	6800	1187.337474002387	9
0	6803	1187.919349842157	8
0	6810	1188.453653725538	7
0	6816	1189.86070345677	6
0	6821	1190.542532376661	5
0	6825	1190.88871345158	6
0	6828	1191.44361329987	5
0	6835	1194.566295405684	4
0	6841	1195.604430857825	5
0	6842	1196.069936303176	4
0	6850	1196.256886759813	5
0	6851	1196.604655161263	4
0	6856	1197.916247209194	3
0	6862	1198.197073653282	4
0	6863	1198.662628781926	3
0	6870	1199.479059496079	2
0	6877	1200.021213943162	1
0	6882	1200.038257956948	0
0	6888	1202.351845822513	1
0	6890	1202.75387477112	2
0	6891	1203.400455343548	1
0	6896	1203.670125140021	0
0	6915	1204.645177984362	1
0	6918	1205.328808063561	2
0	6919	1205.507670272579	1
0	6924	1206.002587898583	0
0	6933	1206.738289726214	1
0	6934	1206.747783061453	0
0	6940	1207.764429232785	1
0	6942	1208.390204337647	2
0	6944	1208.82754279701	1
0	6953	1209.430466512159	2
0	6957	1209.592297364411	3
0	6958	1210.408199093374	2
0	6963	1210.966253364462	1
0	6969	1212.025754907542	2
0	6971	1212.628016361841	3
0	6976	1214.744433441687	4
0	6977	1215.019227558334	3
0	6982	1215.72556923007	2
0	6987	1216.943381267654	1
0	6996	1219.185626019321	0
0	7002	1219.886965474156	1
0	7004	1219.89373220596	2
0	7006	1219.92414082519	3
0	7007	1220.492213431705	2
0	7012	1220.802691706774	1
0	7020	1221.695622774713	2
0	7021	1221.797873400524	1
0	7026	1222.290634724222	0
0	7037	1224.987728817272	1
0	7039	1225.106365737528	2
0	7043	1226.669885911911	1
0	7050	1226.829438467026	0
0	7056	1227.180823018445	1
0	7059	1228.428643122376	0
0	7094	1231.549628668105	1
0	7096	1232.791186668025	2
0	7097	1232.79528023951	1
0	7102	1233.659297813033	0
0	7150	1240.534500073669	1
0	7153	1242.696658023611	0
0	7166	1244.516606044244	1
0	7168	1244.606580334837	2
0	7170	1244.944669119875	3
0	7171	1245.201293838671	2
0	7177	1245.309092136424	3
0	7178	1245.538548912672	2
0	7185	1246.207508360542	1
0	7192	1246.535687492304	2
0	7194	1246.716909277669	3
0	7195	1246.927104204646	2
0	7205	1247.894197683759	1
0	7211	1247.915831938418	2
0	7213	1248.230309012494	3
0	7215	1248.517626346072	4
0	7216	1248.691691929754	3
0	7225	1249.04280336782	4
0	7228	1249.368878381817	5
0	7232	1251.028260457316	4
0	7238	1251.048184706877	5
0	7240	1252.660117568426	6
0	7241	1252.786289577436	5
0	7246	1253.996275381427	4
0	7252	1254.828512305591	3
0	7259	1255.061432224641	4
0	7260	1255.453245169529	3
0	7265	1255.461280433552	2
0	7270	1255.668443801436	1
0	7278	1256.295412545129	2
0	7280	1257.130915343537	3
0	7281	1257.172930000344	2
0	7287	1257.555690795973	3
0	7289	1258.040401456662	2
0	7294	1258.199873949142	1
0	7300	1259.853801911487	2
0	7301	1260.557102694582	1
0	7309	1262.64452544987	2
0	7310	1262.752873412138	1
0	7316	1263.236202116748	2
0	7318	1263.574526795322	3
0	7319	1263.947430732219	2
0	7324	1265.09404642277	1
0	7329	1265.560748402101	0
0	7341	1268.558634914948	1
0	7345	1270.029380156036	0
0	7352	1271.077875910032	1
0	7354	1271.351218986576	2
0	7355	1271.880030057939	1
0	7360	1271.940037166661	0
0	7364	1272.241703978966	1
0	7369	1272.812145517236	0
0	7375	1273.805836672979	1
0	7378	1274.940320440397	0
0	7384	1275.397147494847	1
0	7385	1275.428706262741	0
0	7391	1275.812241052807	1
0	7395	1277.530901186505	2
0	7401	1280.672139956307	3
0	7403	1280.864619626328	4
0	7405	1280.987875072741	5
0	7412	1281.628059984145	6
0	7413	1282.038589566913	5
0	7418	1282.381073151007	4
0	7424	1283.068276136857	5
0	7425	1284.488482051906	4
0	7430	1284.995085046889	3
0	7434	1285.319037534826	4
0	7438	1287.582579402487	5
0	7439	1288.047785774137	4
0	7443	1288.168118180914	5
0	7446	1288.774772470561	4
0	7451	1288.882343248489	3
0	7457	1289.728512839617	2
0	7462	1289.809309328365	1
0	7468	1290.807838784898	0
0	7520	1296.04733973986	1
0	7521	1296.150997591933	0
0	7532	1296.893608652176	1
0	7534	1297.085505356268	2
0	7537	1297.390447420117	1
0	7544	1297.964398053491	0
0	7554	1298.583502528243	1
0	7557	1299.458003289731	0
0	7579	1302.02760477805	1
0	7584	1304.663835559567	2
0	7586	1305.656478683441	1
0	7592	1305.731206684183	2
0	7594	1305.811854564034	1
0	7599	1306.653042874936	0
0	7605	1308.808876223755	1
0	7608	1309.813884635511	2
0	7610	1310.138634119531	1
0	7619	1312.28796971177	0
0	7631	1313.810216263261	1
0	7632	1313.905244576578	0
0	7636	1314.159692774441	1
0	7642	1315.493634124083	2
0	7644	1316.068406254629	3
0	7646	1317.03714447675	4
0	7650	1317.765411573848	5
0	7651	1317.851111249449	4
0	7655	1319.694693284387	5
0	7661	1321.464331147075	4
0	7667	1321.502923926517	5
0	7669	1321.757870967381	6
0	7670	1322.003678661216	5
0	7676	1323.252296485757	4
0	7682	1323.33001831027	5
0	7685	1323.875528422219	6
0	7687	1324.121033063832	5
0	7693	1324.307591175655	6
0	7695	1324.708124155828	7
0	7697	1325.058811239336	8
0	7698	1326.146755919016	7
0	7706	1327.096858718991	8
0	7707	1327.2269631238	7
0	7712	1328.686502834201	6
0	7716	1328.751006346149	7
0	7722	1329.313675700822	8
0	7723	1329.545865830956	7
0	7730	1331.022205057889	6
0	7735	1333.48328516917	5
0	7739	1333.492380153427	6
0	7745	1337.012463609845	5
0	7750	1337.371490336223	4
0	7756	1338.164099334646	5
0	7759	1339.347738960669	4
0	7763	1339.610386262602	5
0	7767	1340.211385720019	4
0	7772	1340.238119676978	3
0	7776	1342.819593109807	4
0	7778	1343.462448186785	5
0	7785	1345.556576061723	4
0	7790	1345.820818370474	3
0	7794	1346.285828224117	4
0	7799	1347.404135159958	3
0	7808	1348.720827301079	4
0	7811	1349.464876459433	5
0	7814	1349.865852695866	6
0	7815	1350.177327414656	5
0	7825	1351.837609240981	4
0	7830	1351.933159416167	3
0	7836	1354.147069536894	2
0	7842	1354.151249137042	3
0	7844	1354.603452037886	4
0	7846	1354.9695686833	3
0	7854	1357.271973502063	4
0	7855	1357.933598668159	3
0	7860	1358.502488828718	2
0	7865	1358.757398933452	1
0	7871	1359.062255811709	2
0	7873	1359.456509040961	3
0	7874	1359.609553596106	2
0	7880	1360.907534574251	3
0	7881	1360.926939878963	2
0	7885	1361.43699086624	3
0	7890	1362.688253780324	2
0	7896	1363.228592152175	3
0	7899	1364.136646176438	2
0	7904	1364.328444624732	1
0	7910	1364.593587736832	2
0	7911	1364.859839704856	1
0	7915	1365.565660699305	2
0	7921	1368.491647064449	3
0	7923	1368.56365165518	4
0	7925	1369.9175815967	5
0	7933	1373.317967656161	6
0	7934	1374.013048118223	5
0	7939	1374.189779203013	4
0	7944	1374.253734683994	3
0	7948	1374.354723735122	4
0	7950	1374.917596684231	5
0	7952	1375.465381179855	6
0	7956	1376.327748742995	7
0	7958	1376.736265146137	8
0	7959	1376.790470999321	7
0	7963	1377.339877761438	8
0	7966	1377.680433925009	7
0	7971	1378.683199963454	6
0	7977	1379.333500208975	7
0	7979	1379.811604261864	6
0	7984	1380.76941708974	5
0	7989	1383.406069885089	4
0	7993	1384.19360372391	5
0	7997	1386.98869595435	4
0	8002	1387.314950297432	3
0	8006	1387.368004854496	4
0	8011	1389.890868314137	3
0	8017	1390.611699219131	4
0	8018	1390.680614796223	3
0	8026	1392.12045227887	2
0	8031	1392.855047015312	1
0	8039	1395.28561134272	2
0	8041	1395.731012556716	3
0	8042	1397.014217373284	2
0	8047	1397.776443235884	1
0	8055	1400.299120195462	2
0	8056	1400.683615069292	1
0	8061	1402.023645358005	0
0	8065	1403.59544806933	1
0	8069	1403.801379464273	2
0	8071	1404.058484895953	3
0	8072	1404.073665633082	2
0	8079	1406.018811194427	1
0	8084	1406.53130470042	0
0	8088	1406.570131114018	1
0	8092	1407.173417791025	2
0	8094	1407.912280453574	3
0	8098	1408.029647057665	4
0	8099	1408.243041185248	3
0	8106	1409.926826970144	2
0	8114	1410.262171942653	3
0	8115	1411.574730982249	2
0	8119	1412.650630316123	3
0	8121	1412.803944428514	4
0	8123	1413.354993538235	5
0	8126	1413.691474376576	4
0	8131	1413.95415548868	3
0	8136	1415.415750081578	2
0	8140	1415.70735756849	3
0	8142	1416.312406873229	4
0	8145	1417.871714289665	3
0	8149	1420.030094679217	4
0	8152	1420.836519477135	3
0	8160	1422.620822601814	4
0	8166	1424.277525657102	5
0	8168	1424.458847114906	6
0	8169	1424.910408257283	5
0	8173	1425.350220863333	6
0	8178	1426.108768538265	5
0	8183	1427.532369107011	4
0	8191	1430.460243285058	5
0	8192	1431.129206927589	4
0	8198	1431.367347907493	3
0	8203	1431.464280084963	2
0	8208	1431.472084100527	1
0	8213	1433.717111388819	0
0	8240	1436.749460356999	1
0	8241	1437.416045619471	0
0	8284	1441.112341072289	1
0	8286	1441.668733225625	0
0	8299	1442.870728884429	1
0	8302	1444.031668999933	2
0	8304	1445.839109245806	3
0	8305	1446.03952199974	2
0	8311	1446.964012687451	1
0	8316	1447.04037680361	0
0	8322	1447.541671094077	1
0	8324	1447.59199053937	2
0	8327	1448.006817935277	1
0	8333	1448.139186415263	0
0	8350	1452.860436110644	1
0	8355	1454.971402759498	2
0	8356	1455.96442258254	1
0	8361	1456.278718292755	0
0	8383	1457.636964996989	1
0	8385	1458.047966828923	2
0	8386	1458.572330485456	1
0	8391	1458.861291640958	0
0	8425	1464.83510468148	1
0	8427	1467.8369040267	2
0	8429	1467.957607804306	3
0	8430	1469.221219389036	2
0	8436	1469.297285482569	3
0	8439	1470.051114976657	4
0	8441	1470.136981668513	5
0	8444	1471.613934039254	4
0	8449	1472.681654784319	3
0	8454	1472.773587339219	2
0	8459	1472.801856266935	1
0	8465	1473.550018083093	2
0	8466	1473.751145095823	1
0	8471	1473.781952978457	0
0	8487	1475.53060401896	1
0	8489	1478.421957620702	0
0	8501	1480.396133965871	1
0	8502	1480.457044187277	0
0	8506	1480.492278674807	1
0	8508	1481.79534076064	2
0	8511	1482.131341917453	1
0	8517	1482.282097948886	2
0	8518	1482.434048777906	1
0	8527	1487.522526201487	0
0	8531	1487.600050400465	1
0	8533	1488.729777346366	2
0	8535	1488.836819942498	3
0	8537	1489.309011757518	4
0	8543	1492.004937441299	5
0	8544	1492.170248488842	4
0	8549	1492.390554745654	3
0	8553	1492.840876477703	4
0	8556	1493.250533213352	3
0	8561	1494.268511173696	2
0	8569	1497.5769393025	3
0	8572	1498.304384035931	2
0	8577	1499.389931667338	1
0	8583	1500.917970774235	0
0	8598	1503.527260952677	1
0	8601	1503.742201005691	2
0	8603	1503.975440563261	3
0	8607	1505.552143301569	2
0	8612	1506.502497054664	1
0	8617	1506.688767405689	0
0	8624	1507.091038661369	1
0	8627	1507.847151837322	0
0	8650	1508.677303266837	1
0	8654	1510.274076752904	0
0	8661	1511.534897430054	1
0	8662	1511.949084645066	0
0	8692	1514.417952477745	1
0	8693	1514.554054219468	0
0	8716	1517.324527975577	1
0	8720	1518.532733197672	2
0	8721	1518.837874951841	1
0	8726	1520.513349273987	0
0	8775	1525.392476054557	1
0	8776	1525.606261980735	0
0	8799	1527.918805279532	1
0	8802	1528.376089730611	2
0	8803	1528.566500203872	1
0	8810	1530.288575254737	0
0	8821	1531.089972008457	1
0	8825	1532.589842461454	0
0	8859	1545.379827731674	1
0	8861	1546.478462370518	0
0	8889	1550.664595461997	1
0	8893	1551.313074744986	2
0	8897	1552.208777016089	1
0	8903	1552.448280345837	0
0	8931	1555.038658171914	1
0	8932	1555.198129306921	0
0	8953	1559.243006107663	1
0	8955	1559.915024692837	2
0	8959	1560.397623981984	1
0	8964	1560.568280307243	0
0	8970	1560.727926877513	1
0	8971	1560.850412749241	0
0	8997	1562.222780388559	1
0	8998	1562.399271094771	0
0	9006	1563.398394696418	1
0	9008	1563.624091853136	2
0	9012	1564.949993486386	3
0	9013	1564.966336322681	2
0	9022	1565.953234102252	1
0	9027	1566.390847482701	0
0	9033	1566.743343020413	1
0	9034	1566.817847472061	0
0	9044	1568.096814815997	1
0	9046	1568.286248634556	2
0	9048	1568.540566477865	1
0	9055	1569.1991102436	0
0	9064	1570.201832488007	1
0	9065	1570.38158236498	0
0	9079	1571.856472539733	1
0	9081	1572.350634449964	2
0	9089	1575.475789382898	1
0	9094	1575.568618533112	0
0	9120	1579.593267072753	1
0	9123	1580.680420323955	2
0	9124	1581.152067096714	1
0	9129	1581.152963689779	0
0	9148	1582.757507995882	1
0	9149	1582.931978337426	0
0	9157	1584.146171709951	1
0	9166	1586.559351642556	0
0	9178	1587.178585420384	1
0	9179	1587.580815680393	0
0	9200	1590.369850814691	1
0	9203	1590.796424565784	2
0	9204	1590.80619207881	1
0	9213	1591.309441585779	2
0	9215	1591.546908306519	3
0	9217	1592.492547440121	4
0	9218	1592.492982737427	3
0	9223	1593.135497071475	2
0	9228	1593.473012166572	1
0	9235	1593.924449475802	2
0	9237	1593.977629599845	3
0	9238	1594.168854665714	2
0	9243	1594.66575569579	1
0	9248	1595.416262519659	0
0	9256	1596.078930351153	1
0	9257	1596.186511173732	0
0	9263	1596.264845201092	1
0	9264	1596.47788695046	0
0	9270	1596.612362001444	1
0	9272	1599.024968222863	0
0	9288	1599.175890458055	1
0	9291	1601.577199814221	0
0	9303	1601.977655819285	1
0	9306	1602.781641423372	2
0	9308	1602.802892628631	3
0	9312	1603.771737953137	2
0	9318	1604.059648105145	3
0	9319	1604.122317891885	2
0	9324	1604.764219748514	1
0	9330	1605.08241220585	0
0	9336	1607.673712058093	1
0	9340	1608.618998972335	2
0	9342	1608.732461570593	3
0	9347	1609.648800243669	2
0	9357	1610.31040981303	3
0	9359	1610.96413384645	4
0	9360	1610.972610175732	3
0	9365	1611.533896290427	2
0	9370	1611.687635219349	1
0	9374	1612.130896796191	2
0	9378	1613.611880314577	3
0	9380	1615.454184923086	4
0	9382	1615.473315557539	5
0	9385	1615.683686179566	4
0	9393	1616.607469331654	3
0	9398	1616.626788680366	2
0	9403	1617.729196307008	1
0	9407	1617.763410415728	2
0	9409	1618.345317845311	3
0	9414	1618.781547816956	4
0	9418	1620.158866481686	5
0	9420	1620.306376940406	6
0	9421	1621.057796032904	5
0	9428	1621.549659875391	4
0	9432	1622.37312572649	5
0	9435	1623.869497149082	4
0	9440	1624.396810992489	3
0	9445	1626.555501392045	2
0	9449	1626.625079058774	3
0	9453	1628.237118599933	2
0	9458	1628.972084702868	1
0	9466	1631.385593062907	2
0	9472	1634.406458590594	1
0	9478	1634.754995690323	2
0	9479	1634.834619008152	1
0	9483	1636.401957582632	2
0	9485	1637.003719099158	3
0	9490	1641.26258651606	4
0	9493	1642.576239574105	3
0	9499	1642.753986048003	4
0	9500	1644.330018476314	3
0	9504	1644.571703813481	4
0	9507	1645.107161522879	3
0	9513	1645.985913637132	4
0	9515	1645.999428620377	5
0	9516	1646.038791813625	4
0	9520	1646.14781495662	5
0	9522	1646.429190707267	6
0	9524	1648.077919968504	7
0	9529	1649.91418292137	6
0	9535	1650.410599193283	5
0	9540	1650.434479262909	4
0	9545	1650.488758522722	3
0	9549	1651.926630849667	4
0	9552	1653.773204026177	3
0	9557	1655.850249368492	2
0	9561	1656.166084428349	3
0	9566	1657.01725934388	2
0	9570	1657.533169576763	3
0	9575	1658.598652675066	2
0	9581	1659.278746445051	3
0	9585	1661.401595898152	2
0	9591	1661.406004399094	3
0	9592	1661.671371439004	2
0	9598	1662.42148276342	3
0	9599	1662.619192053413	2
0	9604	1662.90584941597	1
0	9615	1665.296162865853	2
0	9616	1666.661847316913	1
0	9621	1666.89081852617	0
0	9637	1668.421976651827	1
0	9639	1669.020902053703	0
0	9666	1670.183755261421	1
0	9670	1670.915119809171	0
0	9676	1671.337162787303	1
0	9678	1671.448463797715	2
0	9679	1671.468481610888	1
0	9685	1672.387351322445	2
0	9686	1672.530117130771	1
0	9692	1672.922414349202	0
0	9730	1679.284019638426	1
0	9733	1679.858849498792	0
0	9747	1684.801139521861	1
0	9749	1685.590112641	0
0	9760	1686.711715834023	1
0	9761	1686.996103289953	0
0	9767	1687.031385644064	1
0	9772	1687.24050542839	0
0	9778	1687.352346780368	1
0	9780	1688.136129133243	0
0	9810	1691.267576579324	1
0	9812	1693.373511544361	0
0	9824	1693.734451946315	1
0	9825	1693.810683091988	0
0	9892	1701.727624897488	1
0	9893	1702.150831352275	0
0	9905	1702.405499502322	1
0	9906	1702.724182187182	0
0	9923	1705.168574168988	1
0	9926	1705.475146267834	0
0	9933	1708.73433437599	1
0	9934	1709.220097308133	0
0	9948	1710.914235174535	1
0	9949	1711.652191400296	0
0	9972	1713.413443706674	1
0	9974	1714.014282237004	2
0	9976	1714.184087889315	3
0	9978	1716.723326092756	4
0	9979	1717.495669088464	3
0	9984	1717.599844259469	2
0	9992	1718.144062861464	1
0	9998	1718.324258196866	0
0	10015	1719.394506323007	1
0	10019	1720.17496806111	0
0	10036	1721.410660199863	1
0	10037	1721.46546351451	0
0	10073	1725.245118810585	1
0	10075	1725.461100894802	2
0	10077	1726.146927169804	3
0	10079	1726.280318466996	4
0	10082	1727.838053304451	3
0	10088	1728.054102426459	2
0	10096	1729.489293879362	3
0	10097	1730.05202907925	2
0	10102	1730.268422191477	1
0	10107	1732.495713462877	0
0	10115	1733.11983318437	1
0	10116	1733.371019822154	0
0	10135	1735.903523431789	1
0	10137	1736.132951435718	2
0	10139	1736.338483641522	3
0	10140	1736.545186732531	2
0	10145	1736.765223003594	1
0	10149	1737.594004086174	2
0	10152	1737.812472221188	1
0	10158	1737.956301995751	2
0	10159	1738.773572952464	1
0	10167	1740.240614297161	2
0	10170	1740.687805664733	1
0	10175	1742.206483601956	0
0	10179	1742.284117773404	1
0	10184	1742.888764049498	2
0	10186	1743.422841148627	3
0	10188	1744.275499464082	2
0	10194	1744.364475414242	3
0	10198	1745.402417257671	4
0	10199	1745.527742870908	3
0	10204	1745.716784458265	2
0	10211	1747.08828385815	1
0	10216	1748.748199745767	0
0	10264	1753.719470828814	1
0	10266	1754.336252481743	2
0	10272	1757.271993898373	1
0	10280	1757.701370337821	2
0	10282	1757.814509573704	3
0	10287	1758.571825932405	2
0	10292	1758.686658487971	1
0	10298	1758.960429172733	0
0	10312	1760.05531682518	1
0	10314	1761.138017991633	0
0	10327	1761.895911017777	1
0	10328	1762.093415108293	0
0	10381	1770.941303439043	1
0	10390	1775.839435537857	0
0	10406	1776.580452151143	1
0	10408	1776.784217664481	0
0	10426	1778.277970647941	1
0	10428	1778.541651450645	0
0	10443	1779.529402670857	1
0	10446	1779.918768079174	2
0	10447	1780.031883310826	1
0	10454	1780.932608234189	2
0	10456	1781.973551792273	3
0	10458	1782.642247005278	4
0	10459	1783.182051797344	3
0	10465	1783.381411372244	2
0	10470	1783.444687232957	1
0	10475	1783.635399728804	0
0	10481	1783.660063650987	1
0	10483	1783.826280896476	2
0	10484	1785.383873058718	1
0	10490	1786.381012177522	0
0	10501	1786.856897877316	1
0	10502	1787.090384411052	0
0	10521	1788.558017620887	1
0	10522	1788.591721352875	0
0	10540	1792.756780518168	1
0	10541	1793.882135023582	0
0	10554	1794.507484094086	1
0	10556	1794.711775203219	2
0	10558	1795.21041177956	3
0	10559	1795.251515749609	2
0	10564	1797.571164905941	1
0	10569	1800.620044582751	0
0	10589	1807.073495533981	1
0	10592	1807.278185634625	2
0	10594	1807.421071782442	1
0	10602	1808.47038975706	0
0	10646	1814.131476882624	1
0	10648	1815.065799695472	0
0	10654	1815.524330798753	1
0	10655	1816.182578615105	0
0	10659	1816.708032658186	1
0	10670	1818.118231765333	2
0	10671	1818.836983963457	1
0	10677	1819.348484825106	2
0	10679	1820.188775579642	3
0	10682	1820.969330748731	2
0	10690	1821.428474766585	3
0	10691	1822.051341222497	2
0	10696	1823.109673276994	1
0	10706	1826.424850681182	0
0	10726	1828.027105374123	1
0	10728	1828.985967662026	2
0	10729	1829.330837851898	1
0	10735	1830.705007110065	2
0	10736	1830.904229837349	1
0	10741	1830.950703066476	0
0	10765	1832.674042282919	1
0	10766	1832.836619266344	0
0	10814	1839.405208240187	1
0	10819	1841.05589700043	0
0	10827	1842.54524893529	1
0	10828	1843.549833312901	0
0	10846	1846.697767680983	1
0	10852	1848.776179058572	0
0	10858	1848.873372457657	1
0	10859	1848.928923891121	0
0	10887	1851.510911731971	1
0	10889	1851.516195649331	2
0	10891	1851.732672796041	3
0	10892	1852.095462455085	2
0	10897	1852.509933182181	1
0	10903	1852.56188877182	2
0	10904	1853.342639491934	1
0	10910	1853.72903240777	0
0	10916	1853.803451073817	1
0	10917	1853.826595294509	0
0	10977	1868.372361621953	1
0	10978	1868.581438385333	0
0	10982	1868.749015864979	1
0	10988	1870.061958055823	0
0	11014	1875.149166538805	1
0	11015	1875.932780344443	0
0	11022	1877.295540926767	1
0	11023	1878.096223473669	0
0	11029	1878.401440339935	1
0	11030	1878.612138904028	0
0	11080	1889.787606756273	1
0	11086	1891.643944439976	0
0	11092	1892.3358409206	1
0	11093	1892.847173044123	0
0	11099	1893.224491936314	1
0	11101	1893.944277108771	2
0	11104	1897.595044667688	1
0	11109	1898.25401071095	0
0	11121	1900.493714882671	1
0	11124	1900.875451369888	0
0	11140	1901.953576478854	1
0	11143	1903.256810499197	2
0	11144	1903.982850194281	1
0	11149	1906.551887456794	0
0	11188	1913.278205497332	1
0	11191	1913.998366220806	0
0	11215	1916.668813808202	1
0	11219	1917.185357548298	2
0	11221	1917.665693059959	3
0	11222	1918.399432290763	2
0	11229	1920.150932770323	1
0	11234	1920.64543940775	0
0	11240	1920.795247956689	1
0	11241	1920.913213947638	0
0	11269	1924.54307392915	1
0	11270	1924.675784126495	0
0	11283	1927.913962209867	1
0	11284	1928.226516376292	0
0	11305	1931.211440798882	1
0	11310	1932.761726966255	2
0	11313	1934.13749416676	1
0	11319	1934.633773386109	0
0	11395	1950.82637272164	1
0	11399	1951.769359667884	0
0	11419	1952.564371666154	1
0	11421	1952.568864033623	2
0	11422	1952.671710090781	1
0	11427	1953.887657361942	0
0	11431	1954.034746572222	1
0	11436	1955.165502862463	0
0	11455	1958.990770810412	1
0	11457	1959.361229853215	2
0	11458	1959.387735540894	1
0	11465	1961.389921263208	0
0	11469	1962.481636378555	1
0	11471	1963.338632701965	2
0	11476	1963.64529660742	3
0	11478	1963.837146820804	4
0	11479	1963.849163985597	3
0	11484	1964.135521086618	2
0	11490	1964.715585780908	3
0	11491	1965.651558155784	2
0	11496	1968.400873789868	1
0	11501	1969.46483457059	0
0	11545	1973.551041429027	1
0	11547	1974.205891763174	0
0	11569	1977.091291142178	1
0	11570	1977.410272380674	0
0	11577	1977.448400902048	1
0	11578	1977.48957417889	0
0	11611	1984.783338074491	1
0	11613	1985.373072550845	0
0	11648	1993.064645118378	1
0	11650	1993.494500540358	0
0	11682	1997.540028810609	1
0	11685	1998.225349568664	2
0	11687	1998.675733496618	1
0	11692	1998.706398105674	0
0	11724	2005.967563348076	1
0	11726	2006.013352966512	2
0	11727	2006.910419705562	1
0	11734	2008.104385979	0
0	11740	2010.719995420983	1
0	11741	2011.987211576995	0
0	11748	2012.217430182266	1
0	11749	2013.244849076409	0
0	11767	2015.389320889773	1
0	11769	2015.510183733421	2
0	11774	2016.73937660839	1
0	11780	2016.992745471	0
0	11798	2017.776656099366	1
0	11801	2019.012274438077	0
0	11834	2026.3130217594	1
0	11836	2028.451868718404	0
0	11842	2028.575345590974	1
0	11846	2029.444005871204	0
0	11881	2036.380863118774	1
0	11883	2036.759137823392	2
0	11885	2038.473719788253	1
0	11892	2040.064698256909	0
0	11923	2043.954843081922	1
0	11927	2044.713133672654	2
0	11930	2045.677096479156	1
0	11936	2046.317148506324	2
0	11937	2046.457650007358	1
0	11942	2046.891461330533	0
0	11953	2047.109041866902	1
0	11960	2048.050349764684	2
0	11961	2048.845117751904	1
0	11971	2049.512824157391	0
0	11977	2049.606524220294	1
0	11979	2050.169139128353	2
0	11980	2050.614915738217	1
0	11986	2050.974805643441	2
0	11991	2052.398959554264	1
0	11997	2052.574536312623	2
0	11999	2053.402698271372	3
0	12001	2055.004197677887	4
0	12004	2055.8374428817	3
0	12008	2055.908997754112	4
0	12012	2056.314450267612	5
0	12014	2056.848661852503	6
0	12015	2057.457764179969	5
0	12022	2057.881507706591	4
0	12028	2058.242191051639	3
0	12033	2059.265788129792	2
0	12037	2059.446820907879	3
0	12042	2060.408176232829	2
0	12048	2061.256074494319	3
0	12052	2063.625006841053	4
0	12054	2063.890377194951	5
0	12056	2064.112797892291	4
0	12061	2064.256427446169	3
0	12067	2064.79048596272	4
0	12073	2066.23503711317	3
0	12078	2066.667736848765	2
0	12085	2069.022155062266	1
0	12090	2070.381273873819	0
0	12096	2071.267512621254	1
0	12098	2071.512985189759	0
0	12116	2075.206642818413	1
0	12118	2075.304218396081	2
0	12123	2076.627686251124	3
0	12125	2076.918676481946	2
0	12130	2076.993011680145	1
0	12135	2077.217305352035	0
0	12141	2077.327514715678	1
0	12144	2079.012646285329	2
0	12145	2080.125711634361	1
0	12150	2080.136548893036	0
0	12156	2080.431533185394	1
0	12157	2080.868394541544	0
0	12163	2081.342577368517	1
0	12166	2081.626539995017	0
0	12172	2082.068121984179	1
0	12179	2083.498038275612	2
0	12180	2084.23838536923	1
0	12186	2084.677368717922	2
0	12188	2086.535879509775	3
0	12189	2088.809613519151	2
0	12195	2089.995511675376	3
0	12197	2090.361218335858	4
0	12198	2090.745344662968	3
0	12202	2090.872017103899	4
0	12204	2091.12304343944	5
0	12206	2092.48931131973	6
0	12208	2093.346811345005	7
0	12210	2093.381680422553	8
0	12214	2095.642919514912	9
0	12215	2095.860846853246	8
0	12222	2097.469351791602	7
0	12229	2099.803203999401	6
0	12237	2101.132499327848	5
0	12242	2101.143692790236	4
0	12247	2102.532339355268	3
0	12251	2103.127351460471	4
0	12253	2103.210407362358	5
0	12257	2103.998125498099	4
0	12267	2107.118585962949	3
0	12272	2107.491073730931	2
0	12280	2108.706043528247	3
0	12282	2108.820695087519	4
0	12283	2108.927367572793	3
0	12288	2109.10626583337	2
0	12292	2109.267669963104	3
0	12294	2109.517117863568	4
0	12299	2111.152244326138	5
0	12300	2111.156807013663	4
0	12306	2111.525234932725	5
0	12307	2112.463999415899	4
0	12312	2112.986957898951	3
0	12319	2114.421988752915	2
0	12327	2116.718423064059	1
0	12332	2117.629385069272	0
0	12370	2122.632271128887	1
0	12375	2123.561474591644	0
0	12379	2123.653754415255	1
0	12384	2126.581427749609	0
0	12395	2127.852147260427	1
0	12397	2129.870209650596	0
0	12409	2131.397488435145	1
0	12411	2132.35701688098	2
0	12413	2132.831682989516	1
0	12419	2133.19403458965	2
0	12422	2133.603244808358	3
0	12423	2133.806000112205	2
0	12428	2133.896597671433	1
0	12432	2134.860495285355	2
0	12439	2136.167353892708	3
0	12440	2136.429453662231	2
0	12450	2137.740890981665	1
0	12455	2138.122774172806	0
0	12468	2139.543208725194	1
0	12471	2139.771219858056	0
0	12495	2141.595925743078	1
0	12496	2141.706381676688	0
0	12509	2143.063733887017	1
0	12511	2143.677754833673	0
0	12519	2144.406186443462	1
0	12520	2144.71844499042	0
0	12527	2145.009801068809	1
0	12531	2145.562476015809	0
0	12551	2147.963176917486	1
0	12553	2148.672994357634	2
0	12555	2148.949798342161	3
0	12557	2149.759613418684	4
0	12562	2151.827216897866	3
0	12571	2153.212751634087	2
0	12579	2153.91660400976	1
0	12585	2154.103081400827	2
0	12591	2154.853280327887	3
0	12593	2155.464694020137	4
0	12595	2156.289165741551	3
0	12601	2156.368749875495	4
0	12605	2157.095676131592	5
0	12609	2157.138175759391	6
0	12610	2157.459186276034	5
0	12615	2157.536774763039	4
0	12622	2158.008589710123	5
0	12623	2158.057340355034	4
0	12629	2158.109163584362	5
0	12631	2158.350300769296	4
0	12637	2159.39799018386	5
0	12638	2159.925207771466	4
0	12644	2160.536556376869	5
0	12645	2160.729049330677	4
0	12650	2161.390955891793	3
0	12655	2161.657137624688	2
0	12663	2162.225915960597	3
0	12664	2162.743363521482	2
0	12668	2163.096152058164	3
0	12673	2165.144757701512	2
0	12681	2166.628694067901	1
0	12687	2167.139871858873	0
0	12723	2170.802073958329	1
0	12728	2171.871303477972	2
0	12732	2172.04832776522	1
0	12740	2172.590689544756	0
0	12751	2172.911814623019	1
0	12753	2173.387884852773	0
0	12759	2175.219293173195	1
0	12760	2175.548835816367	0
0	12772	2177.21373380028	1
0	12773	2177.865874184435	0
0	12794	2179.952997859104	1
0	12795	2180.389000559765	0
0	12807	2181.232415574269	1
0	12809	2181.867783618606	2
0	12811	2181.921297105771	3
0	12815	2182.35164853233	2
0	12820	2182.763666778719	1
0	12826	2183.249387742415	2
0	12829	2184.64435272112	3
0	12837	2186.295872146115	4
0	12839	2186.44289830054	5
0	12842	2187.57226057071	4
0	12848	2188.069908011654	3
0	12853	2188.353414673883	2
0	12857	2188.905839796684	3
0	12863	2190.253947667209	4
0	12864	2190.273033665322	3
0	12868	2190.670526965917	4
0	12871	2192.411499164423	3
0	12875	2193.765365304856	4
0	12879	2194.343142408733	5
0	12883	2194.8767503686	4
0	12891	2196.318910866719	5
0	12893	2196.759487127193	4
0	12900	2197.397722375757	3
0	12905	2197.694428621523	2
0	12910	2198.953147373989	1
0	12914	2199.04403585102	2
0	12918	2199.383077476676	3
0	12920	2199.433987257686	2
0	12925	2200.026744868448	1
0	12933	2202.856224263022	0
0	12982	2207.466481630382	1
0	12983	2207.848988900586	0
0	12989	2208.681271483631	1
0	12992	2210.409618506425	0
0	12998	2210.898565850651	1
0	13000	2211.156992577033	0
0	13025	2213.991154295891	1
0	13027	2214.82913484632	2
0	13028	2214.96411104747	1
0	13034	2215.088063561896	2
0	13036	2215.890578764419	1
0	13041	2216.054422611848	0
0	13047	2216.100625568228	1
0	13049	2216.227353608982	2
0	13051	2217.130213470329	1
0	13057	2217.44400108142	0
0	13085	2219.589994895933	1
0	13086	2219.910379220996	0
0	13092	2220.376725965029	1
0	13093	2220.775281151943	0
0	13108	2221.681408645769	1
0	13109	2222.168292064605	0
0	13132	2226.380403261304	1
0	13134	2226.41625518014	2
0	13136	2227.252494689722	1
0	13141	2227.867590911734	0
0	13147	2227.877058367553	1
0	13150	2228.885419742329	2
0	13153	2230.917101348723	1
0	13161	2231.744284671468	0
0	13189	2235.136431424856	1
0	13190	2235.240588375547	0
0	13209	2238.377922978578	1
0	13210	2238.587091363044	0
0	13256	2243.521147006405	1
0	13260	2244.309991991281	2
0	13261	2245.426456431061	1
0	13267	2245.615563016468	0
0	13273	2245.705546552557	1
0	13274	2245.770794728894	0
0	13288	2247.295726066763	1
0	13290	2247.794994474754	2
0	13292	2249.094089850562	3
0	13295	2251.0498055166	2
0	13301	2251.23703704719	3
0	13302	2252.508672605477	2
0	13309	2252.890459357055	1
0	13314	2253.136417622426	0
0	13318	2254.105474238212	1
0	13324	2256.614738515752	2
0	13329	2259.960985792164	1
0	13343	2261.896474788626	0
0	13355	2262.53926538482	1
0	13356	2263.124191799795	0
0	13373	2265.160898153687	1
0	13377	2266.036753466303	0
0	13383	2266.695715681037	1
0	13385	2267.076412534366	0
0	13430	2281.0526319953	1
0	13431	2281.541330370167	0
0	13444	2282.932904694094	1
0	13447	2284.306024594804	2
0	13448	2284.688250484329	1
0	13453	2287.895697548855	0
0	13462	2288.528219951334	1
0	13463	2288.988837621102	0
0	13547	2305.189392954053	1
0	13548	2305.734908418694	0
0	13576	2310.533657220742	1
0	13578	2311.081028869003	0
0	13593	2315.85650062238	1
0	13594	2316.065438000224	0
0	13607	2318.240435917383	1
0	13608	2319.164761069379	0
0	13612	2319.446121446492	1
0	13615	2320.612844983069	0
0	13619	2320.923790475111	1
0	13621	2323.262677013667	2
0	13625	2324.515164375246	3
0	13626	2325.318693688706	2
0	13632	2326.149331614471	3
0	13634	2327.51763628291	4
0	13636	2328.55287013817	5
0	13639	2328.765648244448	4
0	13646	2330.362025307503	3
0	13651	2332.751360447905	2
0	13656	2334.356216421542	1
0	13661	2335.065205297287	0
0	13667	2335.698832266729	1
0	13670	2336.089251403246	0
0	13715	2347.735748405946	1
0	13718	2350.539437133302	0
0	13739	2354.293959422704	1
0	13740	2354.617862269014	0
0	13746	2355.717378452235	1
0	13748	2356.825204196878	0
0	13769	2359.574579364401	1
0	13771	2360.085833115061	0
0	13777	2360.606399114814	1
0	13778	2361.654428735398	0
0	13784	2362.487548648617	1
0	13787	2363.481388458687	0
0	13831	2371.485189644771	1
0	13835	2372.047613175354	2
0	13837	2372.296459922043	3
0	13838	2373.23645582328	2
0	13844	2374.628380459575	3
0	13846	2374.824502889054	4
0	13849	2375.646644820693	3
0	13853	2377.071576569197	4
0	13858	2377.942457343331	5
0	13860	2378.132078389311	4
0	13866	2378.87657205628	5
0	13867	2379.820659054549	4
0	13873	2382.002531429132	5
0	13875	2382.06689585315	6
0	13876	2382.201587399604	5
0	13880	2382.52116207647	6
0	13883	2383.707810130377	5
0	13887	2384.042577087472	6
0	13891	2384.083624105739	7
0	13893	2384.177937118772	8
0	13898	2386.340368379376	7
0	13903	2387.541726222545	6
0	13909	2391.862203202226	5
0	13915	2392.91223590785	4
0	13920	2393.116774816143	3
0	13927	2393.685280923213	2
0	13933	2394.894194554245	3
0	13939	2395.357316129734	4
0	13941	2395.791123323866	5
0	13943	2397.40716768161	4
0	13948	2397.625792597657	3
0	13952	2397.846061197471	4
0	13955	2398.608473496262	3
0	13961	2399.3369202688	4
0	13963	2399.470243376999	3
0	13970	2400.011989518623	2
0	13974	2401.789894126401	3
0	13979	2403.249050137494	2
0	13983	2404.292176450329	3
0	13985	2405.480988022002	4
0	13987	2405.725165837367	5
0	13989	2408.583621588808	6
0	13997	2410.00224393307	5
0	14010	2411.681392550852	6
0	14011	2411.68315630664	5
0	14018	2413.118710117962	4
0	14022	2414.368316353432	5
0	14026	2415.549114608032	4
0	14031	2415.671477428892	3
0	14035	2415.73161039528	4
0	14038	2416.701957209935	3
0	14048	2418.974517630383	4
0	14049	2419.027959273619	3
0	14057	2419.784473511474	4
0	14058	2420.47052210801	3
0	14063	2421.15094079639	2
0	14069	2422.249510375377	1
0	14074	2423.074649865603	0
0	14082	2424.622517976579	1
0	14087	2425.230414687513	0
0	14099	2428.657276039337	1
0	14100	2429.318400433229	0
0	14135	2432.949075999661	1
0	14137	2433.118785356955	2
0	14138	2433.189807947973	1
0	14148	2434.15254919536	2
0	14149	2434.653207816306	1
0	14155	2435.543449246298	2
0	14157	2436.163224909091	1
0	14164	2436.969814363169	2
0	14165	2437.170118442641	1
0	14169	2437.418686006746	2
0	14176	2438.602342343768	1
0	14181	2438.971099623001	0
0	14185	2439.043534941555	1
0	14190	2440.75154082054	0
0	14200	2443.249004794974	1
0	14202	2443.836553994977	2
0	14203	2443.901665496018	1
0	14211	2444.777176917771	0
0	14254	2448.709621682039	1
0	14255	2449.196173228385	0
0	14285	2452.096346596092	1
0	14286	2452.568267062043	0
0	14308	2455.400925567546	1
0	14313	2456.302995043203	2
0	14319	2457.672081918112	1
0	14324	2457.751794497071	0
0	14363	2461.890345199464	1
0	14365	2463.691592793885	2
0	14371	2466.020753134856	3
0	14373	2466.519552931048	4
0	14375	2467.071190301337	5
0	14376	2467.233908872051	4
0	14382	2467.314130595794	5
0	14383	2467.364322551266	4
0	14389	2468.37423632936	3
0	14395	2469.319062581283	4
0	14397	2469.994460353919	3
0	14403	2471.232148310433	2
0	14408	2471.255656140693	1
0	14414	2472.731427077712	0
0	14420	2473.771144168007	1
0	14422	2474.490466222287	2
0	14424	2474.941967898636	3
0	14429	2476.853730399386	2
0	14436	2478.073593004269	1
0	14441	2479.68578686877	0
0	14457	2480.73651129749	1
0	14458	2480.917298428594	0
0	14462	2482.309263376759	1
0	14465	2483.783763806202	0
0	14487	2487.289765894586	1
0	14491	2488.486114088975	2
0	14492	2488.510726025717	1
0	14497	2489.138115324273	0
0	14519	2490.36654820945	1
0	14520	2490.396212399274	0
0	14526	2491.392619994025	1
0	14528	2491.458134703529	2
0	14530	2491.981907703726	3
0	14534	2492.972531262731	2
0	14539	2493.784590392989	1
0	14544	2494.049345186241	0
0	14585	2500.047040862162	1
0	14588	2500.431554091507	0
0	14599	2503.110826717922	1
0	14602	2503.738992726591	0
0	14608	2503.765497038545	1
0	14609	2504.403735412542	0
0	14618	2505.506102219248	1
0	14622	2506.873106403849	2
0	14625	2507.368237161025	1
0	14632	2507.978962165579	2
0	14634	2508.011677010665	3
0	14636	2508.159362000656	4
0	14638	2508.499162399381	5
0	14641	2509.15269918611	6
0	14648	2509.507821646755	5
0	14654	2509.673709139512	6
0	14656	2509.976532574084	7
0	14657	2510.388170323502	6
0	14662	2510.700579398263	5
0	14670	2515.708565755465	4
0	14676	2516.076936259341	3
0	14682	2517.075615195813	4
0	14684	2518.581830379392	5
0	14685	2519.22292687987	4
0	14689	2519.337823656824	5
0	14691	2519.373374411362	6
0	14693	2520.220802123282	7
0	14698	2521.039591504325	6
0	14704	2523.996415063555	5
0	14711	2524.951938684977	4
0	14718	2525.203498125465	3
0	14726	2526.895997634108	4
0	14728	2528.471596403782	3
0	14735	2529.364741338914	2
0	14742	2529.6256221379	1
0	14751	2535.191084425112	0
0	14771	2538.848546301639	1
0	14772	2539.535222450423	0
0	14779	2540.471242660739	1
0	14780	2541.378071903941	0
0	14788	2541.981945453239	1
0	14790	2542.148657398073	2
0	14793	2542.575347077311	3
0	14796	2542.659563262435	2
0	14801	2542.958177848083	1
0	14807	2543.151765603893	2
0	14808	2544.009347189108	1
0	14813	2545.535782003531	0
0	14829	2546.585247293101	1
0	14832	2547.456088751799	0
0	14843	2548.454353266937	1
0	14846	2549.116045432419	0
0	14852	2549.821770869459	1
0	14854	2550.468247583615	2
0	14857	2551.828309889486	1
0	14863	2552.407383589198	2
0	14865	2552.930557684191	1
0	14869	2553.038734162456	2
0	14877	2554.442551894135	3
0	14879	2555.161127696578	2
0	14884	2555.595838646593	1
0	14892	2557.494912442013	2
0	14893	2557.617750822954	1
0	14897	2558.406149918808	2
0	14899	2559.246904477914	3
0	14901	2561.03144969842	4
0	14904	2562.367412008452	3
0	14911	2563.617111116668	2
0	14916	2566.631918205388	1
0	14920	2568.030584655423	2
0	14924	2568.246826485867	1
0	14929	2568.436402626128	0
0	14949	2570.874453546019	1
0	14952	2571.055334707407	0
0	14965	2571.926014373107	1
0	14966	2572.682711242667	0
0	14978	2573.930386013045	1
0	14979	2574.142183691972	0
0	15002	2578.750552063006	1
0	15007	2580.355840398382	2
0	15010	2581.418143734643	1
0	15016	2581.799270825858	0
0	15034	2583.312149626416	1
0	15036	2583.871180844831	0
0	15045	2584.697177617548	1
0	15046	2585.663589625375	0
0	15064	2588.138114549875	1
0	15065	2588.221648181944	0
0	15071	2588.485561706124	1
0	15072	2589.408208690762	0
0	15083	2590.370555057827	1
0	15085	2590.578960105187	2
0	15086	2590.680953933464	1
0	15092	2591.214429251996	0
0	15110	2592.663422841449	1
0	15112	2593.155338454314	2
0	15114	2594.535975374287	3
0	15120	2595.897789806841	2
0	15127	2596.495799892182	1
0	15135	2597.542627121784	2
0	15136	2597.563147728936	1
0	15142	2597.797850644236	0
0	15174	2603.231268048814	1
0	15178	2604.244575004108	2
0	15179	2605.099360488506	1
0	15184	2605.599456059459	0
0	15190	2605.73704084	1
0	15193	2608.211383633147	0
0	15202	2612.289510198333	1
0	15206	2614.463300699085	2
0	15208	2615.106290824376	1
0	15213	2615.889180671149	0
0	15223	2617.000352106148	1
0	15225	2617.569227705898	2
0	15228	2618.996372202499	3
0	15234	2621.018757062031	2
0	15239	2621.314140817813	1
0	15245	2621.713987712154	2
0	15247	2622.174854494114	1
0	15253	2622.331775101985	0
0	15265	2623.161629413618	1
0	15266	2623.806752554603	0
0	15297	2626.485988865291	1
0	15299	2626.63836572167	0
0	15311	2627.041658573437	1
0	15312	2627.122191946842	0
0	15330	2628.793216519955	1
0	15333	2629.540948161449	0
0	15346	2630.259456770625	1
0	15347	2630.341433081706	0
0	15357	2631.731403576739	1
0	15359	2634.852795086415	2
0	15361	2636.435228550817	3
0	15367	2637.998424243424	4
0	15369	2638.032019632102	5
0	15373	2638.857693673483	6
0	15374	2639.01401208153	5
0	15380	2639.570049899066	4
0	15386	2640.019703898527	3
0	15391	2640.276917926814	2
0	15399	2640.960290448988	3
0	15402	2641.627461467063	4
0	15403	2641.869595518114	3
0	15407	2642.371934826172	4
0	15411	2642.734257410096	5
0	15415	2642.895224456272	4
0	15421	2643.413758128566	3
0	15428	2643.714651816639	2
0	15435	2645.009804706176	1
0	15443	2646.531818623518	0
0	15457	2650.514815192113	1
0	15458	2651.094394967648	0
0	15465	2651.371735420727	1
0	15466	2651.579713538827	0
0	15470	2653.586203662086	1
0	15474	2655.212018421187	2
0	15478	2657.408297295503	3
0	15479	2658.101927446151	2
0	15483	2658.641637711353	3
0	15486	2660.003170893298	2
0	15490	2660.195719734349	3
0	15493	2660.584667408282	2
0	15497	2660.804290158524	3
0	15499	2662.406673474229	4
0	15502	2663.413024408006	3
0	15508	2664.043951283558	4
0	15510	2664.39770751889	5
0	15512	2664.45947151495	6
0	15513	2665.032753756436	5
0	15521	2666.111695940421	6
0	15522	2666.145385150732	5
0	15526	2666.659880903173	6
0	15530	2666.759304566696	7
0	15531	2667.200776213153	6
0	15536	2668.018674213494	5
0	15541	2668.61598548838	4
0	15545	2669.723905307255	5
0	15547	2670.079147172332	6
0	15550	2670.830159856985	5
0	15559	2672.48844071338	4
0	15564	2674.370828724261	3
0	15569	2677.149434879132	2
0	15573	2677.44464426005	3
0	15579	2679.071598399606	4
0	15586	2679.767081164244	5
0	15587	2680.208048762676	4
0	15596	2681.685612151139	5
0	15598	2681.771227802985	6
0	15601	2682.036069497616	5
0	15606	2682.14452638047	4
0	15611	2682.242471211374	3
0	15616	2683.097343080926	2
0	15620	2683.131189896154	3
0	15623	2684.212698198909	2
0	15628	2684.519325472195	1
0	15638	2686.522691897887	0
0	15644	2686.55713520881	1
0	15646	2687.204833818073	0
0	15678	2689.618583607745	1
0	15679	2690.06899339875	0
0	15688	2691.25137137489	1
0	15690	2691.427122567465	2
0	15692	2692.386378516668	3
0	15697	2693.910142599669	2
0	15703	2694.455318676474	1
0	15708	2694.60159190819	0
0	15719	2695.347755165872	1
0	15720	2695.481559744596	0
0	15743	2701.534839880422	1
0	15747	2702.126773768232	0
0	15775	2707.139406653678	1
0	15776	2707.64348121517	0
0	15791	2710.431041176887	1
0	15794	2710.833175880409	2
0	15799	2712.011687457824	3
0	15800	2712.027209832846	2
0	15806	2712.44994598765	1
0	15812	2712.6209985448	2
0	15813	2712.811448064444	1
0	15818	2713.103704541809	0
0	15833	2716.689327869797	1
0	15837	2716.96061432659	2
0	15838	2717.739218892207	1
0	15844	2718.442397645061	2
0	15845	2719.260180439055	1
0	15850	2720.052446843281	0
0	15867	2721.943014421248	1
0	15868	2722.214423035822	0
0	15880	2724.026391840411	1
0	15881	2724.578813024474	0
0	15902	2725.837367261226	1
0	15904	2726.170166576901	2
0	15906	2727.389791850588	1
0	15911	2727.604321217574	0
0	15917	2727.817860546663	1
0	15920	2728.809664636565	2
0	15923	2729.695570300808	3
0	15927	2730.631803518421	2
0	15933	2730.857859981904	3
0	15935	2731.400624542747	2
0	15940	2731.481325604999	1
0	15946	2733.029499953251	2
0	15950	2733.616886128682	1
0	15955	2733.805538791234	0
0	15971	2734.768803919863	1
0	15973	2734.924917035264	2
0	15974	2735.287844248812	1
0	15980	2737.162761328951	2
0	15981	2738.122333308657	1
0	15985	2739.114917699406	2
0	15989	2739.688528016062	3
0	15991	2739.86648866579	2
0	15995	2740.085884615017	3
0	15998	2740.382314155671	2
0	16003	2740.972301895774	1
0	16010	2742.74940834136	0
0	16014	2743.645774639081	1
0	16017	2744.386282258412	0
0	16021	2744.591784807432	1
0	16025	2750.095330824169	2
0	16029	2750.868257247911	3
0	16033	2752.796411857415	2
0	16038	2752.918713986625	1
0	16043	2753.050775992691	0
0	16065	2756.339109827887	1
0	16068	2756.823260608715	2
0	16074	2758.024917018418	3
0	16075	2758.298071402068	2
0	16080	2758.532747976151	1
0	16087	2760.442331623191	0
0	16093	2762.05802122446	1
0	16095	2762.777177823744	2
0	16096	2764.664438314252	1
0	16100	2765.133884631322	2
0	16104	2765.845194672279	3
0	16107	2767.947642264589	2
0	16117	2769.070475980115	1
0	16126	2770.635652620511	2
0	16127	2770.777656327158	1
0	16133	2770.808818216839	2
0	16135	2770.918447654052	3
0	16136	2771.245984009696	2
0	16140	2771.457348186951	3
0	16144	2773.098040155389	4
0	16147	2773.833243928597	3
0	16152	2776.085518455928	2
0	16159	2776.732692859207	3
0	16161	2776.89823119987	4
0	16163	2777.203028880105	3
0	16171	2778.326223402863	2
0	16176	2780.707186135178	1
0	16181	2780.818024008398	0
0	16195	2783.213814142672	1
0	16196	2783.326602996836	0
0	16202	2783.352554257455	1
0	16204	2786.109907882337	0
0	16210	2786.698163487655	1
0	16211	2787.174406869585	0
0	16227	2788.297355906416	1
0	16229	2789.24203515732	0
0	16246	2791.243335234407	1
0	16247	2791.423435824087	0
0	16281	2796.889463289086	1
0	16282	2797.223918643529	0
0	16295	2798.325786888297	1
0	16296	2798.336232249059	0
0	16312	2799.851822464588	1
0	16314	2800.573589969625	0
0	16320	2801.597020923335	1
0	16323	2801.950420399205	2
0	16326	2803.789853752073	1
0	16332	2804.289791753919	0
0	16354	2807.238127849921	1
0	16357	2807.609589937686	0
0	16363	2807.707814949388	1
0	16364	2808.235506056621	0
0	16385	2814.042259221372	1
0	16387	2815.043478954919	2
0	16392	2816.080955010335	1
0	16398	2816.950201618697	0
0	16407	2817.208883147947	1
0	16411	2819.090905796885	0
0	16422	2819.520257363061	1
0	16423	2820.22846723979	0
0	16439	2821.369552609146	1
0	16441	2823.06734252625	2
0	16443	2823.460521062699	3
0	16447	2823.819629326592	4
0	16449	2824.664780406418	5
0	16452	2826.689862079229	4
0	16459	2828.638386088096	3
0	16465	2829.440013224444	2
0	16472	2829.958662914041	1
0	16477	2830.007364507656	0
0	16501	2833.577757675491	1
0	16503	2837.353266797334	2
0	16508	2839.033385905921	1
0	16514	2839.907216205872	0
0	16541	2842.993979280213	1
0	16543	2843.4467683733	0
0	16574	2847.615470717237	1
0	16575	2847.878220513854	0
0	16599	2855.423866760965	1
0	16601	2855.839275831787	2
0	16603	2856.375719653088	1
0	16608	2856.715298701196	0
0	16616	2857.32652630322	1
0	16617	2857.351467823102	0
0	16648	2861.723056710283	1
0	16654	2863.369925654056	0
0	16708	2873.952537526303	1
0	16710	2874.286970807278	0
0	16725	2874.87931833026	1
0	16726	2876.6656590024	0
0	16734	2878.159419739127	1
0	16735	2878.316090102404	0
0	16739	2879.359895193393	1
0	16742	2880.971152344364	0
0	16746	2881.224684601988	1
0	16750	2881.765876292291	2
0	16753	2882.982136763944	1
0	16759	2884.645923177058	0
0	16781	2887.27828686465	1
0	16783	2887.393234835702	2
0	16784	2887.814876664785	1
0	16789	2888.356135798383	0
0	16795	2889.131752124548	1
0	16799	2890.45905086629	0
0	16830	2894.624694673602	1
0	16833	2895.741449517781	0
0	16863	2898.824738132129	1
0	16864	2899.742951887581	0
0	16885	2901.736600913036	1
0	16888	2902.288463233534	0
0	16895	2903.252017680054	1
0	16896	2903.895088422665	0
0	16924	2908.020147314647	1
0	16925	2908.072588242594	0
0	16990	2926.267947438278	1
0	16992	2927.271380332175	0
0	17004	2927.924170768324	1
0	17008	2928.655103907861	2
0	17009	2929.486768072911	1
0	17014	2929.735617680116	0
0	17020	2930.413660227499	1
0	17026	2931.322197042792	0
0	17047	2934.215455967907	1
0	17049	2934.560897671005	2
0	17051	2935.695010629201	3
0	17053	2936.275339221672	4
0	17054	2938.158187511607	3
0	17061	2938.46663401529	2
0	17066	2938.65516295565	1
0	17072	2939.576433171227	2
0	17073	2940.351324729505	1
0	17078	2940.579260254948	0
0	17101	2948.293032882473	1
0	17103	2948.438548706022	2
0	17106	2948.692817023539	3
0	17107	2949.315933943578	2
0	17114	2949.894196151822	3
0	17115	2951.689844192299	2
0	17120	2952.175819476206	1
0	17127	2952.521183809945	2
0	17128	2953.517730131229	1
0	17133	2954.395665725621	0
0	17137	2954.596053044486	1
0	17140	2955.346710630652	0
0	17151	2956.192584517345	1
0	17152	2956.221160960607	0
0	17156	2956.567299429854	1
0	17160	2958.320787790565	0
0	17164	2958.585376751586	1
0	17167	2960.494535818078	0
0	17173	2961.871341136758	1
0	17174	2963.186490363179	0
0	17178	2963.370113054762	1
0	17183	2964.254318076686	0
0	17194	2964.598844865546	1
0	17195	2964.879607960015	0
0	17217	2967.313257493002	1
0	17219	2967.377549978102	0
0	17250	2971.606312160872	1
0	17252	2972.471680468828	0
0	17266	2972.88415522783	1
0	17268	2973.059409107834	2
0	17269	2973.298087440529	1
0	17274	2973.4744579948	0
0	17306	2980.841288560741	1
0	17307	2980.939835441926	0
0	17335	2985.095009473616	1
0	17338	2985.73352099411	2
0	17339	2985.819392764832	1
0	17345	2987.041911356009	0
0	17375	2992.975419046808	1
0	17379	2994.513056373452	2
0	17381	2994.561943867666	3
0	17386	2995.733649308123	4
0	17388	2996.410700638962	3
0	17394	2997.421206433801	4
0	17395	2997.695364162807	3
0	17400	2997.799795268461	2
0	17406	2998.55830831804	1
0	17411	2998.981275742787	0
0	17449	3007.582660773718	1
0	17451	3007.654077134852	2
0	17454	3007.912647797405	1
0	17459	3008.152175403175	0
0	17475	3009.30378161034	1
0	17477	3009.43434682433	2
0	17479	3009.899080728992	3
0	17483	3011.819775476943	2
0	17489	3011.966771289093	3
0	17490	3012.171658860946	2
0	17496	3012.985876518379	1
0	17502	3013.767054944119	0
0	17513	3014.938421145113	1
0	17514	3015.809501783386	0
0	17527	3018.827415180222	1
0	17530	3020.106788635182	0
0	17567	3027.520676626376	1
0	17569	3028.291808211832	2
0	17570	3028.406807518536	1
0	17576	3029.130975303429	0
0	17614	3035.438026636561	1
0	17617	3035.953846402	2
0	17619	3036.147035221499	3
0	17624	3036.519605512989	4
0	17626	3036.689996325488	5
0	17628	3036.937995725985	4
0	17633	3037.796416270017	3
0	17638	3037.883259183997	2
0	17644	3038.300835791556	3
0	17646	3038.662493274793	4
0	17647	3038.708961799566	3
0	17653	3039.021818847613	4
0	17656	3039.739707139834	3
0	17661	3041.484469054712	2
0	17665	3043.369998938018	3
0	17668	3044.044776240341	2
0	17673	3045.208224373189	1
0	17678	3046.350516106931	0
0	17703	3050.20841135922	1
0	17706	3050.946025608289	0
0	17725	3053.847325322252	1
0	17727	3054.504226862131	2
0	17728	3055.206579387119	1
0	17735	3056.05932897675	2
0	17736	3056.438126258082	1
0	17741	3057.176865700054	0
0	17764	3061.531878837922	1
0	17765	3061.945743269077	0
0	17788	3063.795086796101	1
0	17791	3064.913242077274	0
0	17803	3066.218679591828	1
0	17807	3067.285661926562	0
0	17837	3071.334954429453	1
0	17839	3071.788419457602	2
0	17844	3072.278163884767	3
0	17845	3072.975257528296	2
0	17850	3073.134169851326	1
0	17855	3073.463348562762	0
0	17862	3075.47473704885	1
0	17863	3075.599778491198	0
0	17867	3077.191197392943	1
0	17877	3081.972006521219	2
0	17878	3083.472969055842	1
0	17884	3083.807975971169	2
0	17887	3084.105813149262	3
0	17888	3084.351728347795	2
0	17894	3084.961460967558	3
0	17895	3085.594641797521	2
0	17900	3086.461164260918	1
0	17905	3087.295557528557	0
0	17909	3087.329484551816	1
0	17912	3089.204470244295	0
0	17944	3094.631756611698	1
0	17948	3096.643963978464	2
0	17959	3100.794338736226	1
0	17966	3101.842649745356	0
0	17986	3107.164538404958	1
0	17990	3108.767087421389	0
0	18030	3116.655614712609	1
0	18031	3117.067958265186	0
0	18064	3122.322704433006	1
[...]
4	163590	28217.961044866997	0.653412166897
4	163611	28222.011430007921	0.004278897583
4	163646	28235.803079848323	0.141068364686
4	163662	28238.932031736088	3.261139185178
4	163716	28245.550711356881	9.17405684202
4	163740	28249.131990820594	9.260996131541
4	163752	28251.387081407707	10.6407392221
4	163759	28251.920883051503	8.8051345072
4	163771	28252.450174789255	8.573974621219
4	163780	28253.682345359788	8.093690550834
4	163791	28255.506128465703	5.89057223768
4	163799	28256.108493848717	3.798886207544
4	163834	28263.289797835954	1.364268633842
4	163863	28271.921391292572	0.942927154138
4	163875	28275.081405516288	1.616359610017
4	163926	28283.590364458079	4.514412658757
4	163932	28284.344529805024	1.067344200124
4	163948	28287.587265084299	0.155941323052
4	164009	28294.339391583113	2.444474442203
4	164021	28297.807512823665	0.597510968159
4	164040	28299.904723446923	1.81847269362
4	164044	28299.915272757961	1.636804923378
4	164058	28302.308772351883	0.783866727646
4	164073	28304.615598432921	0.039346812234
4	164093	28310.535183098163	1.715539924466
4	164162	28318.419919399265	6.404194533441
4	164172	28319.011928515332	6.189714397715
4	164177	28319.031777148526	5.080426746857
4	164182	28319.037558240742	4.027857107789
4	164187	28319.966761623629	3.888083498746
4	164196	28322.566936953705	5.301975651531
4	164205	28326.013444346853	8.200985103619
4	164234	28331.664369409999	9.95084061601
4	164244	28332.874503875596	10.419160242285
4	164258	28334.12159791432	10.717702787865
4	164311	28345.571871891139	19.30968146952
4	164329	28349.351413310221	17.1334440805
4	164345	28351.646484259657	13.726590309655
4	164352	28351.94928786048	13.480647130261
4	164377	28357.176366810343	15.849435761266
4	164396	28358.686511717754	17.176606670097
4	164405	28359.458275369644	17.94113622017
4	164416	28359.724759462046	17.964332056756
4	164421	28359.928076984158	9.078884728332
4	164426	28361.031553784283	9.021209761581
4	164434	28361.447374159884	8.680746957588
4	164446	28362.01038386932	5.259902047282
4	164451	28363.308463347923	6.171461890948
4	164473	28366.503999152703	4.789555645674
4	164522	28373.765014244801	8.131266641251
4	164530	28376.107540578581	8.552219606169
4	164537	28376.476643666937	5.697385541516
4	164569	28382.888380024975	11.25887616277
4	164581	28383.356851534317	11.602300314307
4	164596	28386.728936028825	7.77783286749
4	164600	28387.800426209411	7.903458622754
4	164633	28404.517699222699	1.035367662788
4	164640	28405.74955766992	0.325773429697
4	164669	28414.563977449162	4.032469163906
4	164686	28416.772542993892	5.762446049329
4	164691	28417.306729241525	3.98321040594
4	164695	28417.420114437506	3.183581991756
4	164703	28419.184444264805	1.202888565904
4	164714	28421.671887031936	0.291567555799
4	164739	28424.513678374959	0.168600068534
4	164787	28431.516405652763	3.336852510576
4	164792	28431.588665176625	0.89949163841
4	164799	28432.453566441025	1.600239012272
4	164843	28442.683680746882	3.42156217187
4	164860	28446.021562539597	2.633513317342
4	164925	28458.936280120875	5.078305244837
4	165015	28474.739056192041	5.503239366895
4	165026	28475.655951493305	4.442306618116
4	165092	28488.346495100414	5.749716689839
4	165135	28492.557611877385	9.444699128627
4	165157	28495.817057629339	8.705587871949
4	165169	28497.148221331061	7.621668855397
4	165210	28506.137536436617	16.355237779177
4	165224	28508.173737477393	12.746264225248
4	165288	28518.893879318506	23.441520671154
4	165293	28519.060258196333	8.167644919383
4	165317	28522.75619985	0.251847188663
4	165332	28527.220992647543	2.124055408495
4	165337	28528.133379025437	2.311004050337
4	165362	28532.651814513068	1.480757071329
4	165369	28536.287240090087	4.521352054734
4	165406	28543.52947171657	1.137803117635
4	165429	28545.67468719952	0.540916395739
4	165449	28550.532621331791	0.016594852984
4	165485	28556.385711003328	1.05882218673
4	165565	28573.253399778076	9.436974925036
4	165572	28574.400552230402	6.325354254786
4	165578	28575.367696814	5.559157025389
4	165583	28575.939181261864	4.314917969543
4	165588	28576.290300922171	3.78020665641
4	165617	28580.2174895685	0.658674368925
4	165632	28581.597270713532	1.687390112543
4	165659	28584.965882072315	4.139816037109
4	165674	28586.976633255325	1.70684955363
4	165705	28592.487615054892	0.922473234385
4	165728	28596.247979435318	2.019612360904
4	165737	28598.288662782263	3.580219796108
4	165753	28601.661184083074	2.279261261216
4	165775	28606.714701182591	0.574602013348
4	165819	28616.342070783107	1.981173542785
4	165847	28621.022218096092	1.191828876805
4	165923	28634.419953653934	6.885750148289
4	165929	28635.075479492291	7.304811917782
4	165936	28635.675902584129	7.776031755594
4	165973	28640.215970279873	7.760715492506
4	165979	28642.237145536458	6.333085805118
4	166002	28644.08137050475	0.189268587534
4	166023	28650.634189569269	0.436438576815
4	166053	28658.447246596085	2.421825865228
4	166084	28660.897160178677	4.355883314935
4	166107	28664.747399996897	3.185769616196
4	166111	28665.278026512953	0.914089110583
4	166122	28667.766245451013	1.476722595766
4	166143	28670.818521866956	0.003561119589
4	166156	28675.576423591109	1.227276482351
4	166163	28677.419802682417	2.299685275886
4	166203	28689.737242182705	1.728140806132
4	166232	28693.490963164029	0.638368148886
4	166248	28697.205831112434	2.540339382435
4	166268	28701.641027668393	1.925506136021
4	166282	28703.08418686298	0.721763862039
4	166302	28704.985474514024	0.630996111431
4	166313	28705.658576652704	0.426643754744
4	166336	28710.620736135234	4.482927059005
4	166354	28713.647765055818	0.281495879536
4	166407	28722.916316872385	1.037016436927
4	166432	28727.738036099661	2.936944880682
4	166454	28727.969762450583	1.25024521668
4	166458	28728.233305377858	0.369756776052
4	166470	28736.043460213075	1.628815963708
4	166478	28736.631048061855	0.463927185295
4	166526	28745.587474462741	1.21455208619
4	166583	28757.35714525503	4.839021453219
4	166600	28759.989307299337	5.061871193041
4	166625	28763.549593429198	4.513429759876
4	166634	28765.63716879697	0.324381272839
4	166654	28771.557680281019	5.338563223727
4	166673	28772.553843680456	1.686544543125
4	166695	28778.78062101455	0.624998510743
4	166700	28779.044913504207	0.312858237763
4	166747	28790.914412496188	1.116348523454
4	166794	28797.378390612649	6.420461875116
4	166800	28797.571888674466	5.886836919354
4	166808	28798.311255196864	4.618962748048
4	166818	28799.338667814068	2.070498126561
4	166889	28811.947593629007	8.165239052442
4	166895	28813.4898139947	6.403171654291
4	166908	28816.463640690773	6.012879832599
4	166931	28819.959823588485	9.26587113884
4	166936	28820.417949855723	5.633642122405
4	166941	28820.680918974434	1.934552735747
4	166952	28823.71702650251	4.180020399433
4	167011	28830.633145938798	6.913106016023
4	167040	28834.495359703493	0.725755465511
4	167061	28839.53377375026	5.69000990262
4	167075	28840.399030717545	4.865013908174
4	167106	28844.038722309383	7.191263828367
4	167111	28844.236261133828	6.072179825764
4	167116	28844.446483063091	4.800787548846
4	167121	28844.93979680169	2.545517166151
4	167222	28866.193537449354	20.059247095069
4	167227	28866.517877017858	18.185201105809
4	167233	28866.603972989862	17.788059782027
4	167238	28866.695223814067	10.850941041748
4	167249	28869.183355834236	10.900575221023
4	167289	28877.071923295326	16.059945230707
4	167337	28887.078457467285	17.628543378417
4	167342	28887.173832079854	10.916038149791
4	167389	28901.938036759918	0.733012246127
4	167408	28905.226009177834	2.320028244285
4	167412	28905.911975436176	2.605608538749
4	167429	28910.034434221107	0.391207729143
4	167437	28911.169571151	0.270456052428
4	167444	28911.507413705294	0.234718346412
4	167453	28915.458048500296	0.173874265697
4	167469	28920.016366275419	2.129000341424
4	167509	28927.313807660533	0.607102535727
4	167536	28931.080468156583	3.458132366396
4	167548	28931.9238574509	0.613346755857
4	167567	28935.234040392039	0.48148848049
4	167605	28941.067398584799	3.955764573225
4	167772	28978.136895276633	40.944502586586
4	167783	28978.972090237877	40.160136229899
4	167797	28980.416180775622	40.012553875693
4	167805	28981.496513012738	40.351108982395
4	167979	29009.746529568041	67.134029704037
4	167988	29010.697863257963	67.160286312299
4	167996	29011.296078737617	60.571836317939
4	168009	29011.737070932005	56.367840978839
4	168023	29013.209224797902	55.88517100309
4	168029	29013.671539950412	52.517146982825
4	168034	29013.731127974122	51.675083744982
4	168043	29014.448613544862	52.351455031804
4	168048	29014.63375531253	52.349286681193
4	168056	29015.576157894546	53.097307487685
4	168065	29020.622728993542	57.595453936693
4	168081	29021.88078585463	53.854435354705
4	168086	29022.705798063127	53.940294502386
4	168093	29022.928778458117	53.081203877527
4	168122	29024.877178320827	51.773854526433
4	168135	29026.496992717269	51.176889928118
4	168144	29028.147075463458	49.829291130611
4	168165	29029.596695807545	50.121471556679
4	168170	29029.603217986459	45.295058373313
4	168175	29029.791394879035	45.062280269382
4	168180	29031.298029656176	46.030753205265
4	168193	29035.364077774452	46.772308787451
4	168216	29040.045694150053	45.747662538123
4	168227	29041.400483061837	44.787999640607
4	168244	29044.738168087844	41.542997942698
4	168295	29054.885565688366	51.502524027323
4	168305	29055.088075765603	49.754178518898
4	168313	29055.87110724299	49.531050401138
4	168324	29056.885266407167	49.646586202368
4	168345	29058.718934587788	48.415694218147
4	168350	29058.95008700222	44.806549898648
4	168355	29059.333670285722	44.961787091881
4	168367	29061.17825770953	46.365262553508
4	168437	29070.200609164643	44.806049668994
4	168448	29071.973748442964	42.462842116031
4	168454	29072.999751618724	41.584317264413
4	168466	29074.039157338155	38.559649078494
4	168512	29078.278108026355	42.570509333421
4	168517	29079.062098453769	37.346272517847
4	168522	29079.335968819388	31.455474963744
4	168528	29079.695122118748	30.940335909752
4	168535	29080.082752009225	31.188859970695
4	168545	29080.227070566479	26.157348620203
4	168558	29083.202923726414	26.488809097608
4	168621	29098.15088296983	39.996448049331
4	168630	29099.780627542007	38.751525109468
4	168725	29119.581124203783	52.729896969536
4	168970	29172.731796894697	105.70950782629
4	168985	29175.456439856359	101.73230646369
4	169032	29184.604014013351	108.32906167022
4	169044	29187.180114188422	98.095552038249
4	169445	29259.350218251492	167.77199023638
4	169450	29259.441761279045	165.40249537363
4	169455	29259.901438007336	163.44729242103
4	169462	29260.285177657591	160.42825043538
4	169467	29260.553971655455	159.83252046909
4	169476	29261.795644919909	160.62219613956
4	169513	29266.769378314301	165.35202097691
4	169523	29268.374322150182	160.48907432402
4	169529	29270.583964700647	155.37076794847
4	169537	29271.4616386137	153.67105654361
4	169550	29273.97794185785	150.92010658975
4	169559	29274.364180093324	148.94527424091
4	169580	29276.955128637407	149.32168291801
4	169591	29278.527020427957	146.99360472309
4	169850	29341.902412123993	210.13206659141
4	169866	29343.208744505383	205.06945148079
4	169891	29344.862156967724	206.63486861081
4	169902	29346.252994602099	206.90052903612
4	169908	29347.213907108183	206.9479535045
4	169917	29347.577774341772	196.31469014893
4	169928	29348.752497263791	195.90161277409
4	169933	29348.909804867388	195.21177888309
4	169950	29354.155336895381	199.79456823591
4	169980	29359.699836863558	200.69313243395
4	170001	29362.275805378836	200.91460201629
4	170015	29363.821468931848	202.33579807098
4	170030	29365.078435263732	199.97350537067
4	170035	29365.240200863044	199.25365229051
4	170040	29365.264377842352	197.21656450308
4	170052	29366.697444640174	191.64938972967
4	170074	29368.513055485107	191.66311716923
4	170079	29368.760499304876	189.75963578057
4	170087	29369.249954004857	182.18448622808
4	170100	29371.437676377566	175.72496734491
4	170114	29372.355148165285	168.33615382985
4	170126	29374.922675949083	170.37272157651
4	170131	29375.132501035857	170.41973771899
4	170139	29377.713201624232	172.18222173615
4	170148	29379.59443051476	173.19240874913
4	170168	29381.847904512547	174.61666517064
4	170176	29382.41957182177	169.5582292309
4	170184	29383.965566128458	167.14419639838
4	170195	29386.307159356929	168.21192250489
4	170200	29386.342269345342	164.73027451873
4	170210	29388.041091543065	165.09212755286
4	170227	29390.889019866659	167.54571898175
4	170303	29402.487496367904	178.35078766516
4	170309	29402.819056725846	172.76376860062
4	170318	29403.696935391782	170.28476436927
4	170334	29405.602730719541	164.97964399853
4	170388	29416.926848724336	176.1420707451
4	170398	29417.866186243322	174.08164848423
4	170403	29418.034986745104	171.89140669995
4	170411	29418.704175173354	168.25155951991
4	170432	29422.111027966095	171.35912407101
4	170441	29422.774091207547	170.24641053666
4	170452	29423.053822208901	166.31366866448
4	170461	29424.981903090018	164.73109052795
4	170466	29425.356852405486	158.28728147499
4	170471	29426.254957747793	158.6448878638
4	170478	29426.597865958691	152.49306048328
4	170484	29427.126111475234	152.17912682965
4	170491	29427.604738169672	146.41514391713
4	170501	29427.831985786619	144.75319339203
4	170512	29432.550582820655	142.88623379628
4	170542	29434.760587486844	144.20967336123
4	170553	29440.702722169045	150.11741512924
4	170589	29444.48667852461	152.28162777259
4	170624	29449.689755874924	147.46969323416
4	170636	29450.47455549131	146.38694631588
4	170646	29452.536396155596	146.55741764071
4	170664	29454.481185309192	142.72450263144
4	170703	29461.456338636209	147.69971031527
4	170721	29463.407755719461	144.93208723922
4	170736	29465.273783839302	135.76963394246
4	170819	29480.241201063481	150.24386232716
4	170834	29482.027250738996	144.05362860846
4	170842	29482.518449957053	143.40778242759
4	170852	29483.686902178422	144.43114342116
4	170868	29485.951991409891	132.96195580527
4	170954	29496.457094741722	141.01266295282
4	170970	29499.869804170785	142.26329812697
4	170996	29502.58129285605	144.92324534226
4	171005	29504.505687532693	146.17442176626
4	171022	29505.012199690366	143.52481055643
4	171037	29507.488276652917	129.92939685138
4	171096	29511.68424136845	129.44105464161
4	171107	29515.901691161063	129.50267629678
4	171114	29516.284112084679	119.483344294
4	171129	29518.858565855401	119.9949751452
4	171134	29519.205982418451	114.55092841251
4	171143	29523.833331032728	119.1532434997
4	171157	29527.204080744105	119.65336296419
4	171177	29532.524441466149	116.75933952562
4	171187	29532.996616060995	108.26316610596
4	171208	29536.936210984097	107.68512651639
4	171249	29541.731101922242	109.11828061105
4	171254	29542.37026617664	108.3750228454
4	171260	29543.73515259927	95.368256973928
4	171266	29544.143628185851	94.593743412505
4	171275	29546.917197320988	97.043973022328
4	171285	29547.396823044787	96.7731208333
4	171295	29550.494416189091	81.97176259856
4	171307	29552.133965869321	83.043169120641
4	171313	29553.354917657337	77.289541121679
4	171322	29554.05612086132	74.342572047045
4	171329	29555.730384559352	74.909499821806
4	171345	29559.790661965279	75.979599800564
4	171409	29571.139322485787	85.148770138421
4	171427	29575.837374861746	87.6460819186
4	171439	29576.251031199196	81.861348035348
4	171446	29577.020266946348	82.584651425031
4	171451	29578.522949917452	79.470540164838
4	171460	29579.914948761404	80.659893973686
4	171476	29581.359493387785	79.884170602879
4	171484	29582.144722470545	76.824861528069
4	171495	29586.988401547115	81.378282807408
4	171521	29591.218943839934	79.603180080418
4	171532	29592.482459939723	77.141804614252
4	171539	29592.774899189828	75.137830283324
4	171550	29594.52329764985	76.386543190469
4	171557	29596.51505108914	75.268411142818
4	171562	29596.898535917353	67.288414220808
4	171567	29597.233702308676	66.511663551633
4	171584	29601.506337240978	68.436338986247
4	171649	29608.587931166199	71.794488928094
4	171660	29609.812252337768	71.139590695176
4	171668	29611.488419953366	65.127024688863
4	171683	29614.634264438354	66.061247981969
4	171713	29617.743441777061	67.160536999316
4	171756	29622.386423375496	68.677990624428
4	171763	29622.486921522863	68.542977544712
4	171785	29625.668573291765	67.145327060869
4	171790	29625.801817889342	59.763222048698
4	171800	29626.182356507684	59.295748540112
4	171812	29628.035075290836	53.558870252837
4	171824	29630.000490543318	53.152481913162
4	171831	29632.308556092211	50.202648933862
4	171837	29633.056465288257	48.26550312251
4	171850	29635.793268529338	47.583872262265
4	171865	29636.627192182517	46.671018488019
4	171882	29639.845601330669	42.515804522766
4	171915	29643.100115347638	34.707469537724
4	171920	29643.489402384066	30.673516741532
4	171925	29643.670212316193	30.208767465105
4	171930	29643.923589811423	27.987038822449
4	171939	29645.667759993799	28.494299631027
4	172011	29656.610094727427	31.163116327967
4	172016	29657.122439724643	31.218556469574
4	172022	29657.82776808814	30.732064687011
4	172027	29657.869487788381	24.563862905055
4	172034	29659.003052855877	8.375691643721
4	172042	29659.786795719597	5.09015075065
4	172048	29660.452873335348	0.917120764637
4	172056	29662.577544921395	0.852429058854
4	172072	29665.39636740289	0.12183790122
4	172084	29669.103003290257	2.541108156062
4	172101	29670.720221115799	0.253122296098
4	172198	29690.00092217039	2.880193807229
4	172205	29694.325839233663	5.279281441389
4	172251	29701.553739733091	0.375505955712
4	172273	29706.962142647979	0.935318674509
4	172308	29713.434299441722	1.175085279913
4	172320	29715.254989013536	1.930070083872
4	172343	29716.32900653585	0.1668794572
4	172393	29723.100150751041	0.784070868265
4	172428	29729.750030278348	3.536960940004
4	172531	29744.787302244848	12.88358591021
4	172542	29746.330685534728	13.319195973233
4	172560	29749.093321150883	15.675007213888
4	172646	29767.599386638253	29.69932436069
4	172651	29768.874654948078	29.569156154732
4	172662	29771.274677370945	30.995781691186
4	172670	29772.10158537542	20.078858029194
4	172683	29774.611640870592	20.500462989734
4	172706	29776.791611253869	16.716913928728
4	172711	29777.058900815191	5.806666972506
4	172718	29777.863245986604	6.224228430685
4	172723	29778.91942450901	3.210182624859
4	172734	29780.391797107679	2.56134648044
4	172741	29782.008805899818	2.732388692781
4	172751	29784.604070502838	4.875597343523
4	172782	29788.011695925989	7.73345606907
4	172826	29792.24097787458	10.875401400575
4	172843	29793.9276037368	2.498256340702
4	172870	29798.454728681777	3.236281634809
4	172888	29800.539490587109	0.328491288247
4	172906	29805.527750293222	0.597239540971
4	172931	29809.694565437118	2.112471725792
4	172960	29814.50247166815	1.413439736975
4	172968	29815.615211617689	0.292140747644
4	173042	29830.223979249575	1.433326778526
4	173053	29832.040424594695	1.015933698836
4	173081	29839.777903138136	7.216336172196
4	173086	29839.982730467894	3.190224902583
4	173096	29841.316477253476	3.715946726254
4	173115	29842.586670244884	4.138293429166
4	173119	29845.098235501504	2.673024137281
4	173133	29850.806184135429	2.259799366649
4	173164	29853.876350645995	0.535332801382
4	173183	29861.842421368402	0.198247234568
4	173234	29869.732336824905	3.536500884619
4	173250	29872.049966612868	3.158643124439
4	173259	29872.817258484651	3.637349725502
4	173267	29874.194787959403	1.636585909378
4	173271	29874.373253108118	1.65700195569
4	173278	29874.794672317618	0.259819442567
4	173363	29891.083441559874	10.603243434153
4	173368	29891.189509934653	8.467673494453
4	173372	29891.697540590482	7.470704048146
4	173416	29901.069148973119	1.427534282812
4	173451	29905.599232153256	1.423929864842
4	173470	29908.404391935403	2.949061206013
4	173481	29909.250682569869	1.540729112017
4	173485	29909.492202763173	1.628296480337
4	173504	29912.875681184551	0.096182067518
4	173525	29918.437291463431	0.823816562017
4	173532	29918.714579169952	0.094202886832
4	173555	29922.427599949787	3.001328085778
4	173568	29923.909185012594	2.447711147598
4	173572	29924.417478955086	2.309190575291

