version 2
run First-n5-7-20191016-14:52:49-13952
attr configname First-n5
attr datetime 20191016-14:52:49
attr experiment First-n5
attr inifile omnetpp.ini
attr iterationvars ""
attr iterationvarsf ""
attr measurement ""
attr network org.omnetpp.queueing.Pizza
attr processid 13952
attr repetition 7
attr replication ""
attr resultdir results
attr runnumber 7
attr seedset 7
param **.PS.maxInventoriedPS 5
param **.U1.interArrivalTime exponential(2s)
param **.U2.interArrivalTime exponential(4s)
param **.PS.serviceTimeForInventoryU1 exponential(0.8s)
param **.PS.serviceTimeForInventoryU2 exponential(1.0s)
param **.PS.serviceTimeDirectU1 exponential(1.2s)
param **.PS.serviceTimeDirectU2 exponential(1.4s)
param **.PS.probabilityProducing 0.5
param **.CS.serviceTimeU1 exponential(0.8s)
param **.CS.serviceTimeU2 exponential(1.0s)

vector 0 Pizza.EntryQueueU1 queueLength:vector ETV
attr interpolationmode sample-hold
attr title "queue length, vector"
vector 1 Pizza.CS queueLength:vector ETV
attr interpolationmode sample-hold
attr title "queue length, vector"
vector 2 Pizza.EntryQueueU2 queueLength:vector ETV
attr interpolationmode sample-hold
attr title "queue length, vector"
vector 3 Pizza.sink lifeTime:vector ETV
attr interpolationmode none
attr title "lifetime of arrived jobs, vector"
attr unit s
vector 4 Pizza.sink lifeTimeU2:vector ETV
attr interpolationmode none
attr title "lifetime of arrived jobs, vector"
attr unit s
0	0	0	0
0	12	3.186271203354	1
0	16	3.922646749257	2
0	18	4.535346124087	3
0	20	5.926127373993	4
0	22	6.107604223705	5
0	24	6.257161520631	6
0	30	7.344452251714	7
0	32	7.741080339274	6
0	42	8.140385499458	5
0	47	8.332398939077	4
0	53	9.61851404012	5
0	55	10.227719621579	6
0	57	10.278148534068	7
0	59	10.983238070839	6
0	64	11.192644628015	5
0	73	13.056848400218	6
0	74	13.340759820876	5
0	81	14.539056613882	6
0	83	14.750831197976	7
0	84	14.807977375928	6
0	88	15.20927791945	7
0	94	16.558972778663	8
0	97	18.01560272238	7
0	102	18.138791305489	6
0	108	18.621206800031	5
0	113	18.887037691188	4
0	118	19.378643990127	3
0	124	20.198278473957	4
0	125	20.486416765095	3
0	131	23.66561354003	2
0	139	25.129136339737	1
0	144	25.544759129448	0
0	176	28.767808966418	1
0	178	30.710593247078	0
0	229	37.021667311064	1
0	230	37.986524736963	0
0	234	38.251676122522	1
0	236	38.484756180088	2
0	241	39.424473223631	1
0	247	39.719464237455	2
0	249	40.34389050286	3
0	250	40.977484974349	2
0	258	42.969848421664	1
0	264	44.444103595676	0
0	327	53.977752052356	1
0	328	53.983070267621	0
0	375	70.359997026693	1
0	376	70.389018827898	0
0	428	78.645548192372	1
0	429	78.880584136751	0
0	514	95.990545099206	1
0	517	98.094963390592	0
0	532	99.512155041335	1
0	533	100.218369637731	0
0	545	100.905690052981	1
0	546	101.311076241197	0
0	558	102.716496041816	1
0	559	103.294657089844	0
0	588	110.737518866053	1
0	593	111.268393738435	0
0	599	111.346823961901	1
0	600	112.290420137001	0
0	619	113.561683687714	1
0	622	114.095958418414	0
0	636	114.755894254089	1
0	637	115.460163040041	0
0	668	120.520096514296	1
0	670	120.894336706343	0
0	704	130.635807372288	1
0	708	132.265612875433	2
0	709	132.347549199013	1
0	714	133.09659995511	0
0	720	134.910992703072	1
0	721	135.883083879679	0
0	725	136.889025789725	1
0	734	139.400836312904	2
0	736	139.50890776408	3
0	737	140.348993245127	2
0	743	140.457785460464	3
0	744	140.497748573366	2
0	750	141.384635770772	3
0	753	142.69712003289	2
0	759	143.040146494651	3
0	760	143.523352652705	2
0	765	143.572455335032	1
0	769	144.170638105239	2
0	773	144.733002855056	3
0	774	145.525173932531	2
0	778	145.772290423671	3
0	780	146.121076861244	4
0	782	147.949500152538	5
0	785	148.519915348867	4
0	789	148.657181657053	5
0	792	150.185460879252	4
0	799	152.499629247137	3
0	806	153.931997746194	4
0	810	154.819034442205	5
0	811	155.056764183143	4
0	819	156.76515123256	3
0	824	156.808509909773	2
0	829	156.847033260325	1
0	834	156.903296187245	0
0	840	157.448256871815	1
0	841	157.586166956519	0
0	880	164.027499756963	1
0	882	164.661759538046	0
0	914	168.206919228779	1
0	915	168.26780762248	0
0	939	172.885920781653	1
0	940	174.066248455768	0
0	956	175.646290877456	1
0	957	175.650737220223	0
0	965	176.944118496992	1
0	967	178.092602952492	0
0	981	179.666755949244	1
0	983	180.590305991322	0
0	1011	185.967574865196	1
0	1012	186.233528393671	0
0	1018	186.510774317248	1
0	1019	186.905779492909	0
0	1026	187.885616870527	1
0	1028	187.890872474751	2
0	1029	188.195690212849	1
0	1036	189.155943551535	0
0	1057	191.190485734802	1
0	1062	192.423986473023	2
0	1063	192.859797907702	1
0	1070	193.118041419833	0
0	1078	193.700360324741	1
0	1079	195.232695830434	0
0	1090	195.729731341989	1
0	1092	195.860829628219	2
0	1093	196.116321583487	1
0	1099	198.731114304896	0
0	1112	203.053668175643	1
0	1114	206.525516872472	0
0	1154	219.768701699518	1
0	1156	219.950049744718	2
0	1157	220.087094305769	1
0	1162	220.147674323161	0
0	1211	237.506718530829	1
0	1213	238.016925955574	2
0	1214	238.594718534607	1
0	1221	239.564086280587	0
0	1236	245.732691742685	1
0	1238	246.60256160641	2
0	1239	246.979826887235	1
0	1245	247.099607841227	2
0	1247	248.862327615059	1
0	1253	249.176018101461	0
0	1260	250.059226699812	1
0	1261	250.584303584152	0
0	1274	251.947580531172	1
0	1276	252.364589051883	0
0	1303	257.446094648147	1
0	1304	257.902602837544	0
0	1355	267.960079757961	1
0	1358	268.717661074694	2
0	1359	268.921967286614	1
0	1364	269.887595786506	0
0	1377	270.430683870703	1
0	1378	270.529086138974	0
0	1384	271.003007626758	1
0	1386	271.128130594944	2
0	1389	273.107085910855	1
0	1396	275.615843544982	2
0	1399	275.699939043268	1
0	1405	276.202642425227	0
0	1419	277.303772760191	1
0	1420	277.62801697306	0
0	1439	280.740787032785	1
0	1442	280.973176808971	2
0	1443	281.062098882199	1
0	1449	281.796735051173	2
0	1451	283.12550627019	3
0	1453	283.266330422939	4
0	1454	284.172688762806	3
0	1460	284.569184563257	4
0	1462	284.601261252502	5
0	1463	284.822542037756	4
0	1467	285.173359704574	5
0	1470	287.641916356961	4
0	1477	289.332625259896	3
0	1483	290.305376993727	2
0	1489	290.513893900006	3
0	1490	292.296367748868	2
0	1494	292.550842789522	3
0	1496	292.636178698811	4
0	1501	294.944248223885	3
0	1506	295.509646179538	2
0	1513	296.638633274914	1
0	1521	298.053310362355	2
0	1522	298.083237185911	1
0	1527	299.440036079541	0
0	1531	299.592530908657	1
0	1535	300.850971298896	2
0	1536	301.218747986522	1
0	1540	302.111348649609	2
0	1543	302.480704337989	1
0	1547	303.860102567708	2
0	1549	304.415297412027	3
0	1551	305.37207434588	4
0	1553	306.848832925827	5
0	1555	308.387851628606	6
0	1557	308.908517160754	7
0	1561	310.211526133812	6
0	1567	310.663130589929	5
0	1572	311.633009830358	4
0	1576	312.390256290687	5
0	1580	314.508957378586	6
0	1585	317.828644122328	5
0	1591	318.969172658587	6
0	1595	319.979369090924	7
0	1597	320.142369024478	8
0	1599	320.754033608993	9
0	1600	321.677506813221	8
0	1604	323.730524324031	9
0	1606	323.761629790668	10
0	1609	324.95947909871	9
0	1613	326.436574213843	10
0	1617	327.132841761585	11
0	1618	327.307036393103	10
0	1625	328.38987435168	9
0	1634	330.603359499028	8
0	1641	331.478151539236	7
0	1646	331.860441380962	6
0	1652	331.968247139649	7
0	1656	332.362175469479	8
0	1657	332.785930613089	7
0	1662	333.547694476465	6
0	1667	333.967854881014	5
0	1673	334.569301673903	6
0	1677	335.536488130763	7
0	1679	337.974384472272	8
0	1683	338.629491364099	9
0	1684	338.703281542602	8
0	1688	339.669331426134	9
0	1690	340.006629119754	10
0	1692	340.155404028483	11
0	1697	342.077176178946	10
0	1701	342.598408261404	11
0	1707	344.11280887621	12
0	1710	346.206276861985	11
0	1715	347.201507256921	10
0	1719	347.233018566157	11
0	1723	349.166303061044	12
0	1727	349.729737916105	13
0	1728	350.682831899168	12
0	1733	351.180759635353	11
0	1739	352.132319075462	12
0	1741	352.362139862828	13
0	1742	352.483486382756	12
0	1746	352.794114407789	13
0	1750	353.547940799618	14
0	1751	353.585634557865	13
0	1756	353.780610490005	12
0	1761	354.552058246652	11
0	1766	356.987520672269	10
0	1772	357.984530994939	9
0	1777	358.737959704879	8
0	1784	359.518196669668	7
0	1788	359.936686662083	8
0	1791	360.25480861332	7
0	1797	360.814459256847	8
0	1799	363.208700373761	9
0	1803	364.034207389605	8
0	1808	364.095754970522	7
0	1812	365.509356393653	8
0	1819	367.522567699864	7
0	1824	368.492487395836	6
0	1831	371.814696357384	5
0	1837	372.741168579343	6
0	1839	373.022410882745	7
0	1841	373.167421234259	8
0	1844	373.678263102507	7
0	1848	373.823906036056	8
0	1852	374.133470204299	9
0	1854	374.197405517086	10
0	1856	374.709599050481	11
0	1857	374.838718942378	10
0	1861	375.49312532598	11
0	1868	377.749841286246	12
0	1869	377.796630245519	11
0	1874	377.836483129362	10
0	1878	380.139370672326	11
0	1881	380.458006520261	10
0	1885	382.750356610928	11
0	1887	383.353407320578	12
0	1894	385.456859311571	13
0	1896	385.680994752372	14
0	1897	385.700051951313	13
0	1902	385.747604656099	12
0	1906	385.811161462184	13
0	1909	386.143540795649	12
0	1914	386.829148905401	11
0	1921	389.135427852489	10
0	1926	389.826461238571	9
0	1932	391.202403230439	10
0	1934	391.203786413918	11
0	1935	393.33136609917	10
0	1943	394.22768643763	11
0	1945	394.507456714381	12
0	1947	394.909291701464	13
0	1949	395.251291298371	14
0	1953	398.472096096261	15
0	1955	398.630605045172	16
0	1957	398.674226278725	17
0	1962	399.384033086587	16
0	1966	399.729492038056	17
0	1971	401.898498017374	16
0	1978	402.540572836049	15
0	1986	403.334488448391	14
0	1991	403.485702264514	13
0	1999	404.059191494118	14
0	2004	406.582524257126	13
0	2010	407.614489061401	14
0	2011	407.617630047937	13
0	2019	409.121879913483	12
0	2026	409.344481858886	13
0	2027	409.458453781038	12
0	2032	410.254663430146	11
0	2036	411.754574821426	12
0	2038	412.777046314471	13
0	2043	416.175702449701	12
0	2049	416.567218003856	13
0	2050	416.711609524047	12
0	2055	418.612404781924	11
0	2060	419.419869623555	10
0	2066	419.890358551522	11
0	2067	420.968405917754	10
0	2071	421.599115918025	11
0	2073	421.88201952239	12
0	2076	423.578196011808	11
0	2083	424.795904537236	10
0	2088	424.875037150475	9
0	2094	426.992540660913	10
0	2098	429.20353166036	9
0	2103	429.232486922695	8
0	2108	429.944834785547	7
0	2113	430.19153698129	6
0	2119	431.123902403886	5
0	2125	432.186648765147	6
0	2130	434.7840981917	5
0	2136	435.07994693025	4
0	2141	436.682907771598	3
0	2151	437.358410215537	4
0	2152	437.738989333318	3
0	2157	438.210390229198	2
0	2164	438.527947567886	1
0	2169	440.200764245876	0
0	2173	441.187463956199	1
0	2179	441.52245017926	2
0	2182	442.75938784311	1
0	2186	443.220146212678	2
0	2189	443.321843234822	1
0	2196	444.086758518	0
0	2200	444.586069787286	1
0	2204	445.210473245886	2
0	2205	445.982232680979	1
0	2209	447.739709971047	2
0	2212	448.731263970457	1
0	2218	450.918102089364	2
0	2219	451.520421176195	1
0	2226	453.53348982889	0
0	2240	455.260543990694	1
0	2243	455.488979199482	0
0	2266	457.26613482751	1
0	2267	458.581292467746	0
0	2281	458.952313903657	1
0	2285	461.002949760632	0
0	2321	463.937924908363	1
0	2327	466.167849202866	2
0	2331	467.145902669628	1
0	2336	467.943893775572	0
0	2342	468.042637942284	1
0	2344	468.256024646096	2
0	2346	468.366209830569	1
0	2356	469.580975282288	0
0	2367	470.664894563503	1
0	2373	471.99398802709	2
0	2375	472.526898609151	3
0	2382	474.227481305307	2
0	2387	475.027549991857	1
0	2395	476.033103911288	0
0	2401	476.128332823102	1
0	2402	477.00204227613	0
0	2425	478.477047883432	1
0	2426	478.574118189698	0
0	2437	482.100672010201	1
0	2439	482.449204488475	0
0	2459	485.831459854845	1
0	2460	486.567479725989	0
0	2466	486.662918147923	1
0	2467	486.808749798924	0
0	2476	487.334608575424	1
0	2477	487.487838749896	0
0	2483	487.843666685112	1
0	2488	489.042872023049	0
0	2541	496.101050493032	1
0	2545	497.077656700834	0
0	2557	498.167188167388	1
0	2561	498.721518617221	0
0	2573	500.058539565008	1
0	2574	500.23140951146	0
0	2619	507.179646928474	1
0	2620	507.384830824539	0
0	2626	507.71686862771	1
0	2628	508.014519419568	2
0	2630	508.1773998941	1
0	2635	508.485176368988	0
0	2651	510.576051936399	1
0	2653	510.846433348256	0
0	2676	513.942740200556	1
0	2683	516.452525003187	2
0	2686	517.029096211018	1
0	2695	517.677939511513	2
0	2698	518.416380208363	3
0	2699	519.241996939152	2
0	2704	519.528387133682	1
0	2711	519.848222381198	2
0	2712	521.533870104367	1
0	2718	521.883941395447	2
0	2720	522.935250582509	3
0	2721	523.416972636086	2
0	2727	523.93367118342	1
0	2733	524.391422606304	0
0	2747	526.431668589758	1
0	2749	526.468127923735	2
0	2750	526.922504167769	1
0	2756	527.013739419756	2
0	2758	527.740335405343	1
0	2763	527.826157563098	0
0	2785	528.751272051497	1
0	2786	529.19579234074	0
0	2792	529.200434592924	1
0	2794	529.840973336464	0
0	2824	535.470124956604	1
0	2825	535.745826801716	0
0	2834	536.16834311012	1
0	2843	538.198712279951	2
0	2844	538.240265074379	1
0	2851	538.655059979425	2
0	2853	538.760388132807	3
0	2855	539.197700270453	4
0	2856	539.52266618143	3
0	2862	540.741534187323	2
0	2867	541.380217695771	1
0	2871	541.884703654748	2
0	2877	544.503483490507	1
0	2882	545.613610673334	0
0	2895	547.017211934785	1
0	2897	547.407528101702	2
0	2899	547.519656876542	3
0	2901	547.771344433861	4
0	2905	550.056321070255	5
0	2906	550.069583517228	4
0	2911	550.866763115123	3
0	2918	551.13754799328	2
0	2923	552.501846723089	1
0	2928	552.604568017172	0
0	2958	556.930552813887	1
0	2959	557.51989032555	0
0	2984	560.246927033341	1
0	2985	560.381316640599	0
0	2991	560.799851505913	1
0	2992	561.0440838251	0
0	3043	568.790042063838	1
0	3044	570.643727543305	0
0	3051	571.158545505789	1
0	3054	571.37423704295	2
0	3056	572.510579943564	3
0	3057	573.92040431878	2
0	3063	574.51659201749	1
0	3068	575.14608761631	0
0	3096	577.470856536045	1
0	3099	578.158558151575	0
0	3115	580.064621514012	1
0	3116	580.4467999763	0
0	3130	583.0335015007	1
0	3136	584.748515892607	0
0	3158	587.900086969543	1
0	3160	588.109261338503	0
0	3174	591.425014878814	1
0	3176	592.796689304709	0
0	3224	596.088479677073	1
0	3228	596.36410344605	2
0	3229	596.854270899674	1
0	3236	597.318885757853	0
0	3258	599.333434346255	1
0	3260	599.996845652039	0
0	3311	608.923744776311	1
0	3313	609.210376063971	0
0	3374	621.00036132514	1
0	3377	622.661161309712	0
0	3384	623.183821024533	1
0	3386	623.727769935487	2
0	3387	623.979629638075	1
0	3392	624.556345033709	0
0	3406	625.416067546679	1
0	3414	627.049504487219	0
0	3428	629.686148459323	1
0	3430	629.938311651135	0
0	3459	631.811200547979	1
0	3460	631.827225161596	0
0	3466	631.847181850889	1
0	3468	631.851485787175	2
0	3470	632.79698455462	1
0	3475	633.397249300753	0
0	3488	634.256874422202	1
0	3490	634.439128495661	0
0	3540	644.930298873297	1
0	3543	645.408639556101	0
0	3552	649.026726166736	1
0	3553	649.691817186373	0
0	3570	652.168203604123	1
0	3572	653.625512775172	0
0	3579	654.627446858836	1
0	3580	654.9575499301	0
0	3594	656.845573329774	1
0	3597	656.971718875276	2
0	3600	658.273294646209	1
0	3605	658.442045631387	0
0	3626	660.881629722462	1
0	3628	661.014838745644	2
0	3631	662.519823361093	1
0	3635	662.959721125533	2
0	3641	664.151149210326	3
0	3642	664.389012910474	2
0	3646	664.43934743576	3
0	3651	664.754514317941	4
0	3654	665.280783690797	3
0	3659	665.587688989282	2
0	3664	665.963605361852	1
0	3670	666.580671092476	2
0	3673	667.164979389111	1
0	3677	668.496024441027	2
0	3680	669.285331105132	1
0	3689	670.95427317623	2
0	3690	671.201066475562	1
0	3695	671.553113917068	0
0	3701	671.55755979972	1
0	3702	673.174883216437	0
0	3726	675.497335957371	1
0	3727	675.664408892948	0
0	3733	676.100121994644	1
0	3735	676.143986167217	2
0	3736	676.437428282785	1
0	3740	679.352257358794	2
0	3743	680.317720505583	1
0	3748	682.140620023721	0
0	3773	685.804816793441	1
0	3776	686.053392832235	0
0	3780	686.354484555105	1
0	3783	686.52617959316	0
0	3789	688.037629502849	1
0	3794	688.822986412426	2
0	3797	689.724425656109	1
0	3803	690.292346949219	0
0	3860	699.646117783711	1
0	3862	699.659769729981	2
0	3865	699.866184478878	1
0	3871	700.010034098473	0
0	3890	703.556780959301	1
0	3895	704.563735080587	0
0	3923	713.165014614657	1
0	3925	713.224901731056	2
0	3926	713.417074114972	1
0	3931	713.826186626076	0
0	3955	716.082169546193	1
0	3956	716.295050730852	0
0	3965	717.197446323931	1
0	3966	718.139651041368	0
0	3986	719.586597561826	1
0	3990	720.58436204646	2
0	3992	721.727555039447	1
0	3998	722.096891816601	0
0	4082	738.753275586373	1
0	4088	740.34399026967	0
0	4094	740.35691263309	1
0	4096	740.527143322064	2
0	4097	740.953513481121	1
0	4108	744.027387516873	0
0	4114	746.026205706591	1
0	4117	747.153702846088	0
0	4121	748.228507716769	1
0	4126	749.751621097319	0
0	4142	752.581119579545	1
0	4146	753.799726395582	2
0	4149	754.961831330622	1
0	4155	755.380251578342	0
0	4175	756.398039450629	1
0	4176	757.754817063154	0
0	4182	757.865713350874	1
0	4184	758.464108697211	2
0	4185	758.601080412642	1
0	4190	758.673233758327	0
0	4196	759.296173977193	1
0	4199	759.582578328128	0
0	4205	759.730813495368	1
0	4207	760.168711252021	0
0	4239	769.001864174768	1
0	4240	769.46629088226	0
0	4257	771.055771901073	1
0	4258	771.171693129859	0
0	4272	774.494352984973	1
0	4274	776.516717495208	0
0	4285	777.634052831573	1
0	4288	779.188349263587	0
0	4302	779.995214153422	1
0	4303	780.095418760645	0
0	4311	780.726211857625	1
0	4313	780.913658267142	2
0	4314	781.439804881871	1
0	4320	783.072631068338	0
0	4341	786.331422115819	1
0	4343	787.196937268534	0
0	4373	792.142197268325	1
0	4374	792.894824464663	0
0	4397	796.573811260829	1
0	4398	796.843999657419	0
0	4452	805.842948075833	1
0	4453	806.416835145721	0
0	4459	807.068193968805	1
0	4461	807.153851935187	2
0	4463	808.640830911068	3
0	4464	809.950875448348	2
0	4468	810.331159105982	3
0	4477	813.454828659173	2
0	4483	813.885228100795	3
0	4484	814.035871685436	2
0	4489	815.214761457371	1
0	4494	815.407941262902	0
0	4554	833.130215416336	1
0	4556	833.155071791452	2
0	4557	833.544740050696	1
0	4563	834.327754200436	0
0	4569	834.580054339536	1
0	4570	835.125889174112	0
0	4574	836.893943216257	1
0	4576	837.031198825161	2
0	4582	837.827817776247	1
0	4587	838.039512332403	0
0	4591	840.223824784769	1
0	4594	842.550398818081	0
0	4675	853.576333896683	1
0	4677	855.146704855099	0
0	4688	856.160896183404	1
0	4690	857.369980583933	2
0	4692	857.636648170895	3
0	4699	858.299443432355	4
0	4700	859.025793355242	3
0	4707	862.014263563462	2
0	4714	863.32669599861	3
0	4720	864.782109944887	2
0	4728	865.459239677875	3
0	4732	866.905711775449	4
0	4733	867.079481979233	3
0	4738	868.106134057629	2
0	4743	869.097243975316	1
0	4748	869.955654888967	0
0	4752	870.179244529903	1
0	4757	873.804456780557	0
0	4764	875.302778785544	1
0	4765	875.350807158602	0
0	4811	882.231072583767	1
0	4817	883.432695662066	2
0	4818	884.494745274021	1
0	4826	885.199418242367	0
0	4859	889.028282135629	1
0	4862	889.217237271251	0
0	4899	893.629934125974	1
0	4901	893.848687391918	0
0	4915	895.42257871451	1
0	4918	896.088091401301	2
0	4919	896.6371523356	1
0	4924	897.455215128976	0
0	4991	910.8769306689	1
0	4992	911.814874309031	0
0	5039	921.236658545013	1
0	5041	921.752249741344	2
0	5043	922.259011433188	3
0	5044	922.700431408791	2
0	5050	922.971819094885	3
0	5052	923.838217859166	4
0	5055	924.487170976039	3
0	5061	924.92386548011	2
0	5066	924.978691710023	1
0	5070	925.57156490074	2
0	5073	926.572437281399	1
0	5080	927.232530668676	2
0	5082	927.477708669142	1
0	5092	927.779674077245	0
0	5105	928.422490900368	1
0	5107	929.106494600075	0
0	5113	929.638674203964	1
0	5117	930.858812342575	0
0	5132	932.018312068689	1
0	5135	932.530674461775	2
0	5136	933.580348172791	1
0	5141	933.588447556685	0
0	5157	934.791570124487	1
0	5160	936.602517809107	0
0	5199	943.153329600779	1
0	5201	943.425254816515	0
0	5208	944.670701143766	1
0	5209	944.701949407429	0
0	5306	965.851657601873	1
0	5308	967.957628644256	0
0	5312	968.811871540548	1
0	5315	969.432194209085	0
0	5321	971.182214567216	1
0	5325	971.412216660966	2
0	5329	972.06170889243	3
0	5330	972.681459628526	2
0	5334	973.555288970913	3
0	5337	976.317131333192	2
0	5341	976.361446648953	3
0	5343	976.504766904772	4
0	5347	978.210368648541	5
0	5349	978.950627195418	6
0	5350	979.309171478249	5
0	5354	979.45630434313	6
0	5356	979.781633025237	7
0	5358	979.978730247345	8
0	5361	981.95246526913	7
0	5373	982.709215527622	6
0	5378	983.475460495245	5
0	5383	984.401754595223	4
0	5389	985.940932792749	5
0	5390	986.297377817378	4
0	5397	987.261057960921	5
0	5403	988.911589302443	4
0	5408	988.95486867935	3
0	5413	989.125920209582	2
0	5419	991.357050363099	1
0	5424	991.468969566736	0
0	5430	992.520828323906	1
0	5436	993.765581028395	2
0	5442	997.099682225055	1
0	5447	997.542236906972	0
0	5453	998.709846008396	1
0	5455	1000.272779931903	2
0	5459	1001.012815198092	3
0	5464	1002.332101617646	2
0	5469	1004.64992660142	1
0	5474	1005.38666652818	0
0	5478	1005.912830225984	1
0	5480	1007.24898066712	2
0	5483	1007.524507624541	1
0	5490	1008.260558761356	2
0	5492	1008.350034904491	1
0	5497	1009.230233380592	0
0	5515	1012.077773529273	1
0	5517	1012.175823378534	0
0	5523	1012.614334694179	1
0	5524	1012.684526810183	0
0	5528	1012.840410785088	1
0	5532	1014.226029417276	2
0	5534	1017.132883840956	3
0	5537	1020.480770571707	2
0	5542	1021.404817736425	1
0	5547	1021.527580614273	0
0	5551	1021.77878280775	1
0	5555	1022.633425333431	0
0	5568	1023.945808214755	1
0	5572	1024.423405395334	0
0	5592	1026.80790567834	1
0	5601	1029.956584928138	0
0	5607	1029.971146814126	1
0	5608	1030.252766835102	0
0	5619	1030.464224077493	1
0	5621	1030.881787951821	0
0	5627	1032.632639644347	1
0	5631	1033.96455891358	2
0	5633	1034.06023655528	3
0	5634	1035.138022922024	2
0	5640	1035.311506165229	3
0	5643	1037.053063031649	2
0	5649	1037.394867369114	1
0	5654	1038.083735463781	0
0	5669	1040.026024175469	1
0	5671	1040.140601907286	2
0	5673	1040.863993791167	1
0	5680	1040.937680183109	2
0	5684	1041.566345509791	3
0	5685	1041.855355545961	2
0	5691	1042.137339140294	3
0	5697	1042.544310714855	4
0	5701	1044.680659244291	3
0	5706	1046.142670223243	2
0	5712	1047.341687963297	1
0	5717	1048.928883100892	0
0	5733	1049.9186036266	1
0	5742	1051.778935724683	2
0	5744	1051.876743355049	3
0	5749	1053.110147720575	2
0	5754	1053.182395395957	1
0	5759	1053.400102846208	0
0	5783	1056.236290423363	1
0	5786	1056.481530905266	0
0	5798	1057.213150185395	1
0	5805	1058.968973870528	2
0	5807	1059.049271309678	3
0	5808	1059.819721937099	2
0	5814	1060.0550621816	3
0	5816	1060.550661827466	2
0	5822	1061.239047278466	3
0	5823	1061.579598395692	2
0	5830	1062.104129260384	1
0	5834	1063.483821582572	2
0	5839	1064.350411492673	1
0	5846	1065.966626096569	0
0	5850	1066.721325780659	1
0	5852	1067.463910238337	2
0	5855	1068.646288527474	1
0	5859	1069.634154677547	2
0	5863	1073.183663080252	3
0	5864	1074.674218464266	2
0	5872	1075.463061767074	3
0	5873	1075.810383950003	2
0	5877	1076.331745105723	3
0	5879	1078.197405624643	4
0	5882	1080.302651986836	3
0	5888	1080.423396244284	4
0	5889	1080.912240735002	3
0	5894	1081.430843181084	2
0	5900	1081.813843430715	3
0	5904	1081.905244225585	4
0	5905	1081.914605584844	3
0	5912	1083.601464659448	4
0	5913	1084.307718936061	3
0	5918	1084.444113075088	2
0	5924	1085.891426895661	3
0	5926	1086.219272042086	4
0	5931	1090.10029638788	3
0	5935	1090.10474523814	4
0	5940	1092.232543582271	3
0	5944	1092.407640724833	4
0	5946	1093.560960795701	5
0	5949	1094.143533944243	4
0	5954	1094.520187544203	3
0	5961	1094.790577800364	2
0	5965	1095.231717005326	3
0	5968	1097.364729408224	2
0	5972	1097.620153774218	3
0	5974	1099.432300413749	4
0	5977	1100.871400385717	3
0	5981	1101.72829628367	4
0	5984	1102.497846447433	3
0	5988	1102.503294166652	4
0	5992	1103.95185021933	5
0	5994	1104.075503580718	6
0	5995	1104.313623473645	5
0	6000	1105.258937950061	4
0	6005	1106.520769944367	3
0	6009	1106.742003458037	4
0	6011	1106.934170898365	5
0	6016	1107.367662821021	4
0	6020	1107.475372533342	5
0	6023	1108.072676319707	4
0	6031	1110.014180968208	5
0	6032	1110.805963808258	4
0	6038	1111.260450737184	5
0	6040	1111.818294596129	6
0	6041	1111.845141287045	5
0	6047	1112.045450347133	6
0	6048	1112.977587808263	5
0	6053	1113.137047987516	4
0	6057	1113.77222189227	5
0	6060	1114.238368509684	4
0	6066	1114.874859768013	5
0	6067	1115.10572540408	4
0	6076	1115.485102001104	3
0	6080	1117.241831563849	4
0	6082	1118.091807353365	5
0	6086	1119.153894842085	4
0	6091	1120.491953013365	3
0	6096	1122.25242207399	2
0	6101	1123.128222187517	1
0	6105	1123.469136065434	2
0	6108	1125.566775414469	1
0	6113	1126.187155653155	0
0	6119	1127.02559760999	1
0	6121	1127.183077970066	0
0	6144	1130.156754339595	1
0	6151	1132.959984843799	2
0	6152	1132.965968664849	1
0	6157	1133.345001973768	0
0	6179	1135.540901637729	1
0	6181	1135.978823920968	2
0	6183	1136.639741352968	1
0	6188	1136.652385422617	0
0	6194	1137.361961258608	1
0	6195	1137.48167596411	0
0	6202	1138.222479894604	1
0	6209	1139.392942234634	0
0	6215	1139.455170513493	1
0	6216	1139.931926514606	0
0	6252	1146.32730476589	1
0	6255	1147.358236834825	2
0	6256	1147.518118985677	1
0	6265	1148.621463246742	0
0	6282	1149.201539700751	1
0	6285	1150.030879098352	2
0	6286	1150.355707141442	1
0	6293	1151.26052329663	2
0	6294	1151.705954506404	1
0	6301	1152.559161131426	0
0	6316	1156.70548421113	1
0	6318	1156.737012561191	2
0	6320	1156.73717987377	3
0	6321	1156.93474586482	2
0	6327	1156.981781530322	3
0	6331	1157.985425176588	2
0	6337	1158.264762095992	1
0	6342	1158.427090710334	0
0	6359	1160.447699357715	1
0	6363	1160.872118453286	2
0	6364	1161.290725225177	1
0	6369	1161.644288929625	0
0	6376	1161.911440535007	1
0	6378	1162.401533579832	0
0	6394	1163.591582953741	1
0	6397	1165.285802167403	0
0	6422	1169.438949356838	1
0	6423	1169.910406020572	0
0	6446	1172.852929859713	1
0	6447	1173.882522749911	0
0	6453	1174.39915923937	1
0	6454	1174.468831759485	0
0	6466	1175.209165399886	1
0	6468	1175.251336962656	2
0	6469	1175.276130683312	1
0	6476	1175.747614088568	0
0	6519	1182.04175607063	1
0	6521	1182.715854427992	2
0	6523	1182.874131065033	3
0	6525	1184.143336548353	4
0	6527	1185.854056473565	5
0	6533	1188.033882268174	6
0	6535	1188.404084121239	7
0	6537	1188.413001982398	8
0	6538	1188.526774369399	7
0	6543	1188.564439513792	6
0	6550	1189.221464746293	7
0	6554	1191.035333996469	6
0	6564	1193.91469438796	5
0	6569	1193.970986176498	4
0	6581	1195.622864611964	5
0	6584	1196.060896886319	4
0	6590	1196.549373334216	3
0	6595	1196.765411743555	2
0	6601	1197.316544052021	3
0	6603	1197.524941885312	2
0	6609	1198.210321168448	3
0	6613	1201.109392641276	4
0	6615	1201.289434471413	3
0	6621	1201.653996180204	4
0	6626	1202.198484169289	5
0	6629	1202.730921228536	6
0	6630	1203.313071952839	5
0	6635	1203.315125260151	4
0	6640	1204.904681459969	3
0	6646	1205.539276142527	2
0	6652	1206.072202095967	3
0	6654	1207.567947566018	2
0	6660	1207.937331331421	1
0	6668	1208.669040862439	2
0	6671	1209.329347884848	1
0	6676	1209.417688091069	0
0	6743	1221.056065242124	1
0	6745	1221.884102842855	2
0	6746	1224.482038021771	1
0	6751	1224.709047436691	0
0	6777	1227.722778332263	1
0	6780	1228.364848020441	2
0	6782	1228.808989390698	1
0	6788	1229.958122828326	0
0	6795	1230.02332967065	1
0	6796	1230.31665821603	0
0	6818	1232.215843141081	1
0	6819	1232.327573360378	0
0	6828	1232.59775844573	1
0	6830	1234.571311111398	2
0	6832	1235.371663150094	3
0	6844	1239.063157353028	2
0	6849	1239.266855111078	1
0	6854	1239.85345569328	0
0	6860	1240.46134124237	1
0	6862	1241.206528144291	2
0	6867	1243.025984630477	1
0	6875	1243.896577018179	0
0	6886	1244.776660124474	1
0	6889	1245.396005309224	2
0	6894	1246.13507119471	3
0	6895	1246.244683737576	2
0	6901	1247.503785397301	1
0	6907	1247.978773997129	0
0	6923	1249.875895890819	1
0	6924	1249.929876293069	0
0	6949	1252.816575625088	1
0	6950	1253.080045727435	0
0	6961	1253.48713020484	1
0	6962	1253.97333731523	0
0	6980	1256.089121511319	1
0	6986	1257.030998374177	2
0	6989	1257.514427970714	1
0	6994	1257.580951074322	0
0	7001	1257.658866089602	1
0	7002	1257.865126090558	0
0	7025	1259.894129818726	1
0	7026	1260.240358909138	0
0	7040	1261.985022444677	1
0	7041	1262.05971928705	0
0	7054	1262.595295809425	1
0	7055	1262.650997154874	0
0	7077	1264.271294375937	1
0	7083	1265.368315069107	2
0	7084	1265.673697626943	1
0	7090	1266.275714826608	2
0	7091	1266.812850443881	1
0	7096	1267.448402186466	0
0	7117	1269.651720218266	1
0	7120	1270.082607213881	2
0	7123	1270.862705840067	1
0	7128	1272.205332316626	0
0	7142	1273.959614071491	1
0	7143	1274.062306629565	0
0	7150	1274.705290524799	1
0	7151	1275.208308488976	0
0	7210	1288.246552184844	1
0	7212	1289.538763151261	2
0	7213	1291.046430155569	1
0	7218	1291.682051829604	0
0	7240	1294.82570322172	1
0	7243	1295.846108436477	0
0	7279	1303.701330208898	1
0	7280	1304.031788391502	0
0	7301	1309.664220782368	1
0	7303	1309.92349864977	0
0	7352	1320.391106168317	1
0	7354	1320.654680354632	2
0	7355	1320.811337084799	1
0	7362	1321.301864905879	0
0	7398	1327.422444485873	1
0	7400	1327.690719381088	2
0	7401	1327.797610875033	1
0	7406	1328.045942686855	0
0	7415	1329.43464813073	1
0	7417	1329.64366411709	0
0	7435	1331.412242670936	1
0	7436	1332.650326240507	0
0	7442	1332.664564556815	1
0	7443	1332.910450372718	0
0	7482	1344.660458899948	1
0	7486	1345.218980794729	2
0	7490	1345.571571134649	1
0	7496	1345.935367162221	0
0	7507	1346.759989646047	1
0	7512	1349.200469633104	0
0	7525	1356.671077527438	1
0	7526	1357.191196025993	0
0	7565	1364.948895408693	1
0	7572	1366.46870041838	0
0	7576	1366.477283343084	1
0	7581	1367.267573269158	2
0	7583	1367.472859927141	3
0	7584	1367.487026570742	2
0	7590	1368.064366546883	1
0	7595	1368.103979507662	0
0	7601	1369.57811739248	1
0	7604	1369.730937430769	0
0	7651	1375.513705788448	1
0	7653	1375.787558548248	0
0	7663	1376.966065192879	1
0	7664	1377.097178370785	0
0	7677	1377.549522104647	1
0	7680	1379.093373865209	2
0	7681	1379.551025588475	1
0	7686	1379.679553680877	0
0	7697	1381.958902335871	1
0	7702	1384.819052986454	0
0	7706	1385.894279646201	1
0	7709	1387.289144724973	0
0	7723	1391.263839024613	1
0	7728	1391.826260240673	2
0	7729	1392.186044447603	1
0	7735	1392.214476506708	2
0	7740	1393.219430148572	1
0	7748	1394.747170558585	0
0	7777	1397.989609177152	1
0	7783	1401.590615809215	2
0	7788	1403.912059897396	1
0	7796	1405.179421413792	0
0	7802	1406.388367371331	1
0	7803	1407.194661900494	0
0	7840	1410.420718570288	1
0	7842	1411.494254015055	0
0	7848	1412.019481771669	1
0	7850	1412.689524728926	0
0	7913	1421.349960712969	1
0	7916	1421.986136384088	2
0	7918	1422.289135854153	3
0	7920	1422.998766464196	2
0	7925	1423.365104972516	1
0	7934	1424.542629103908	0
0	7940	1424.561161015125	1
0	7941	1424.657026472385	0
0	7970	1428.944272784245	1
0	7971	1429.025948807951	0
0	8012	1433.918778704984	1
0	8014	1434.212138669276	0
0	8023	1434.731901332594	1
0	8025	1436.03098031124	2
0	8026	1436.104539322691	1
0	8032	1436.282115881993	2
0	8034	1437.091383891491	1
0	8040	1437.58878389954	2
0	8042	1438.002413515081	3
0	8043	1438.132058967822	2
0	8053	1442.578070186017	1
0	8061	1442.819245835472	0
0	8091	1447.900503435919	1
0	8093	1448.430584866697	0
0	8164	1458.577400748598	1
0	8167	1460.056971022856	0
0	8173	1460.373690407516	1
0	8175	1461.029605953139	0
0	8182	1461.206186058002	1
0	8183	1461.351320665293	0
0	8196	1462.527681328065	1
0	8197	1462.659738723104	0
0	8296	1484.733907340543	1
0	8298	1484.788906453937	2
0	8299	1484.798543542343	1
0	8304	1485.011593241268	0
0	8342	1492.525783565356	1
0	8343	1493.159181472617	0
0	8349	1493.449659365342	1
0	8350	1493.807692396635	0
0	8364	1496.287367397851	1
0	8365	1496.752497986809	0
0	8371	1496.861031468094	1
0	8373	1499.26637343426	2
0	8375	1499.326848112748	3
0	8382	1501.475074789219	4
0	8383	1502.208026305617	3
0	8388	1502.631252528319	2
0	8392	1502.849896681578	3
0	8396	1504.169892231586	2
0	8402	1504.417911041524	1
0	8408	1504.863698437667	2
0	8409	1505.821861011114	1
0	8415	1507.559961587232	0
0	8445	1510.090556994873	1
0	8447	1511.155099689017	2
0	8449	1512.125189793431	3
0	8452	1513.259849977914	2
0	8459	1514.608531575454	1
0	8471	1516.297823229902	0
0	8488	1517.557713920363	1
0	8489	1517.568861097672	0
0	8497	1519.360746887795	1
0	8499	1519.620474787394	2
0	8500	1519.800239642622	1
0	8511	1522.198955744886	0
0	8617	1539.491913726732	1
0	8619	1540.115491913441	2
0	8624	1541.571033189183	3
0	8627	1541.704993607623	2
0	8633	1542.829236340811	1
0	8639	1543.503599403555	2
0	8642	1543.978109939371	3
0	8644	1543.98867519169	4
0	8645	1544.62440571852	3
0	8651	1545.237492607146	4
0	8652	1545.253207680735	3
0	8658	1546.608177698856	4
0	8662	1546.763316302339	5
0	8665	1547.12454611206	4
0	8674	1549.290211165555	3
0	8679	1549.698536982358	2
0	8684	1550.170031345584	1
0	8690	1551.975662730431	2
0	8692	1553.515866078167	3
0	8694	1553.849995800954	4
0	8695	1554.027403827716	3
0	8701	1556.192495059829	4
0	8702	1556.763661835845	3
0	8708	1557.429623212161	2
0	8713	1557.753363119837	1
0	8718	1558.36750505151	0
0	8722	1560.743401990756	1
0	8724	1560.990398834076	2
0	8726	1561.785176176298	3
0	8729	1563.012148776046	2
0	8734	1564.258367370666	1
0	8739	1565.154751505499	0
0	8743	1565.749109539803	1
0	8745	1566.211053678771	2
0	8751	1568.708912208254	1
0	8757	1568.941701642759	0
0	8781	1570.482431268464	1
0	8783	1571.087746571337	0
0	8790	1571.824785963818	1
0	8791	1572.039811175977	0
0	8804	1572.709482321897	1
0	8806	1573.030699231306	2
0	8808	1573.668164627294	3
0	8810	1573.907622562579	2
0	8818	1575.615476846017	3
0	8819	1576.158288428646	2
0	8824	1576.212227225711	1
0	8828	1577.551085428908	2
0	8830	1577.804133530226	3
0	8833	1578.718060899763	2
0	8837	1578.813435873542	3
0	8839	1579.658067486461	4
0	8841	1579.900908156146	5
0	8845	1581.389667394315	6
0	8847	1581.556772023857	7
0	8852	1583.233096345746	6
0	8859	1584.346594211691	7
0	8860	1584.805436154199	6
0	8865	1584.93607097629	5
0	8870	1585.867187750431	4
0	8877	1587.983873450427	3
0	8885	1588.945448697388	2
0	8891	1589.647543744605	1
0	8897	1589.733101321982	0
0	8923	1592.581906388012	1
0	8925	1592.724080172146	2
0	8935	1594.618458704078	3
0	8936	1595.575129431603	2
0	8942	1595.62426990721	3
0	8945	1595.867280361988	4
0	8947	1596.71140184653	3
0	8952	1596.843283658365	2
0	8957	1597.025186938442	1
0	8964	1597.393474768325	2
0	8966	1598.029979458587	1
0	8972	1598.269602812715	2
0	8973	1598.918171884219	1
0	8978	1599.058022203469	0
0	8985	1601.640418558566	1
0	8987	1602.152404144667	2
0	8990	1603.698755536718	1
0	8995	1603.739475147287	0
0	8999	1604.044399333255	1
0	9001	1605.074816676873	2
0	9005	1605.655195550696	3
0	9012	1607.8485997743	2
0	9019	1609.307366671843	1
0	9025	1609.573683067667	2
0	9026	1610.437878721676	1
0	9032	1611.490362529804	0
0	9039	1612.418494229482	1
0	9041	1614.429045017949	2
0	9042	1614.810016377881	1
0	9047	1616.287994368059	0
0	9078	1620.073862316221	1
0	9081	1620.505132968931	2
0	9082	1620.588978241257	1
0	9087	1620.728108261618	0
0	9091	1622.00155164436	1
0	9093	1623.073228627684	2
0	9095	1625.493463646284	3
0	9099	1626.112748036612	4
0	9103	1626.54617434636	5
0	9104	1627.050696325761	4
0	9109	1628.048067368598	3
0	9114	1628.31554660998	2
0	9118	1628.420984518485	3
0	9120	1628.437570938022	4
0	9122	1629.368801153298	5
0	9126	1629.826828603846	6
0	9127	1629.949351918155	5
0	9131	1630.478290635552	6
0	9135	1632.005330215215	7
0	9138	1632.138127285136	8
0	9139	1632.259921816272	7
0	9145	1632.670874875353	6
0	9150	1633.157574884037	5
0	9154	1635.169183667668	6
0	9156	1635.707687107592	7
0	9160	1635.975061001129	8
0	9162	1636.026844764702	9
0	9166	1636.334781579718	10
0	9173	1637.631595940299	9
0	9181	1639.460150667357	10
0	9182	1639.886158646601	9
0	9188	1640.648032155257	8
0	9194	1641.174032080602	7
0	9199	1641.74306080684	6
0	9206	1642.865558152705	5
0	9215	1644.364931461143	4
0	9223	1644.857854090251	5
0	9224	1645.679501378826	4
0	9233	1646.57906603842	5
0	9236	1648.178431443196	6
0	9238	1648.428343027989	7
0	9239	1649.227742612891	6
0	9245	1650.562711666145	5
0	9251	1651.765397308089	4
0	9261	1653.12845525203	3
0	9267	1653.133133320594	4
0	9268	1654.187657941307	3
0	9277	1655.139896683698	2
0	9283	1655.638222220288	3
0	9284	1656.163014246827	2
0	9289	1656.323332833065	1
0	9293	1656.324424114646	2
0	9295	1657.990723725853	3
0	9297	1659.143085588287	4
0	9300	1659.522083057393	3
0	9305	1660.514146515178	2
0	9311	1661.122193674937	1
0	9319	1662.375302430993	2
0	9321	1663.134165603922	3
0	9323	1664.236398963188	4
0	9324	1664.616549442058	3
0	9328	1665.055827938754	4
0	9330	1665.887271900565	5
0	9333	1666.537662278883	4
0	9338	1667.501885791016	3
0	9343	1668.222898840075	2
0	9348	1669.262724892358	1
0	9352	1669.328715480026	2
0	9355	1671.402830557167	1
0	9361	1674.260934796628	2
0	9362	1674.8733608284	1
0	9366	1675.201896343006	2
0	9369	1675.361667674893	1
0	9373	1675.592567762017	2
0	9379	1677.78149925436	1
0	9385	1678.362553803816	2
0	9389	1680.009314201427	3
0	9390	1681.106670590572	2
0	9394	1681.640715303235	3
0	9398	1683.91437137295	4
0	9401	1684.495481603027	3
0	9405	1685.673241273841	4
0	9411	1688.564559774742	3
0	9416	1689.517333210933	2
0	9422	1690.579372744772	3
0	9424	1692.363738712545	4
0	9429	1696.859048394213	3
0	9434	1697.76472103029	2
0	9439	1698.866949638217	1
0	9447	1701.263054614305	2
0	9448	1701.530137129692	1
0	9454	1703.934778840272	2
0	9456	1707.470370256657	3
0	9458	1710.572343636862	4
0	9461	1711.69731442243	3
0	9467	1713.079780864393	2
0	9472	1714.833786350569	1
0	9477	1717.354782952262	0
0	9504	1723.048460330746	1
0	9506	1723.070338536719	0
0	9525	1725.19105945181	1
0	9526	1725.571100792255	0
0	9532	1725.900628578133	1
0	9535	1726.993153912081	2
0	9536	1727.340398957772	1
0	9542	1727.793445343834	0
0	9559	1729.207075025965	1
0	9561	1729.931863635688	0
0	9575	1730.661240133282	1
0	9576	1732.024521882362	0
0	9594	1733.693066334092	1
0	9595	1734.936379484116	0
0	9609	1735.496709982076	1
0	9611	1736.445362866561	2
0	9612	1737.433706899239	1
0	9621	1737.744361633628	0
0	9644	1739.215564130975	1
0	9646	1739.661454521269	2
0	9652	1742.205368280625	3
0	9654	1742.290522402456	4
0	9655	1743.050099882084	3
0	9660	1743.989922605541	2
0	9665	1743.992583914525	1
0	9671	1744.25164962606	0
0	9682	1744.798176336926	1
0	9684	1745.537953892182	2
0	9686	1745.596868380399	3
0	9690	1746.680548855018	2
0	9700	1747.627069031108	1
0	9706	1747.730085603281	2
0	9708	1747.948774217898	3
0	9712	1748.133859080056	4
0	9718	1749.158596608094	3
0	9724	1749.376167170818	4
0	9728	1750.141445242893	3
0	9735	1750.497503389435	2
0	9740	1750.615771507311	1
0	9751	1751.471328839324	2
0	9753	1752.191428405839	3
0	9756	1753.025094393866	4
0	9757	1753.788940478382	3
0	9762	1755.000419100244	2
0	9769	1756.110651982466	1
0	9774	1756.348804670749	0
0	9780	1756.457987261528	1
0	9782	1756.748151813801	2
0	9786	1757.014646585719	3
0	9788	1757.020509961287	4
0	9789	1757.66288022902	3
0	9794	1760.599172922522	2
0	9798	1762.0688721468	3
0	9803	1764.269784363883	2
0	9808	1765.838142130973	1
0	9813	1766.442221551799	0
0	9817	1767.441150346461	1
0	9821	1768.463507778045	2
0	9826	1769.027434857164	3
0	9828	1770.830583272835	2
0	9834	1771.367927687454	1
0	9839	1771.496865954503	0
0	9855	1772.236205666347	1
0	9856	1772.243605437636	0
0	9862	1775.212234346757	1
0	9864	1775.442695770532	2
0	9865	1775.741773091121	1
0	9874	1777.197730232241	2
0	9875	1777.36203976491	1
0	9885	1779.84742155405	0
0	9903	1781.201504604313	1
0	9906	1781.423622857023	0
0	9953	1785.199108404965	1
0	9955	1785.714373719914	2
0	9958	1786.10104765897	1
0	9964	1786.568690618369	0
0	9975	1787.309267309354	1
0	9976	1787.589508571923	0
0	10011	1792.140170856521	1
0	10023	1794.932232230818	2
0	10025	1795.613214938868	1
0	10031	1795.742488232155	2
0	10032	1795.846136923409	1
0	10037	1795.86739739241	0
0	10043	1795.948492850923	1
0	10044	1798.413460073827	0
0	10050	1799.187559397619	1
0	10055	1800.65060821407	2
0	10056	1801.080761718061	1
0	10065	1802.872909441377	0
0	10077	1803.512091304963	1
0	10078	1803.874348300324	0
0	10118	1808.491962921945	1
0	10120	1809.176936748515	2
0	10130	1812.030804069223	1
0	10135	1812.63408067761	0
0	10143	1813.540077169561	1
0	10144	1814.054750819622	0
0	10160	1815.78401289312	1
0	10164	1816.627227783706	2
0	10165	1816.728447085706	1
0	10171	1817.91076286487	0
0	10177	1817.972894001749	1
0	10185	1820.729249206939	2
0	10187	1820.930295389126	3
0	10188	1821.285096359884	2
0	10193	1821.481611055652	1
0	10199	1822.105088329287	2
0	10200	1822.214906323479	1
0	10206	1822.388995193303	0
0	10227	1824.786133618299	1
0	10228	1826.033026212046	0
0	10262	1830.260452782991	1
0	10263	1830.517195799615	0
0	10269	1830.644562197328	1
0	10272	1832.034948029463	0
0	10278	1832.123535825763	1
0	10283	1833.785498040254	0
0	10320	1839.154990699953	1
0	10322	1839.192032742032	2
0	10324	1839.33821810744	3
0	10327	1839.671675752714	2
0	10334	1840.723462742148	3
0	10335	1840.843331777793	2
0	10340	1842.242890166893	1
0	10346	1842.508207166862	2
0	10347	1843.282226199031	1
0	10353	1843.892893522124	0
0	10373	1846.985199833881	1
0	10374	1847.249625258198	0
0	10397	1851.03727632574	1
0	10398	1851.576478980026	0
0	10404	1851.640619839151	1
0	10405	1851.900496325989	0
0	10423	1855.021871727895	1
0	10425	1855.604853819872	2
0	10430	1858.479422277809	1
0	10435	1859.024672536487	0
0	10448	1860.314145410485	1
0	10450	1860.700072152622	2
0	10451	1861.603766175822	1
0	10456	1861.611330763662	0
0	10463	1862.537963455107	1
0	10466	1863.586661723399	2
0	10472	1866.243505989433	1
0	10477	1867.688317697168	0
0	10488	1867.89553153021	1
0	10489	1867.921597564988	0
0	10503	1869.76982477514	1
0	10509	1870.877696636295	0
0	10519	1873.714979026416	1
0	10520	1875.60520258886	0
0	10549	1877.690253339567	1
0	10550	1877.851669792356	0
0	10556	1878.061788902583	1
0	10558	1878.536980665952	2
0	10559	1879.444461928832	1
0	10565	1879.557232178312	0
0	10579	1880.739225603746	1
0	10585	1885.397224742412	2
0	10588	1886.152346283105	1
0	10595	1886.578984972237	2
0	10597	1887.598205170677	1
0	10602	1888.040112327798	0
0	10606	1888.160943606619	1
0	10611	1889.812726836323	0
0	10622	1891.797028375892	1
0	10623	1891.878155336579	0
0	10630	1892.893837168545	1
0	10631	1892.910855882919	0
0	10637	1892.980594419232	1
0	10639	1893.139270773915	2
0	10642	1894.208827274772	1
0	10648	1894.36492656966	2
0	10651	1895.037441634744	3
0	10652	1895.168071883919	2
0	10658	1895.594760699522	3
0	10660	1896.86877250123	2
0	10666	1897.071267225755	3
0	10667	1897.581592898217	2
0	10672	1897.605882975293	1
0	10676	1898.322236249548	2
0	10679	1899.265071555076	1
0	10688	1902.276378385845	0
0	10710	1904.915527112193	1
0	10712	1905.101069542815	2
0	10716	1906.962468472056	1
0	10727	1907.681364912699	2
0	10728	1907.887243174744	1
0	10733	1908.099104422111	0
0	10747	1909.756153331553	1
0	10750	1911.726821232873	0
0	10758	1912.625205901802	1
0	10759	1913.619050975759	0
0	10763	1915.187016288338	1
0	10767	1915.536665857338	2
0	10771	1916.150865018824	3
0	10772	1916.260073500214	2
0	10776	1916.891105179904	3
0	10778	1917.900286156615	4
0	10780	1918.971031081925	5
0	10787	1920.258027983569	6
0	10788	1920.337641469627	5
0	10797	1922.684186762538	4
0	10806	1923.590050769336	3
0	10812	1924.19144881658	2
0	10817	1925.425675991408	1
0	10824	1925.701679928779	2
0	10825	1925.748142241122	1
0	10830	1925.837450465237	0
0	10834	1925.83854872936	1
0	10837	1926.209639686287	0
0	10854	1928.9517775783	1
0	10857	1929.111992427924	2
0	10859	1929.322094228247	1
0	10865	1929.682102714178	0
0	10876	1929.990575965584	1
0	10877	1930.138406719344	0
0	10916	1941.797827883603	1
0	10917	1941.871339229364	0
0	10947	1945.727910199516	1
0	10949	1945.921367732261	0
0	11002	1955.135616845069	1
0	11007	1957.293974888145	0
0	11067	1974.532233135578	1
0	11068	1974.6188985105	0
0	11074	1975.624187102001	1
0	11076	1976.050618978167	0
0	11091	1978.081612559902	1
0	11093	1978.087161752739	2
0	11095	1980.017551794047	3
0	11096	1980.444807346895	2
0	11102	1980.8886165359	3
0	11103	1981.515131964333	2
0	11108	1981.675448047945	1
0	11119	1983.002576449894	2
0	11128	1985.941472774696	1
0	11134	1987.08959434585	2
0	11137	1987.98859838611	1
0	11143	1988.494710676673	2
0	11146	1989.258431799125	1
0	11152	1989.279398090842	2
0	11155	1990.032415859547	1
0	11162	1990.345940870052	2
0	11163	1991.24768308596	1
0	11169	1991.659635957371	2
0	11171	1992.564635536434	3
0	11175	1993.05678554402	4
0	11176	1993.559653722541	3
0	11182	1996.366763201178	2
0	11187	1996.737850043775	1
0	11193	1997.388621669088	0
0	11214	1998.301706428215	1
0	11215	1999.295985566579	0
0	11221	1999.401939454931	1
0	11223	1999.471599333919	2
0	11236	2003.275803407474	3
0	11237	2003.976398942806	2
0	11242	2004.127850010311	1
0	11249	2004.742314349067	0
0	11271	2006.513700239056	1
0	11273	2007.225402543427	0
0	11280	2007.345636555823	1
0	11282	2008.009758659041	2
0	11283	2008.027421926759	1
0	11288	2008.040594344503	0
0	11299	2009.537596635595	1
0	11301	2009.539455096177	2
0	11303	2010.111521945868	1
0	11311	2012.463753336681	0
0	11318	2013.10978127832	1
0	11319	2013.450561380629	0
0	11323	2014.400408876673	1
0	11326	2014.579718131631	0
0	11366	2023.22636533479	1
0	11367	2023.442775103375	0
0	11393	2034.063246508984	1
0	11394	2034.330862610696	0
0	11428	2046.922293824456	1
0	11430	2047.985141201184	2
0	11432	2048.389968984536	3
0	11434	2048.46766281959	4
0	11438	2049.631870415862	5
0	11440	2049.85987751417	6
0	11444	2052.362691022747	5
0	11449	2052.609161785193	4
0	11456	2053.005227668638	3
0	11462	2053.721559301837	4
0	11464	2053.876080274267	5
0	11467	2054.109396013347	4
0	11473	2055.475905685218	5
0	11476	2056.062091683176	4
0	11480	2059.930700428595	5
0	11487	2062.032891351046	4
0	11492	2062.801409656746	3
0	11497	2062.895872056091	2
0	11502	2062.962725589177	1
0	11508	2063.274374785753	0
0	11516	2063.599845273629	1
0	11517	2064.542693798002	0
0	11521	2064.995340845248	1
0	11526	2066.327867764265	0
0	11533	2067.329756763298	1
0	11535	2067.707357182659	2
0	11536	2067.922748967986	1
0	11541	2069.321928828205	0
0	11555	2071.744072203482	1
0	11556	2071.916673354991	0
0	11572	2075.181261282941	1
0	11574	2075.434983903169	2
0	11582	2079.04872954714	1
0	11587	2079.127619037142	0
0	11603	2080.30616671622	1
0	11606	2081.507131659978	2
0	11607	2081.636079708241	1
0	11612	2081.86938576088	0
0	11638	2083.811351770995	1
0	11639	2084.087419303494	0
0	11649	2086.824346542388	1
0	11653	2087.619819089568	0
0	11657	2089.185575941931	1
0	11661	2092.660683778398	2
0	11667	2094.542795217555	3
0	11669	2095.313385759572	4
0	11672	2096.557912168316	3
0	11678	2096.799047407866	2
0	11684	2096.965990402645	3
0	11685	2096.971812107501	2
0	11690	2097.721079493692	1
0	11695	2098.564637625191	0
0	11704	2102.010706729177	1
0	11705	2102.203401916163	0
0	11717	2103.135701260108	1
0	11718	2103.338124784924	0
0	11735	2104.226176791213	1
0	11736	2104.298881839875	0
0	11833	2116.225297654215	1
0	11835	2119.748954098193	2
0	11836	2120.416736807102	1
0	11841	2120.538806910952	0
0	11847	2120.940284436603	1
0	11848	2121.021043098907	0
0	11854	2121.239886171644	1
0	11855	2121.691519331819	0
0	11861	2122.451711107609	1
0	11864	2123.040190078444	2
0	11865	2123.306063434075	1
0	11878	2125.539584265884	2
0	11879	2126.62010720934	1
0	11885	2128.215227311426	0
0	11937	2139.737874823904	1
0	11938	2140.25920836212	0
0	11951	2141.658628164606	1
0	11952	2142.191439998404	0
0	11958	2142.296791020134	1
0	11961	2142.781010104697	0
0	12000	2146.161618686421	1
0	12002	2146.289293366044	2
0	12005	2146.515517381028	3
0	12006	2146.748126395112	2
0	12011	2147.260597864786	1
0	12016	2147.558176540502	0
0	12027	2147.769643060875	1
0	12029	2147.989755691638	2
0	12030	2148.920632617304	1
0	12037	2149.661441429532	0
0	12043	2151.029314239329	1
0	12048	2151.851373405957	0
0	12054	2152.214468685702	1
0	12058	2153.40593750653	0
0	12071	2155.72476537696	1
0	12072	2156.079283726236	0
0	12078	2157.078044153621	1
0	12079	2159.264387770494	0
0	12119	2164.967501096979	1
0	12121	2166.068335190707	0
0	12157	2173.482715078634	1
0	12158	2173.50507638214	0
0	12197	2189.105739943238	1
0	12199	2190.393105799503	2
0	12201	2190.541427824838	3
0	12202	2190.786636474687	2
0	12208	2191.152777244309	1
0	12213	2191.176104392972	0
0	12238	2194.588794356095	1
0	12239	2194.631250131241	0
0	12245	2194.698919685443	1
0	12246	2194.726291152099	0
0	12257	2196.006796377111	1
0	12259	2196.851638312403	0
0	12265	2197.406269436131	1
0	12266	2197.612495688162	0
0	12283	2200.39059405395	1
0	12287	2201.654820465386	0
0	12310	2207.331751111177	1
0	12311	2208.553690716111	0
0	12317	2208.8608430471	1
0	12318	2209.508924081647	0
0	12324	2210.941273341365	1
0	12325	2211.41676261017	0
0	12381	2224.923782867204	1
0	12385	2227.494541745442	0
0	12411	2232.476728567479	1
0	12415	2233.227114047351	0
0	12429	2233.884779485255	1
0	12431	2234.911083132576	2
0	12433	2235.098070372624	3
0	12434	2236.071972301845	2
0	12440	2236.075335844149	3
0	12443	2236.701082531635	2
0	12448	2237.071007014897	1
0	12453	2237.416939346411	0
0	12475	2242.164203047728	1
0	12476	2242.201944902194	0
0	12572	2256.354089195473	1
0	12574	2256.388895455572	2
0	12576	2257.016190398388	3
0	12577	2257.53035665106	2
0	12584	2258.161247889097	1
0	12589	2258.227367258004	0
0	12644	2271.23223658925	1
0	12645	2271.2689289706	0
0	12653	2272.614787900905	1
0	12654	2272.789791526763	0
0	12660	2272.90881146575	1
0	12662	2274.082766020125	0
0	12672	2275.652454724157	1
0	12673	2276.62565913216	0
0	12696	2277.951801451574	1
0	12699	2278.329153744185	2
0	12701	2278.796794405473	1
0	12706	2279.291739575736	0
0	12721	2281.231670526626	1
0	12729	2282.912939107909	0
0	12735	2283.830008645362	1
0	12736	2284.551423485946	0
0	12744	2285.877403664725	1
0	12745	2286.555882029315	0
0	12761	2286.970866646368	1
0	12763	2287.92850686633	0
0	12769	2287.957642629048	1
0	12770	2288.035719874406	0
0	12791	2290.733125105196	1
0	12792	2290.995963216053	0
0	12820	2298.522537656376	1
0	12821	2298.807074138802	0
0	12827	2299.048985641999	1
0	12828	2299.263228302023	0
0	12834	2299.713952078343	1
0	12837	2301.01446272357	0
0	12843	2301.379867054972	1
0	12846	2302.894746899276	0
0	12856	2303.889879591857	1
0	12857	2304.478168155416	0
0	12869	2305.581811461405	1
0	12871	2305.966709419378	2
0	12872	2306.088616792073	1
0	12876	2306.972764097203	2
0	12881	2308.587570474548	1
0	12889	2308.933848166492	2
0	12891	2309.012592197775	3
0	12894	2309.984497148931	2
0	12898	2310.522005578744	3
0	12900	2310.590909438022	4
0	12903	2311.22852973072	3
0	12907	2312.751348165849	4
0	12910	2313.303975676768	3
0	12915	2313.899465123094	2
0	12922	2315.369971642161	1
0	12926	2315.867552363754	2
0	12928	2317.49125945961	3
0	12931	2318.531763628779	2
0	12937	2319.73691369735	1
0	12942	2320.04270678384	0
0	12948	2320.749893537054	1
0	12951	2322.148843967487	0
0	12955	2325.151986288243	1
0	12958	2325.71147321991	0
0	12965	2327.865936253035	1
0	12966	2328.407681535953	0
0	13020	2335.499535614324	1
0	13022	2336.138576866193	0
0	13037	2339.010970647438	1
0	13040	2341.204801823684	0
0	13056	2345.517198321658	1
0	13057	2345.590918201576	0
0	13084	2351.819230793913	1
0	13086	2352.002286015332	0
0	13092	2352.647012386572	1
0	13093	2353.086636560308	0
0	13187	2372.622491035194	1
0	13189	2372.853304880153	0
0	13227	2383.07606802802	1
0	13229	2383.390899448774	0
0	13258	2388.485369514523	1
0	13259	2388.925634658274	0
0	13276	2391.930434668065	1
0	13277	2392.07476013853	0
0	13296	2396.029410290189	1
0	13299	2397.272619178621	0
0	13305	2398.274762965872	1
0	13307	2398.376702547566	2
0	13308	2399.603158288162	1
0	13313	2400.887621610172	0
0	13321	2401.40957738235	1
0	13323	2402.998143867421	2
0	13326	2404.207574756353	1
0	13332	2404.811428733261	2
0	13334	2404.830615452536	3
0	13338	2406.131828975273	4
0	13340	2406.356033718729	5
0	13343	2409.210408788472	4
0	13349	2409.894982205076	3
0	13355	2410.103045493267	4
0	13356	2410.255341717903	3
0	13362	2410.839960302403	4
0	13363	2411.077190902922	3
0	13368	2411.689143300669	2
0	13373	2411.836506597724	1
0	13378	2412.004462433287	0
0	13395	2412.490815320418	1
0	13400	2413.926128959718	2
0	13402	2414.017440067447	1
0	13408	2415.12490676498	0
0	13426	2416.792995851415	1
0	13427	2417.062870059626	0
0	13438	2417.861924873805	1
0	13439	2418.340540918328	0
0	13514	2430.797564285458	1
0	13518	2431.602862195979	0
0	13531	2432.99966189801	1
0	13532	2433.051071045866	0
0	13539	2433.277778846119	1
0	13541	2433.939519679628	2
0	13542	2434.669220512791	1
0	13548	2434.915238621943	0
0	13561	2436.661804908904	1
0	13562	2436.778062421492	0
0	13583	2439.387083386211	1
0	13584	2439.455433700737	0
0	13591	2440.703997532661	1
0	13593	2441.836622430124	2
0	13596	2442.057707777546	1
0	13601	2443.06610999822	0
0	13607	2443.218570227878	1
0	13613	2446.236759212451	0
0	13631	2448.484940884872	1
0	13633	2448.974374666057	0
0	13637	2449.768005768371	1
0	13640	2450.661768571707	0
0	13660	2453.565554978119	1
0	13666	2454.019143360948	2
0	13668	2454.447960234246	3
0	13671	2454.852532183795	4
0	13673	2455.546417800531	3
0	13678	2455.751362762579	2
0	13683	2456.74642753123	1
0	13689	2457.006878930259	2
0	13691	2457.342236234116	3
0	13692	2457.370797987925	2
0	13697	2457.534583979996	1
0	13702	2457.547831189427	0
0	13710	2458.972620163264	1
0	13713	2460.507360554348	0
0	13717	2461.759243139677	1
0	13724	2463.268476285627	2
0	13725	2463.96466921045	1
0	13732	2464.083467219442	0
0	13745	2464.694344749419	1
0	13748	2466.651759442543	2
0	13749	2466.920469101816	1
0	13755	2467.180621305104	0
0	13761	2467.266037030381	1
0	13762	2468.68246104407	0
0	13785	2470.223657478302	1
0	13788	2470.400424178509	2
0	13792	2471.184517004578	1
0	13797	2471.2790287236	0
0	13805	2471.6766471835	1
0	13806	2472.626738460542	0
0	13822	2473.18365663544	1
0	13828	2473.951132140398	0
0	13840	2474.735411072091	1
0	13841	2475.280847431756	0
0	13858	2477.887914074256	1
0	13859	2478.118577251789	0
0	13969	2493.429602916012	1
0	13971	2494.179154480182	2
0	13972	2494.596528425601	1
0	13977	2494.937983416554	0
0	14008	2497.752427828555	1
0	14009	2498.10086518021	0
0	14026	2500.253688821245	1
0	14027	2500.832967958	0
0	14080	2511.478486301602	1
0	14081	2512.08895235047	0
0	14094	2512.62813709976	1
0	14095	2512.775087807888	0
0	14146	2528.94943084518	1
0	14147	2530.967154192638	0
0	14158	2531.784990568574	1
0	14163	2533.975619723892	0
0	14195	2538.627416108842	1
0	14203	2539.89262536378	0
0	14228	2543.688231139314	1
0	14232	2545.378279302323	2
0	14234	2545.733546393343	3
0	14236	2547.594294241542	4
0	14239	2548.115923602304	3
0	14244	2548.499084380163	2
0	14249	2548.502549475197	1
0	14254	2548.584482093321	0
0	14265	2549.013766072267	1
0	14267	2550.619779298018	0
0	14293	2552.765477325287	1
0	14297	2555.630850358515	0
0	14330	2564.375558416921	1
0	14331	2565.871933114281	0
0	14364	2571.30131766403	1
0	14368	2572.106286743602	0
0	14387	2574.612206519042	1
0	14389	2575.217202578619	2
0	14391	2575.712109986943	3
0	14392	2576.010506072231	2
0	14399	2576.954222591912	3
0	14401	2577.374489595979	2
0	14406	2577.467318334105	1
0	14412	2577.803077350538	0
0	14583	2611.298875155334	1
0	14585	2611.406587608993	2
0	14586	2612.904923384526	1
0	14591	2612.962700859543	0
0	14597	2614.812157057665	1
0	14598	2614.833330333014	0
0	14602	2616.318149209375	1
0	14605	2618.850344596452	0
0	14611	2619.770730004021	1
0	14612	2620.139331178955	0
0	14649	2630.653544384168	1
0	14654	2632.058724795184	2
0	14655	2632.295081577776	1
0	14662	2633.382478594054	0
0	14724	2649.323351836028	1
0	14725	2649.732882161242	0
0	14762	2656.856295570322	1
0	14763	2657.47882987181	0
0	14770	2657.824244870888	1
0	14773	2658.173716918323	2
0	14775	2658.496204816177	3
0	14776	2659.52525737492	2
0	14781	2660.401252821074	1
0	14787	2660.982424423481	2
0	14789	2661.247278036274	3
0	14792	2661.271517732929	2
0	14798	2661.815043211971	3
0	14799	2661.938503975854	2
0	14803	2663.759492564682	3
0	14808	2664.555654161258	4
0	14809	2664.650305767703	3
0	14815	2665.045404432958	4
0	14817	2665.255703464339	3
0	14825	2666.066559468657	4
0	14826	2666.469515445589	3
0	14830	2667.17511646806	4
0	14834	2667.342975134843	5
0	14836	2668.666527516415	6
0	14838	2668.787231982546	7
0	14840	2668.927342871818	8
0	14841	2668.955593758635	7
0	14846	2670.381501449359	6
0	14853	2673.046296584074	5
0	14861	2674.032676370665	6
0	14862	2674.725560667594	5
0	14866	2674.97260156195	6
0	14869	2678.219997644717	5
0	14878	2679.285458449138	6
0	14879	2679.459560987199	5
0	14887	2681.428178335694	4
0	14896	2682.222685554089	5
0	14897	2682.878677751457	4
0	14902	2683.094414432199	3
0	14908	2684.386293418994	2
0	14913	2685.729578608607	1
0	14919	2686.312196647554	2
0	14921	2686.48264703942	3
0	14923	2686.989044173213	4
0	14925	2687.183331103299	5
0	14926	2687.93486796847	4
0	14931	2689.073498735885	3
0	14938	2689.596158775513	4
0	14939	2689.888528315939	3
0	14945	2690.042486251625	2
0	14950	2690.224671410058	1
0	14956	2691.744927060698	0
0	14971	2692.920214257928	1
0	14972	2693.13518504674	0
0	15019	2696.436306602676	1
0	15021	2696.688851070199	0
0	15066	2703.85718395055	1
0	15068	2704.553400741162	0
0	15088	2708.29339644752	1
0	15091	2709.456982619585	0
0	15099	2710.771870055775	1
0	15102	2711.223335652178	0
0	15108	2711.704430030619	1
0	15109	2712.839576068662	0
0	15115	2713.236168210368	1
0	15119	2715.303838516516	0
0	15133	2716.169622861474	1
0	15136	2716.910003713361	2
0	15138	2718.407648084636	3
0	15140	2718.47005883583	4
0	15142	2719.232677898985	5
0	15143	2719.808597106768	4
0	15148	2720.419202947038	3
0	15155	2721.445143964571	2
0	15161	2722.355543658772	3
0	15162	2723.252602545403	2
0	15166	2724.478563969332	3
0	15169	2724.578058201824	2
0	15174	2726.454113656884	1
0	15181	2727.992840084531	0
0	15205	2731.04625347058	1
0	15207	2731.55761994766	2
0	15208	2731.787600958854	1
0	15214	2731.848727815659	2
0	15215	2731.851860663614	1
0	15223	2732.243233187792	2
0	15224	2732.690152221933	1
0	15229	2732.774354127631	0
0	15248	2735.162401380735	1
0	15249	2735.235514807188	0
0	15253	2735.983102954591	1
0	15257	2737.365558992949	2
0	15259	2737.778361271413	1
0	15264	2737.888858430437	0
0	15270	2738.687187372628	1
0	15277	2739.404918887609	0
0	15295	2741.15611634847	1
0	15297	2741.405308860676	2
0	15300	2741.693919383141	3
0	15302	2742.261684800063	4
0	15304	2742.290337478693	5
0	15305	2742.414001425628	4
0	15310	2742.603381083466	3
0	15318	2744.056344244616	2
0	15324	2744.062819182977	3
0	15330	2745.55695149826	2
0	15338	2746.037321879931	1
0	15343	2746.037560963806	0
0	15369	2748.340624337966	1
0	15371	2748.365294735621	2
0	15373	2749.001248573418	1
0	15378	2749.483133909846	0
0	15390	2750.724811257884	1
0	15395	2751.240850301567	0
0	15406	2751.681291941874	1
0	15408	2751.999015313932	0
0	15423	2754.483772067097	1
0	15424	2755.644169366179	0
0	15430	2757.387457201095	1
0	15432	2757.612934885785	2
0	15437	2758.571059747766	3
0	15441	2758.97557589818	4
0	15443	2759.37494588854	5
0	15445	2759.420885653451	6
0	15446	2759.878953539341	5
0	15454	2761.671246925287	6
0	15455	2761.919568518675	5
0	15460	2761.976444749136	4
0	15465	2762.419798320016	3
0	15470	2763.198488341341	2
0	15474	2763.822495914018	3
0	15476	2763.896293409632	4
0	15480	2764.643157389084	5
0	15481	2764.969123013278	4
0	15485	2765.184834444856	5
0	15488	2765.934913928273	4
0	15494	2767.446483346415	5
0	15496	2767.450407598076	6
0	15497	2768.567150438637	5
0	15503	2769.970340616821	6
0	15507	2771.352029152754	7
0	15508	2771.393295753193	6
0	15513	2771.741473774812	5
0	15517	2771.744954395834	6
0	15522	2773.068144744787	7
0	15524	2773.153275280399	8
0	15525	2773.538055743415	7
0	15530	2773.772571203952	6
0	15534	2774.643604119343	7
0	15536	2775.027614083261	8
0	15540	2776.486880846328	9
0	15544	2777.154897110047	10
0	15548	2777.514590311519	11
0	15549	2778.127244765748	10
0	15556	2781.942503453493	11
0	15557	2781.965068314977	10
0	15562	2782.261718975559	9
0	15568	2784.354832999229	10
0	15572	2785.210621342594	9
0	15580	2786.288106328797	10
0	15581	2787.421360259529	9
0	15587	2787.957523507941	10
0	15588	2787.9813532748	9
0	15596	2791.40793968434	10
0	15597	2792.159553401879	9
0	15606	2793.108095136222	10
0	15607	2793.620485355874	9
0	15613	2794.163101494016	10
0	15616	2794.639147451127	9
0	15622	2794.70774406667	10
0	15624	2794.743804984496	11
0	15625	2795.215572277023	10
0	15639	2797.445495334421	11
0	15640	2797.663335477771	10
0	15646	2798.203537222429	9
0	15652	2798.706247256723	8
0	15658	2799.350636257183	7
0	15664	2799.770901168865	6
0	15671	2800.151142066226	7
0	15673	2800.235588174049	8
0	15674	2800.796347272774	7
0	15679	2802.445436118627	6
0	15684	2802.462778394935	5
0	15690	2803.371626561592	4
0	15695	2803.661320796598	3
0	15702	2804.957339124533	2
0	15709	2805.800303943412	1
0	15714	2806.558226150292	0
0	15743	2807.674341232065	1
0	15744	2807.767154711081	0
0	15756	2808.688371545993	1
0	15758	2809.043493696184	2
0	15760	2809.749374933388	1
0	15766	2810.252758084297	0
0	15795	2814.728776440063	1
0	15796	2814.898801709423	0
0	15808	2815.868013183633	1
0	15809	2816.148738721024	0
0	15824	2817.1044153045	1
0	15826	2817.404869303215	2
0	15828	2817.42319497715	3
0	15829	2817.595755231383	2
0	15840	2818.689145975684	3
0	15841	2819.02312578782	2
0	15846	2819.517925037836	1
0	15851	2819.697639071754	0
0	15867	2820.766885301159	1
0	15871	2822.088539831	0
0	15888	2823.06129462241	1
0	15889	2823.157047665073	0
0	15893	2824.949755207226	1
0	15896	2825.316348473777	0
0	15900	2825.511302057892	1
0	15903	2826.415306684324	0
0	15907	2827.235576985175	1
0	15913	2827.980657530925	2
0	15914	2828.810401442675	1
0	15918	2829.027597256434	2
0	15921	2830.178747139607	1
0	15930	2832.015167010248	2
0	15935	2832.69918376292	1
0	15941	2832.992959846932	2
0	15943	2833.153876374486	3
0	15945	2833.52843283562	2
0	15950	2834.330849287403	1
0	15956	2834.588524755285	2
0	15957	2834.614917337439	1
0	15964	2836.696369728875	0
0	15981	2837.476488119651	1
0	15984	2838.134130090654	2
0	15985	2838.976258688334	1
0	15991	2839.192364154983	2
0	15992	2839.322441968173	1
0	15997	2839.924845014977	0
0	16013	2840.446481763162	1
0	16015	2840.684173424313	2
0	16017	2841.228499591966	1
0	16022	2841.248210471854	0
0	16028	2845.135504430253	1
0	16032	2846.811259594398	2
0	16041	2849.646642077591	1
0	16046	2851.857079037909	0
0	16052	2852.143171612099	1
0	16054	2853.329703058334	0
0	16062	2854.183521910137	1
0	16063	2856.761480928916	0
0	16069	2857.370175171311	1
0	16071	2857.673346717673	2
0	16073	2858.180798585681	3
0	16074	2858.329510268787	2
0	16080	2858.366781991133	3
0	16081	2858.390144537266	2
0	16086	2858.541168562661	1
0	16092	2859.596683121021	2
0	16098	2860.529092170824	1
0	16104	2860.541637407104	2
0	16105	2861.792627110751	1
0	16109	2861.854629095714	2
0	16112	2863.482790828624	1
0	16117	2864.72580406168	0
0	16123	2866.14755129138	1
0	16124	2866.523979461607	0
0	16128	2866.949143259605	1
0	16131	2868.941551348058	0
0	16154	2869.612272759664	1
0	16157	2870.114825852507	2
0	16162	2870.832516435967	3
0	16164	2871.618337149038	2
0	16170	2874.168492141161	1
0	16176	2875.231421788066	2
0	16177	2875.477090535685	1
0	16182	2875.837089656759	0
0	16188	2876.341620800426	1
0	16192	2876.976677539438	0
0	16199	2878.295882684413	1
0	16205	2878.691612828166	2
0	16207	2878.987537759913	3
0	16208	2880.13917245036	2
0	16214	2881.179899369464	1
0	16220	2883.52154669107	0
0	16266	2888.373843359406	1
0	16267	2888.766770824911	0
0	16278	2889.867596193469	1
0	16282	2891.669163674662	0
0	16301	2894.246179466932	1
0	16303	2894.539517650374	2
0	16304	2894.806870568156	1
0	16310	2895.217029967518	0
0	16329	2896.788838473206	1
0	16331	2898.785073644921	2
0	16333	2900.240899721697	3
0	16335	2900.50233708536	4
0	16337	2901.549930498987	5
0	16341	2902.455335230128	6
0	16343	2902.580223816727	7
0	16344	2902.711103325876	6
0	16349	2903.644929803248	5
0	16355	2904.137558127139	6
0	16366	2906.034014394069	7
0	16367	2906.636995627089	6
0	16372	2906.639489812396	5
0	16377	2906.846940045786	4
0	16382	2907.111290713368	3
0	16387	2907.268506060195	2
0	16392	2907.942178318516	1
0	16397	2909.196962200962	0
0	16401	2910.635505686669	1
0	16406	2911.181570111273	2
0	16407	2911.298084052837	1
0	16412	2911.691476063965	0
0	16439	2915.293322421664	1
0	16441	2915.411320938419	2
0	16444	2915.657756104034	1
0	16450	2916.122334448232	2
0	16453	2916.195661947133	3
0	16455	2916.327634912348	4
0	16456	2916.426041968271	3
0	16462	2919.46104751243	4
0	16465	2920.231195555476	3
0	16472	2921.214313278984	2
0	16480	2922.05657285859	3
0	16485	2923.056554897211	2
0	16490	2923.620562725464	1
0	16496	2923.743449433315	0
0	16504	2924.898517568853	1
0	16505	2925.402982060054	0
0	16511	2925.549284521983	1
0	16513	2926.062249098415	2
0	16514	2927.227219652475	1
0	16520	2927.40683515838	2
0	16521	2927.506074592243	1
0	16528	2929.132121183426	2
0	16529	2929.581330436846	1
0	16535	2929.615759379395	2
0	16538	2930.043440257183	3
0	16540	2930.054869829094	4
0	16543	2930.437313566669	5
0	16545	2930.752623782642	6
0	16546	2931.942079227854	5
0	16551	2932.048564106491	4
0	16560	2933.68937138842	5
0	16565	2934.678307478661	4
0	16570	2934.779494031775	3
0	16576	2936.031560595648	2
0	16582	2936.172102219383	3
0	16583	2936.561325088912	2
0	16589	2938.229970737722	3
0	16591	2938.660850923883	4
0	16592	2939.019965805824	3
0	16599	2939.555503531304	4
0	16601	2939.924580579733	5
0	16602	2940.254374258574	4
0	16608	2940.492117217753	5
0	16611	2940.769200299178	6
0	16612	2940.976692992737	5
0	16617	2941.592642697487	4
0	16623	2942.833771153614	5
0	16625	2943.377082587128	4
0	16630	2943.742186513608	3
0	16635	2945.111172261532	2
0	16643	2945.78584809292	3
0	16644	2946.147164332107	2
0	16650	2949.035541631071	3
0	16651	2949.243604752482	2
0	16655	2950.399104209074	3
0	16659	2951.052527605687	2
0	16664	2952.27568718951	1
0	16668	2952.349999232718	2
0	16670	2952.439433534495	3
0	16675	2955.099572296855	4
0	16676	2955.329916206999	3
0	16682	2956.163750493151	4
0	16683	2958.34622563156	3
0	16689	2959.725313536536	4
0	16692	2960.401745214015	5
0	16693	2960.572842542585	4
0	16699	2960.650271089959	5
0	16704	2963.359217310945	4
0	16710	2964.320125757849	3
0	16716	2964.772807278889	4
0	16720	2965.151113676434	5
0	16722	2965.181602565648	6
0	16725	2966.002345459782	5
0	16729	2966.347331334959	6
0	16732	2968.357439643671	5
0	16737	2969.068544547491	4
0	16744	2969.772086868857	5
0	16745	2970.070491641708	4
0	16750	2970.413265406207	3
0	16754	2970.419779955145	4
0	16757	2971.6014224359	3
0	16763	2972.504976276355	4
0	16764	2972.679833549368	3
0	16768	2973.085193932152	4
0	16771	2974.741107196972	3
0	16780	2975.941693859198	4
0	16781	2975.948783459801	3
0	16787	2976.033524075678	4
0	16788	2978.085187466791	3
0	16792	2978.198228335577	4
0	16794	2979.592123646849	5
0	16802	2980.39230559214	6
0	16803	2981.169350771273	5
0	16809	2982.224361917578	6
0	16810	2982.447159981788	5
0	16816	2983.938679719794	4
0	16824	2984.894013197285	5
0	16828	2986.794702945417	4
0	16833	2987.104901192052	3
0	16838	2987.162775704141	2
0	16845	2988.867626140659	1
0	16850	2989.770687653797	0
0	16858	2990.660198894966	1
0	16859	2991.514223321848	0
0	16877	2994.997138390857	1
0	16878	2995.358664928112	0
0	16891	2996.023599966288	1
0	16897	2997.547479540801	2
0	16898	2997.782021899809	1
0	16904	2998.41962362907	2
0	16906	2998.508493785604	3
0	16910	2999.404893661057	2
0	16915	2999.452434398677	1
0	16920	2999.65455386813	0
0	16969	3007.704274549505	1
0	16973	3008.517337432701	2
0	16976	3009.250374773946	1
0	16981	3009.531304013064	0
0	16990	3010.656898882952	1
0	16992	3011.286456340832	2
0	16995	3014.02161284044	1
0	17000	3014.318128040596	0
0	17017	3018.245719682223	1
0	17018	3018.354219691263	0
0	17055	3022.096020599423	1
0	17062	3024.479887803708	0
0	17070	3024.802705542784	1
0	17071	3025.24481840168	0
0	17083	3026.632591420817	1
0	17087	3027.02339984224	2
0	17088	3027.093440160292	1
0	17093	3027.679905878486	0
0	17119	3029.792586564678	1
0	17121	3031.337472127087	0
0	17142	3032.956734792904	1
0	17145	3033.603017623775	0
0	17151	3034.505879309866	1
0	17153	3034.519132686914	2
0	17158	3035.559941585585	1
0	17164	3036.218261757088	2
0	17167	3037.054548702808	1
0	17172	3037.363754152992	0
0	17183	3037.87246441545	1
0	17187	3038.120878502814	2
0	17191	3038.737690196499	3
0	17192	3039.652699892769	2
0	17197	3039.713145125574	1
0	17202	3039.775250426369	0
0	17229	3043.991685252656	1
0	17231	3047.68610583259	2
0	17236	3050.296330648579	1
0	17242	3050.451238935667	2
0	17244	3050.667574534499	3
0	17246	3051.154409079972	4
0	17252	3052.361257141938	5
0	17254	3053.057972124752	4
0	17259	3053.114150033016	3
0	17265	3054.530460096673	2
0	17270	3054.69128563707	1
0	17275	3054.761098707169	0
0	17300	3056.707466106074	1
0	17304	3057.219650461792	0
0	17316	3058.169741617886	1
0	17317	3058.334694063232	0
0	17342	3062.70098229325	1
0	17343	3062.948415674308	0
0	17376	3069.805570103296	1
0	17377	3069.915541372487	0
0	17400	3073.572206548512	1
0	17402	3074.774041587189	2
0	17406	3075.768345817974	1
0	17411	3076.333474233842	0
0	17419	3077.427980742295	1
0	17423	3078.511672729619	0
0	17481	3086.784714110993	1
0	17483	3087.536695234959	2
0	17485	3087.89619205914	3
0	17486	3088.02037739833	2
0	17492	3088.302423893368	1
0	17501	3089.726395632883	0
0	17507	3090.007631786744	1
0	17509	3090.717418526617	0
0	17515	3090.930052981273	1
0	17516	3091.350817100921	0
0	17528	3092.470989406691	1
0	17532	3092.951764150512	2
0	17533	3093.02627298575	1
0	17539	3094.385013147475	2
0	17542	3094.789579424919	3
0	17543	3095.209216637101	2
0	17547	3095.534813544067	3
0	17549	3095.944550499033	4
0	17552	3096.804716305762	3
0	17556	3097.27054703365	4
0	17561	3099.063708777231	3
0	17566	3099.085466947484	2
0	17570	3101.485788953281	3
0	17572	3101.490869100828	4
0	17575	3101.541231860278	3
0	17583	3102.981837549958	4
0	17584	3103.057155549056	3
0	17588	3103.68767685396	4
0	17594	3105.068505307224	5
0	17598	3105.464090698809	6
0	17604	3107.647995010135	7
0	17605	3107.95799208766	6
0	17610	3107.981656792959	5
0	17616	3108.696511053067	4
0	17620	3109.263529875136	5
0	17622	3111.227863381708	6
0	17627	3117.553905589155	5
0	17632	3119.688634833455	4
0	17636	3119.756890392513	5
0	17639	3120.70353953678	4
0	17648	3121.659709073192	3
0	17655	3122.263232439327	2
0	17661	3124.79919837599	1
0	17667	3125.653627574706	2
0	17668	3125.659864716465	1
0	17675	3126.020501285135	2
0	17676	3126.658623463348	1
0	17682	3127.295239586696	2
0	17684	3128.012498320335	1
0	17691	3129.707145582162	0
0	17705	3134.175154745377	1
0	17706	3136.209448129097	0
0	17710	3136.238626470704	1
0	17713	3139.297620491763	0
0	17717	3139.370213609864	1
0	17723	3141.346490274185	2
0	17726	3141.583172298676	1
0	17732	3142.539474895871	2
0	17733	3142.710164653962	1
0	17738	3143.076864680215	0
0	17742	3143.241537528897	1
0	17744	3144.853624364332	2
0	17746	3145.546691989672	3
0	17750	3145.977024591194	4
0	17755	3147.819781392291	3
0	17761	3148.690561607384	4
0	17765	3148.965311479022	3
0	17771	3149.059758530709	4
0	17772	3149.216435321708	3
0	17777	3150.165553611908	2
0	17783	3150.411034804465	3
0	17785	3150.48748604958	4
0	17788	3151.851988599458	3
0	17792	3151.997964206272	4
0	17797	3153.066010166727	3
0	17805	3153.668215581608	4
0	17806	3153.713208714175	3
0	17812	3155.810885847965	4
0	17814	3156.091480778242	5
0	17817	3157.421982156419	4
0	17821	3157.725569893974	5
0	17823	3158.051993592638	6
0	17826	3160.488702397768	5
0	17831	3161.638703942594	4
0	17835	3162.497120805102	5
0	17839	3163.509497176839	6
0	17840	3164.668225182694	5
0	17844	3165.379704769392	6
0	17850	3165.928446958671	7
0	17851	3166.65637297784	6
0	17860	3169.858411141301	5
0	17866	3170.357804567821	4
0	17871	3170.393653968529	3
0	17876	3170.946504747734	2
0	17882	3171.636045875083	3
0	17883	3172.49616260852	2
0	17892	3173.8874673433	1
0	17897	3174.309808038261	0
0	17901	3175.270745426613	1
0	17903	3175.577292226565	2
0	17906	3176.887952306041	1
0	17910	3177.086794122563	2
0	17913	3177.912969581507	1
0	17917	3178.015972242655	2
0	17920	3178.918469161674	1
0	17924	3181.058483988267	2
0	17928	3182.50522976403	3
0	17929	3182.837877016596	2
0	17935	3183.593089942957	3
0	17936	3184.030237491383	2
0	17941	3184.471385505599	1
0	17947	3184.812922215043	0
0	17959	3185.579014060056	1
0	17961	3186.100043284423	2
0	17965	3187.123366554001	1
0	17970	3187.228692425336	0
0	17990	3192.03649493881	1
0	17994	3192.724473997274	2
0	17997	3193.820448433153	1
0	18002	3193.882533805636	0
0	18008	3194.913874696833	1
0	18009	3195.015881412363	0
0	18018	3196.050306211911	1
0	18019	3196.149615436727	0
0	18049	3201.266128476363	1
0	18050	3201.876560795429	0
0	18071	3203.466501821397	1
0	18073	3204.686535694863	0
0	18079	3204.932411539459	1
0	18080	3204.982436670286	0
0	18092	3207.131605668887	1
0	18095	3208.836618989098	0
0	18141	3216.245272299192	1
0	18145	3217.054158641638	2
0	18147	3219.924387140908	1
0	18155	3221.450466244643	0
0	18168	3222.909512582653	1
0	18169	3223.137164610101	0
0	18181	3224.150654711717	1
0	18182	3224.614480889974	0
0	18190	3225.392034231231	1
0	18192	3226.194194177839	0
0	18198	3226.573009378746	1
0	18199	3226.826805742994	0
0	18262	3238.163558054531	1
0	18265	3239.410538688664	0
0	18282	3241.756883230386	1
0	18284	3242.184095891162	2
0	18286	3242.375356704491	3
0	18289	3242.652806112343	2
0	18298	3244.136657171251	3
0	18299	3244.385155012644	2
0	18306	3244.407304763882	1
0	18312	3244.995252863249	0
0	18324	3246.374871705383	1
0	18325	3246.821999157989	0
0	18333	3247.396360596297	1
0	18335	3247.421138515536	2
0	18338	3248.057214798314	3
0	18339	3248.746332482762	2
0	18346	3250.187347921193	3
0	18347	3250.854449508549	2
0	18352	3251.316037443876	1
0	18357	3251.768026411388	0
0	18361	3251.973949767754	1
0	18364	3254.001757797616	0
0	18368	3254.778744534149	1
0	18371	3255.076692853163	0
0	18393	3257.989050462264	1
0	18394	3258.141154290077	0
0	18404	3260.975060724574	1
0	18405	3261.043202378891	0
0	18411	3261.18079375469	1
0	18413	3261.37339550527	2
0	18414	3261.712110658727	1
0	18422	3263.182136656144	0
0	18455	3266.78792802411	1
0	18458	3267.173123052786	0
0	18475	3270.272357688829	1
0	18477	3271.362014289692	0
0	18486	3271.872834825579	1
0	18489	3273.219324692985	0
0	18498	3273.544226949927	1
0	18500	3275.670597869647	2
0	18502	3277.382265185563	3
0	18506	3278.517724431459	4
0	18512	3280.765833019907	5
0	18513	3281.073456406198	4
0	18518	3281.388598274983	3
0	18525	3281.768760472557	2
0	18530	3282.122176891379	1
0	18535	3283.144424590023	0
0	18546	3284.299792186598	1
0	18548	3285.169747681715	2
0	18550	3285.937646706214	1
0	18555	3287.985971456531	0
0	18561	3288.74364658627	1
0	18569	3289.578866703163	2
0	18570	3290.033200664165	1
0	18575	3291.593078030913	0
0	18579	3292.227980221526	1
0	18581	3292.7228869589	2
0	18585	3293.306193545685	1
0	18598	3296.604329367972	0
0	18609	3297.247443320828	1
0	18610	3297.319222441122	0
0	18637	3301.202162307315	1
0	18639	3301.217507511532	2
0	18641	3301.407859839796	3
0	18643	3301.415429198177	4
0	18645	3301.962057583428	5
0	18648	3302.522122184135	6
0	18650	3302.577567025977	7
0	18652	3303.099451749742	6
0	18657	3303.544117836633	5
0	18664	3303.631854489374	6
0	18669	3304.731547721971	7
0	18671	3306.383623852257	8
0	18673	3306.901847337648	9
0	18674	3307.00457631017	8
0	18679	3307.364919444181	7
0	18688	3307.54317345541	6
0	18694	3308.035735632963	7
0	18696	3308.332501935945	8
0	18703	3308.978656417244	7
0	18708	3309.304674206589	6
0	18715	3309.562150194598	7
0	18716	3310.06200797923	6
0	18723	3310.780709361668	5
0	18728	3311.21749529364	4
0	18733	3311.618380398841	3
0	18740	3314.502279686551	2
0	18745	3315.920859544155	1
0	18749	3317.274739352571	2
0	18751	3317.534162940983	3
0	18754	3318.403173047513	2
0	18758	3319.411839397659	3
0	18763	3320.528887409052	2
0	18767	3320.841653809484	3
0	18769	3321.629610104615	4
0	18772	3322.799213074176	3
0	18777	3323.846972182248	2
0	18781	3326.121231323512	3
0	18785	3326.649359785469	4
0	18786	3326.84030300044	3
0	18790	3327.366656580994	4
0	18797	3329.063157277676	3
0	18807	3332.212899296854	2
0	18811	3332.666709339366	3
0	18814	3332.967517593419	2
0	18820	3333.401960048174	1
0	18830	3335.068755272736	0
0	18851	3336.502373598353	1
0	18853	3336.795128398459	0
0	18874	3338.151578854112	1
0	18878	3339.630443845035	0
0	18897	3342.269512506635	1
0	18898	3342.425272316385	0
0	18904	3342.503712907548	1
0	18905	3342.676060767	0
0	18911	3342.736754536677	1
0	18912	3342.897885833426	0
0	18934	3346.101567082207	1
0	18939	3347.454023049583	0
0	18956	3349.501132557959	1
0	18959	3350.618412651842	0
0	18966	3350.732018035392	1
0	18967	3351.881537209005	0
0	18987	3354.59037096959	1
0	18989	3355.239679557278	2
0	18990	3355.459952981475	1
0	18995	3355.466393400936	0
0	19001	3356.05986388963	1
0	19005	3357.400701218764	0
0	19019	3357.752343263263	1
0	19027	3361.099260258884	2
0	19028	3361.592590001704	1
0	19033	3361.853092156095	0
0	19084	3366.198310556196	1
0	19087	3366.362231268034	0
0	19097	3367.166535572434	1
0	19100	3370.245679793126	0
0	19112	3372.130911738918	1
0	19114	3372.481363289567	2
0	19115	3374.191905295836	1
0	19122	3374.899999158748	0
0	19140	3376.399218609292	1
0	19142	3376.794880619887	0
0	19165	3378.961144206781	1
0	19166	3379.5129770951	0
0	19172	3380.426305376846	1
0	19173	3380.559529242606	0
0	19196	3385.255059832321	1
0	19198	3386.162450789332	2
0	19200	3386.478949896231	1
0	19206	3386.55872916953	2
0	19208	3386.986452969352	1
0	19213	3387.315229304343	0
0	19224	3388.354524250703	1
0	19225	3389.161289792989	0
0	19231	3389.367767960655	1
0	19233	3389.645894697993	2
0	19237	3391.602604619864	1
0	19242	3391.778218440559	0
0	19248	3391.80270326012	1
0	19249	3392.164902459918	0
0	19255	3392.365479043289	1
0	19258	3393.307971164585	0
0	19277	3393.843974671774	1
0	19281	3394.179707130702	0
0	19292	3394.515216717447	1
0	19293	3395.172968286904	0
0	19324	3399.030059159334	1
0	19327	3400.0805027755	2
0	19330	3400.56022413362	1
0	19335	3401.808539414939	0
0	19346	3402.129570587503	1
0	19349	3403.024348603636	2
0	19353	3404.440426544647	1
0	19358	3404.587481085883	0
0	19379	3407.941283612844	1
0	19380	3408.929190517684	0
0	19384	3409.326104548925	1
0	19386	3409.329933646101	2
0	19392	3410.990459115138	1
0	19397	3410.990762656844	0
0	19420	3415.99544753104	1
0	19422	3416.659000844498	2
0	19424	3419.276892741253	3
0	19430	3421.977395827396	2
0	19435	3422.705410386562	1
0	19441	3423.201193941671	0
0	19492	3427.099791644204	1
0	19494	3429.193168478385	0
0	19508	3430.641290159105	1
0	19511	3431.386128070553	2
0	19513	3431.721960301759	3
0	19515	3431.744927829551	4
0	19518	3432.808750316965	3
0	19524	3433.692526208598	2
0	19530	3434.482588733982	3
0	19532	3434.616403160339	4
0	19535	3435.604594974146	3
0	19540	3435.682151348748	2
0	19546	3436.46003510844	3
0	19549	3436.803312359486	2
0	19556	3437.165547586912	1
0	19560	3438.577920662304	2
0	19562	3438.679792871039	3
0	19567	3439.905734349715	2
0	19573	3440.006989950101	1
0	19578	3440.431912953226	0
0	19589	3440.810559812904	1
0	19591	3440.892892027621	2
0	19593	3440.969530990075	3
0	19594	3441.23518250671	2
0	19600	3443.078148671938	1
0	19605	3443.23322486514	0
0	19609	3443.757772764006	1
0	19613	3444.255992042842	2
0	19615	3444.7786712706	3
0	19620	3446.330192960177	2
0	19625	3446.653299506154	1
0	19630	3449.569899263403	0
0	19638	3452.124658590128	1
0	19639	3452.253269605595	0
0	19661	3454.689464360779	1
0	19662	3454.909353929785	0
0	19681	3457.921851838876	1
0	19683	3459.274560041027	2
0	19685	3459.603890893249	3
0	19686	3459.931225727039	2
0	19694	3460.859975321126	3
0	19698	3461.527899266704	4
0	19700	3461.77187621643	5
0	19701	3461.878300036083	4
0	19708	3462.455441461462	3
0	19714	3463.372020190105	4
0	19715	3463.395602528763	3
0	19721	3463.452987250901	4
0	19722	3463.949764886077	3
0	19726	3464.303738060138	4
0	19730	3465.966972588024	5
0	19732	3466.243624348703	6
0	19733	3466.966495353641	5
0	19739	3469.188994929683	6
0	19743	3469.42805116591	7
0	19745	3469.895054935316	8
0	19746	3470.847253361072	7
0	19750	3471.258560747899	8
0	19754	3471.841982797622	9
0	19755	3472.040809504899	8
0	19759	3472.327154485812	9
0	19763	3472.494015897019	10
0	19766	3474.604501625355	9
0	19771	3475.56252975499	8
0	19777	3479.30324335097	7
0	19786	3479.567977143374	8
0	19789	3480.957453394148	7
0	19794	3481.075719544376	6
0	19801	3483.296904031385	5
0	19806	3484.023983949904	4
0	19811	3485.491634184333	3
0	19819	3486.770704544456	4
0	19821	3487.13017326631	5
0	19822	3487.729426153104	4
0	19830	3489.32242459811	5
0	19833	3489.730872649888	4
0	19842	3490.430222041225	5
0	19847	3491.88433323832	6
0	19849	3492.677158523129	7
0	19851	3493.260567601967	6
0	19857	3493.579696507796	7
0	19858	3493.637179640974	6
[...]
4	162531	28167.334026691992	3.828260913861
4	162541	28169.434029005028	2.732850184267
4	162561	28172.737777273006	2.890238747381
4	162584	28178.689417419357	2.860981397466
4	162589	28179.173663226382	1.39648291938
4	162604	28182.596147110451	0.267167350643
4	162614	28185.511044592184	1.01923021347
4	162619	28186.706886870934	1.997194982614
4	162647	28191.430901394564	1.794830774302
4	162669	28194.870089610223	0.242901811864
4	162680	28198.36398770563	3.697085349678
4	162686	28199.605895791765	4.495100971947
4	162693	28201.184037421621	5.055832740195
4	162697	28201.546300103514	3.483655672521
4	162716	28204.471939385094	1.765341040081
4	162772	28211.176473317995	0.335357732587
4	162793	28214.104938644041	0.161822933246
4	162806	28217.777547347923	1.372534703931
4	162819	28220.572369688679	1.315685703824
4	162847	28224.328845756609	0.197454162062
4	162851	28224.402520156889	0.116132662575
4	162867	28230.704614348217	2.611157863397
4	162881	28232.488221020274	0.11667966061
4	162898	28233.530410679889	0.373702740513
4	162945	28247.679633860412	1.041302199495
4	163007	28258.374313894442	0.829805245679
4	163017	28258.924870167179	0.582450424488
4	163039	28262.232792985821	1.835336777909
4	163049	28264.136743509567	2.820540885103
4	163075	28271.090136285303	4.791437668836
4	164239	28502.479482707064	229.84943769861
4	164245	28503.190155644281	226.76867110532
4	164252	28504.214219434845	226.61090571046
4	164264	28507.364755097277	228.22699774676
4	164281	28511.403552681183	228.64778250551
4	164322	28517.815198514033	227.22011916686
4	164327	28517.971981321413	223.04365392963
4	164332	28518.120848771884	222.53920263021
4	164337	28518.166871600714	219.62324570853
4	164343	28519.30037718846	219.78554454513
4	164355	28522.567600746545	215.07227825045
4	164387	28525.69471973487	218.18331466338
4	164393	28526.322079712386	218.35175629412
4	164407	28529.706226398306	219.53616717191
4	164429	28530.909236849079	219.4357965836
4	164443	28535.197338891522	223.04237332774
4	164602	28570.572147127663	255.79387049417
4	164607	28570.625856049336	253.5438033594
4	164620	28573.535846950892	255.87109766895
4	164634	28575.630896021334	246.54846616998
4	164647	28576.225160623817	245.05079409448
4	164653	28578.29557041713	242.07110411637
4	164658	28578.564033682014	240.10889184557
4	164670	28580.832365892082	232.04498099979
4	164693	28581.451520202145	231.93904733838
4	164701	28582.31867651767	231.49649311232
4	164706	28582.515500201928	228.97909712699
4	164714	28583.3752742154	221.1235591725
4	164726	28583.75790288022	220.92132496587
4	164741	28587.053125577171	220.0259087735
4	164758	28589.359310624722	219.21745928844
4	164770	28591.316209616027	219.43585842622
4	164776	28591.524177170545	217.4068790998
4	164783	28592.492392259999	206.12044755405
4	164792	28596.278869563478	208.56187731682
4	164815	28597.823439534447	202.46808197398
4	164820	28598.814865831536	197.61014206423
4	164825	28600.565251602806	197.34003389315
4	164832	28601.165841853889	192.34124183076
4	164837	28601.368438325496	190.19291693154
4	164842	28602.547885217802	188.90482936893
4	164853	28605.405711445648	188.20551107931
4	164882	28611.719734959729	193.6994168458
4	164887	28611.915576363335	193.05386513194
4	164893	28612.489161471192	191.93576770678
4	164902	28613.548846823138	188.82271849259
4	164918	28619.162054898837	192.79786256886
4	164943	28621.908208240016	190.33358750076
4	164950	28621.963441168992	188.09409952732
4	164973	28624.035523398237	180.55331746673
4	164988	28625.108570619797	159.7601248703
4	164998	28626.223580104078	156.4472678831
4	165004	28626.781529286741	154.68726118665
4	165020	28631.286805403731	158.22569470615
4	165166	28654.304340691162	169.28235964244
4	165173	28655.238022267418	168.61845606698
4	165185	28656.679037555708	168.30343534511
4	165197	28659.195930182479	170.14841378586
4	165235	28664.593260261461	170.93825449352
4	165247	28667.171681562687	168.40530869125
4	165253	28667.812751876832	161.359196262
4	165258	28667.865297977	157.00002693957
4	165267	28669.514046920555	126.76162738264
4	165272	28669.550562521746	125.01135870481
4	165277	28669.864808908565	125.25541565987
4	165290	28672.377750789813	125.24127923227
4	165328	28677.347614896715	126.92558515849
4	165338	28679.791125016823	127.21781040041
4	165349	28680.451322508184	121.0087440982
4	165359	28681.185100797372	114.99248114824
4	165373	28681.490049363818	112.45010189255
4	165387	28682.172950799135	113.0103740904
4	165398	28684.356097662023	111.75623309599
4	165408	28687.170871512587	113.14031198145
4	165421	28688.517475833167	112.66599728758
4	165441	28690.212002522906	111.40087367189
4	165446	28690.365851862416	98.280677877655
4	165453	28690.510692516259	89.552693783837
4	165458	28690.569162810314	77.779418231484
4	165465	28690.984264495538	77.899390683941
4	165470	28691.13637294653	69.642696037247
4	165485	28694.162688984848	69.275845739729
4	165583	28709.015480467998	77.875113367322
4	165590	28709.660349944826	78.11807976864
4	165615	28715.012024115926	82.855844424721
4	165634	28717.556909885964	84.593100270682
4	165639	28717.815992664964	84.276169423352
4	165644	28718.076234738756	84.063966171945
4	165653	28719.339065205702	79.849388338209
4	165675	28721.354127267278	79.773669626867
4	165693	28723.997951780653	80.317073847246
4	165711	28725.961675309722	81.716658463403
4	165726	28729.113817835314	78.300133371251
4	165753	28733.077760439193	79.092516725888
4	165789	28736.998760141353	81.055278224193
4	165794	28737.00951930799	80.299202921426
4	165800	28737.202720114185	73.502176313529
4	165806	28737.492024767895	68.390497191569
4	165817	28742.00787670631	69.170504917159
4	165856	28747.323526171862	70.195481503451
4	165863	28748.433417832947	70.387284921724
4	165869	28749.386470912823	68.202567622172
4	165887	28752.453036377481	71.065714540797
4	165932	28755.862729042319	73.878011230975
4	165937	28755.89184882334	65.508182497904
4	165942	28756.83238163721	63.504671256602
4	165951	28760.375323219242	65.198609286994
4	165966	28762.20909509346	64.24612116632
4	165980	28763.606873565975	65.301639408334
4	165996	28766.71592736704	65.133764517594
4	166036	28772.274378482937	69.652533042281
4	166041	28773.398755112472	70.504534265421
4	166046	28774.116255594708	68.386563343334
4	166056	28774.855754184686	68.269764634239
4	166116	28781.796737505469	71.988411104142
4	166121	28781.926054621948	71.009739764641
4	166129	28783.402669560796	67.991575938794
4	166134	28783.622882899491	67.59865813987
4	166142	28785.502699207664	67.332085992523
4	166151	28787.002227864011	65.828250074373
4	166170	28789.102424377594	67.282473995693
4	166199	28793.177054255791	71.069954460145
4	166204	28793.2345959116	69.356331697508
4	166210	28793.355637960349	68.16779993621
4	166227	28799.263438187202	72.562438263833
4	166346	28828.088430409435	95.253530550824
4	166352	28828.443547880192	95.296759240369
4	166361	28829.912355237923	87.626931472698
4	166380	28832.356491001882	88.229115535474
4	166385	28832.697468447358	80.918385699146
4	166392	28832.74869164017	77.705319125336
4	166403	28833.292774963606	76.063685446537
4	166410	28833.651297284091	71.402321591734
4	166415	28833.693647022698	71.14625325319
4	166422	28837.435533064989	72.854715303821
4	166427	28838.07767051224	69.188394414036
4	166438	28842.888523979521	71.993781370851
4	166468	28845.887829479157	63.739578612063
4	166475	28846.828577045593	50.799233475319
4	166480	28847.0740915198	49.645189812939
4	166487	28848.53356940439	32.916506184267
4	166504	28853.241603347825	32.379853600175
4	166543	28859.76829701557	29.029051142625
4	166569	28862.485364387129	28.224495017504
4	166577	28863.031173888349	23.630144556225
4	166604	28865.06961386668	23.617791430197
4	166615	28865.902030541128	21.761349587662
4	166620	28865.950687739563	19.721559213721
4	166637	28872.828695065785	18.339774373675
4	166664	28875.511913014504	15.850215199183
4	166671	28878.858554461206	18.149227947227
4	166704	28881.884029599484	18.261697723978
4	166709	28882.907623065237	19.241725580353
4	166714	28883.407071784546	18.884894995072
4	166727	28887.162485242217	20.361088669193
4	166772	28891.470079002839	21.774166681273
4	166803	28901.696237238766	26.390195024698
4	166839	28906.072432472603	26.546321790088
4	166846	28908.113242046059	27.462223912094
4	166867	28915.858918559126	27.589499402639
4	167078	28952.156741561036	60.791634849752
4	167084	28952.493013313691	53.615255429802
4	167093	28954.547969033763	33.349324915768
4	167137	28963.144006812243	37.522904815054
4	167146	28964.220118612728	38.190111410919
4	167156	28965.175522021833	38.926970135785
4	167163	28965.769368364004	38.630811370667
4	167283	28989.624115854298	52.78902892461
4	167307	28997.123234987646	57.898982850542
4	167355	29003.270915690853	59.995512352633
4	167380	29007.053465972572	63.307508189913
4	167388	29008.602703381435	62.729856749644
4	167421	29013.76181878235	65.146258821001
4	167426	29013.796935059989	64.069621792606
4	167433	29015.061834153871	65.308695884634
4	167452	29017.075170733324	66.744709792843
4	167472	29019.019227107206	68.298893554525
4	167491	29021.51344762319	64.738237124419
4	167514	29023.887920808186	62.645757271552
4	167524	29025.901421673119	39.127377771776
4	167589	29034.072261148048	41.042547236696
4	167594	29034.317740719783	33.151296003081
4	167599	29034.640423119762	32.133951548682
4	167606	29034.763849770909	30.897684463739
4	167612	29035.298331840423	18.724731790637
4	167619	29037.351724362991	20.610234376449
4	167634	29038.958807970698	12.253055307656
4	167696	29047.201911116889	19.328642219305
4	167701	29047.949736352265	19.468792190814
4	167713	29049.565650152548	11.315180638306
4	167730	29049.931146272666	11.235854296624
4	167743	29051.900226634379	3.413159108608
4	167757	29055.255905375826	5.582762798363
4	167768	29058.170130841094	8.179648096529
4	167776	29058.90939670428	7.817218302757
4	167789	29060.35969580397	9.237628033459
4	167793	29060.691510638933	7.567415757367
4	167810	29062.758227553218	1.534446404349
4	167850	29066.610530651269	5.190625159374
4	167854	29067.098483610555	0.844420413855
4	167864	29067.366085855387	0.078584408069
4	167916	29080.080182713459	2.265747145806
4	167921	29080.776634154971	2.539976108483
4	167925	29081.523663642521	2.685771016739
4	167955	29096.339605601403	1.333669202582
4	168000	29101.772347813138	0.742682293137
4	168012	29103.2447505817	0.89605035711
4	168087	29120.993997708123	3.757491395152
4	168142	29135.278828571747	3.586812653238
4	168152	29136.113504776616	0.49756099834
4	168968	29315.63302219321	172.81483031173
4	168986	29317.380031907685	173.82400843753
4	169118	29339.029679414065	194.38114155908
4	169124	29340.360973813734	194.83178151043
4	169129	29340.561153165725	188.02965158443
4	169135	29341.616376957779	187.1067295749
4	169140	29342.193085525752	177.9880322204
4	169146	29343.03613994391	177.587471255
4	169151	29343.046118039267	172.61063802652
4	169168	29346.946322417784	176.05960571209
4	169543	29422.475063470131	249.79432474994
4	169559	29425.441012954031	252.71217283336
4	169570	29426.488523935289	253.0861819938
4	169582	29427.128794935792	242.96152751353
4	169599	29428.668041098679	237.29429798961
4	169612	29431.755891421911	231.84715166915
4	169649	29437.011830771128	230.33636499268
4	169673	29438.438138856451	225.20691571989
4	169683	29439.901238693893	225.79149307516
4	169702	29441.99489855543	225.0673831149
4	169714	29442.550979412324	222.45508241277
4	169725	29443.761535647691	220.38018128075
4	169730	29443.90438861595	218.74585493841
4	169740	29444.475397121983	218.21949307883
4	169749	29445.130776290241	212.69769801673
4	169760	29445.531600284269	210.37377985114
4	169765	29445.716289921766	209.05892255068
4	169773	29447.336113365462	207.66255510362
4	169783	29448.560328559698	198.42614871813
4	169821	29451.516218410795	197.91223100146
4	169894	29460.434925568098	202.58585777499
4	169923	29463.158400850941	199.40957019914
4	169934	29464.3200024879	200.41797682119
4	169958	29465.803544927003	195.73395744123
4	169971	29469.059418694655	196.2507567534
4	170005	29473.096359213578	197.3753861478
4	170010	29473.183593096599	195.75803920372
4	170019	29474.267082398608	196.53164373389
4	170031	29475.063867454708	196.22426362888
4	170039	29477.39495528069	198.05941220415
4	170059	29481.344336852172	195.04931536793
4	170064	29483.514889138873	192.90077096796
4	170069	29484.175599275598	186.11410522677
4	170082	29486.903360371648	185.02780152285
4	170108	29489.074424961557	186.27473070268
4	170115	29490.633054690445	186.29318609967
4	170128	29492.49929808197	183.71839797675
4	170138	29493.642078673831	184.3562167417
4	170144	29495.768407265672	180.11012823452
4	170157	29499.553459456494	179.43144258354
4	170176	29502.535534558748	177.97560206178
4	170183	29504.260453322171	175.22536537413
4	170189	29505.055896011853	174.06274952523
4	170194	29505.136644918392	168.77307314947
4	170200	29507.214438050269	170.28546844665
4	170205	29507.622322396	163.60308475573
4	170212	29508.967475753004	161.32158228286
4	170230	29513.160891913706	155.68791706618
4	170265	29517.82756149447	150.05602372849
4	170283	29521.329857383966	153.28010871697
4	170299	29522.75761222003	154.25989658911
4	170304	29522.856360052772	148.31620111674
4	170309	29522.998654659408	147.76846214469
4	170314	29523.45203607031	147.97987172305
4	170319	29523.567352807725	146.87923764731
4	170326	29526.333194159764	148.3187708891
4	170337	29530.664214041348	144.64965320871
4	170359	29536.584569457502	147.39633163577
4	170467	29554.982618704022	165.74635676211
4	170480	29556.356642072153	166.1327709693
4	170485	29556.358072617072	160.92753978539
4	170492	29558.238788316716	162.77659964123
4	170500	29559.229126178539	162.99861623863
4	170507	29559.856727514845	160.83596834654
4	170517	29561.19710678254	159.85999757448
4	170525	29563.681372646116	161.21444477425
4	170539	29565.927048203228	162.24892786012
4	170548	29569.265752431459	164.61831954466
4	170567	29575.925206127262	170.3739108446
4	170776	29617.393561340451	211.09062777892
4	170781	29617.708800943342	209.5225362098
4	170787	29617.805405957059	209.32956607629
4	170800	29622.09311559866	209.42842734785
4	170810	29622.701227822648	206.21063333913
4	170820	29623.827964216191	202.30203165112
4	170825	29624.544050840617	200.15319490081
4	170833	29625.378552653339	198.51184942665
4	170854	29627.825765378872	196.46440443482
4	170859	29628.031662755439	193.07238608124
4	170865	29629.158323601597	192.94323311892
4	170872	29630.943243663059	191.65159208113
4	170913	29637.987432336411	196.89180019406
4	170920	29638.60151853063	197.08214916953
4	170925	29638.786751978348	194.60734830743
4	170930	29639.332316279624	195.14138804683
4	170935	29639.617519374389	188.72034286087
4	170945	29643.301453250847	188.55128175585
4	171035	29652.63886697061	197.49593039953
4	171070	29656.231417655314	198.35816401357
4	171075	29656.484848521471	198.27890167089
4	171082	29656.767595586983	184.64541018159
4	171096	29659.759981549512	186.28164816945
4	171105	29660.350691825954	182.57240664052
4	171129	29663.588134921233	184.78061927851
4	171135	29663.892647576491	184.4285710912
4	171144	29664.475559584607	183.59816305482
4	171199	29672.536171590358	187.69236836529
4	171208	29674.321562180077	187.09632598675
4	171234	29677.19954266239	188.45847130351
4	171239	29677.846583856455	178.48243144402
4	171245	29678.255584420063	175.72627241911
4	171250	29678.439137631856	165.90362206653
4	171255	29678.587442529074	154.77220640755
4	171264	29682.745736795749	152.81322791279
4	171280	29685.277740008529	155.02355253671
4	171285	29685.431693013957	147.85909170112
4	171290	29686.033638567961	146.26484377182
4	171295	29686.387848501214	144.19010168338
4	171305	29688.07300616208	143.28677160243
4	171315	29688.311216619937	136.04732681529
4	171320	29688.452105987023	132.10337951079
4	171334	29692.162336849187	133.01604752567
4	171441	29709.542475567949	145.15426729194
4	171455	29712.950948057664	147.40082862252
4	171488	29718.391080061837	137.52932576843
4	171524	29722.363191217336	137.84978950466
4	171531	29723.357256103809	136.21463479045
4	171541	29723.974581239662	133.05893429206
4	171546	29723.984862735337	127.42513990487
4	171558	29725.397118083351	128.75527528297
4	171668	29743.492168966378	143.73085302695
4	171673	29743.696398440795	142.78827690441
4	171678	29744.101225302246	142.20862592957
4	171684	29744.401921184848	138.16610344046
4	171691	29744.65509285154	126.54401893516
4	171709	29745.868058466264	127.23778823878
4	171762	29751.739965716104	129.53571618102
4	171773	29752.849728160222	118.98280419926
4	171779	29753.476734389682	119.30145135918
4	171786	29755.365943056256	120.42809861068
4	171805	29757.554286953848	120.98153579183
4	171869	29765.44473287316	127.03189253816
4	171888	29767.615040671846	124.0724699114
4	171898	29768.052154192483	124.39347245823
4	171903	29768.193178133112	123.09191429468
4	171908	29768.46105644651	121.4750111583
4	171913	29768.690155058178	120.85949807332
4	171921	29769.601245055517	120.59856228097
4	171958	29775.468059671809	124.73542052613
4	171963	29775.703153971821	120.2766530088
4	171968	29775.877587776815	115.69305856419
4	171981	29778.272604304427	117.70100776319
4	172071	29793.285280600139	124.38774390349
4	172076	29793.425051941419	124.41058211717
4	172085	29794.295942019299	98.875557420895
4	172097	29795.78132117118	97.454361270452
4	172113	29797.691222641796	97.300209716313
4	172119	29798.363496771841	92.309403704315
4	172130	29800.701492005295	90.329762438045
4	172135	29801.037290564339	87.501547758341
4	172146	29804.514865176238	88.266961491949
4	172194	29812.934354192544	92.461631411232
4	172207	29815.62217576661	89.544601561647
4	172220	29818.369308488291	87.623060730331
4	172262	29827.428848904332	88.920695152434
4	172267	29828.148572774118	86.557436668311
4	172278	29829.226894396148	83.172064298289
4	172309	29833.216370500374	86.535723764064
4	172335	29835.784937090569	87.96394296934
4	172340	29837.714099831652	82.359302385528
4	172347	29839.211194893509	83.037647232821
4	172366	29841.132148268158	82.907867864396
4	172371	29841.222015538868	81.472855832686
4	172377	29842.006594066355	81.28722832544
4	172382	29842.037833018455	72.168795662711
4	172395	29846.496067534649	69.075467558405
4	172404	29849.405701656191	65.128403649317
4	172410	29850.071317996988	62.67057917203
4	172415	29850.075031643352	61.997556095701
4	172421	29850.20350076929	60.401167787607
4	172432	29853.105738422936	54.39702347348
4	172503	29862.393996510698	62.062154948591
4	172511	29864.390387142215	49.152401694599
4	172517	29864.937987663032	44.252524198343
4	172522	29865.325999719532	42.379094251622
4	172529	29866.083698649575	22.558666776435
4	172539	29866.647434906735	22.392983021929
4	172544	29867.05639678558	21.199041864061
4	172553	29868.267149430442	16.818190092628
4	172559	29868.973901167785	16.746442771467
4	172564	29869.005683039759	12.810370539226
4	172575	29871.605467107597	12.003929354649
4	172772	29915.975071373492	53.467648222275
4	172835	29926.041520341717	58.44917679467
4	172844	29927.196526821642	52.035139737152
4	172911	29941.342664635756	60.874680619145
4	172916	29941.618747561268	57.302411774926
4	172922	29942.465827386413	31.152154777438
4	172929	29943.252676729264	30.395101929217
4	172935	29944.232634467274	30.293627488205
4	172942	29945.004799581149	27.786178963105
4	172960	29947.352783241146	30.027488972074
4	172972	29949.51830899316	19.950835126574
4	172998	29952.024499105855	5.915709843157
4	173002	29952.806167623284	6.271853379363
4	173017	29954.141499303385	0.143464058201
4	173051	29959.419448464291	0.412564989949
4	173058	29959.610216327972	0.099734338513
4	173067	29960.924966583569	0.389525410317
4	173100	29965.609928545947	2.43453110759
4	173111	29967.702487651562	2.980835204502
4	173154	29976.507493399256	3.929400257487
4	173170	29979.145359422949	6.238550358413
4	173196	29981.963627013279	1.134148627072
4	173219	29989.251000115223	4.146895474541
4	173236	29989.77350549539	1.721043347106
4	173243	29991.07960083068	1.5544816548
4	173254	29993.277802644132	3.089583509793

