version 2
run First-n5-0-20191016-17:03:13-9552
attr configname First-n5
attr datetime 20191016-17:03:13
attr experiment First-n5
attr inifile omnetpp.ini
attr iterationvars ""
attr iterationvarsf ""
attr measurement ""
attr network org.omnetpp.queueing.Pizza
attr processid 9552
attr repetition 0
attr replication ""
attr resultdir results
attr runnumber 0
attr seedset 0
param **.PS.maxInventoriedPS 5
param **.U1.interArrivalTime exponential(2s)
param **.U2.interArrivalTime exponential(4s)
param **.PS.serviceTimeForInventoryU1 exponential(0.8s)
param **.PS.serviceTimeForInventoryU2 exponential(1.0s)
param **.PS.serviceTimeDirectU1 exponential(1.2s)
param **.PS.serviceTimeDirectU2 exponential(1.4s)
param **.PS.probabilityProducing 0.5
param **.CS.serviceTimeU1 exponential(0.8s)
param **.CS.serviceTimeU2 exponential(1.0s)

vector 0 Pizza.EntryQueueU1 queueLength:vector ETV
attr interpolationmode sample-hold
attr title "queue length, vector"
vector 1 Pizza.CS queueLength:vector ETV
attr interpolationmode sample-hold
attr title "queue length, vector"
vector 2 Pizza.EntryQueueU2 queueLength:vector ETV
attr interpolationmode sample-hold
attr title "queue length, vector"
vector 3 Pizza.sink lifeTime:vector ETV
attr interpolationmode none
attr title "lifetime of arrived jobs, vector"
attr unit s
vector 4 Pizza.sink lifeTimeU1:vector ETV
attr interpolationmode none
attr title "lifetime of arrived jobs, vector"
attr unit s
vector 5 Pizza.sink lifeTimeU2:vector ETV
attr interpolationmode none
attr title "lifetime of arrived jobs, vector"
attr unit s
0	0	0	0
0	9	4.103610525227	1
0	12	5.205707498568	2
0	13	5.326445306984	1
0	18	6.063776078518	0
0	22	6.175963826011	1
0	24	6.812676107695	2
0	28	7.779880317592	3
0	34	10.713217096752	2
0	38	10.917672552838	3
0	40	11.065043263768	4
0	42	11.888199256253	5
0	44	12.070521308502	6
0	49	14.159746325118	7
0	50	14.313250344633	6
0	56	14.462208032448	7
0	58	15.745626377804	8
0	63	17.389427839946	7
0	68	18.238334087306	6
0	74	18.956105491927	7
0	77	19.561101447981	6
0	86	20.431760075439	7
0	88	20.919857056912	8
0	91	21.394384172855	7
0	96	21.595537718515	6
0	101	21.986383357961	5
0	107	22.600526468136	6
0	109	24.890804377536	7
0	112	25.899507308887	6
0	116	26.086296531173	7
0	118	28.478512130087	8
0	120	28.687634581637	9
0	124	28.81186516257	10
0	125	29.570258556961	9
0	131	30.929533425545	10
0	134	31.205590802402	11
0	135	31.257698714682	10
0	140	31.619380362862	9
0	146	31.963514730967	10
0	148	32.041881043793	11
0	152	33.196529665406	12
0	157	35.654712908568	11
0	162	36.076605567439	10
0	166	39.582422949513	11
0	170	41.699908379701	12
0	172	42.284069446235	13
0	175	42.732947594514	12
0	179	43.354198800402	13
0	183	43.700453712694	14
0	187	43.934364532279	15
0	189	44.697476219027	16
0	190	44.759642241119	15
0	194	44.994900757531	16
0	198	45.432661950546	17
0	200	46.352689866027	18
0	203	46.578536303791	17
0	208	48.156965297049	16
0	212	48.525228627784	17
0	214	48.727298178402	18
0	217	51.184999576588	17
0	222	54.953345319866	16
0	227	55.502095140888	15
0	231	55.874474923091	16
0	233	55.914855179383	17
0	235	55.9948077775	18
0	241	57.160564555234	19
0	242	57.21763487972	18
0	249	58.051403479074	19
0	252	58.572545008217	18
0	259	59.121172230588	19
0	260	59.515896629869	18
0	265	59.762628501947	17
0	271	60.793367294529	18
0	273	60.990667911366	19
0	274	62.604591912189	18
0	279	63.894339013901	17
0	285	65.83247339162	16
0	291	66.071276927283	17
0	293	66.754585261335	18
0	294	67.30549936881	17
0	298	67.36962070886	18
0	301	68.192157814932	17
0	311	68.384020955373	18
0	312	68.585917482323	17
0	322	70.649289239318	18
0	323	70.660623419901	17
0	330	72.02882277834	16
0	337	73.784108472535	15
0	342	76.528837789511	14
0	346	77.199575594748	15
0	352	78.384823649652	16
0	358	80.789300784145	17
0	359	80.970772612345	16
0	367	83.702937901273	17
0	372	84.277758853413	18
0	373	84.691478774654	17
0	380	85.63498512157	16
0	385	87.741915812851	15
0	389	88.547419753379	16
0	392	89.058005777015	15
0	399	90.234964731834	14
0	405	91.265455283263	13
0	411	91.652363832535	12
0	416	92.100332688594	11
0	428	94.798356468695	12
0	429	94.978892225553	11
0	437	96.585814625306	12
0	441	98.697513842625	13
0	442	98.719982991889	12
0	451	99.002101093134	13
0	452	99.177952233032	12
0	458	99.605232919581	13
0	459	99.794013720669	12
0	464	99.877919189149	11
0	468	102.039271910256	12
0	472	102.907963222144	13
0	473	103.407827839427	12
0	478	107.236234235203	11
0	486	108.046946869803	10
0	493	109.648536066224	9
0	498	110.405172328143	8
0	504	114.272493835293	7
0	509	114.708379537809	6
0	518	116.258194795178	5
0	522	116.438744262018	6
0	524	116.96340288035	7
0	526	116.986969344187	8
0	529	119.629526171385	7
0	533	119.882557508164	8
0	535	120.259147458602	9
0	537	121.08837254392	10
0	542	121.624258931948	9
0	547	122.122336807131	8
0	552	122.461262488216	7
0	556	122.560634743893	8
0	561	126.649086856164	7
0	566	126.831880894979	6
0	574	127.825072468991	7
0	577	128.368408609676	8
0	578	128.624497343658	7
0	584	129.533774539864	6
0	589	130.246877401392	5
0	596	132.213599074645	4
0	601	133.371594797459	3
0	607	133.811105121502	4
0	610	135.497062672331	5
0	611	135.984773606713	4
0	616	136.191183817865	3
0	622	136.70042064538	4
0	624	136.87872922537	5
0	626	136.998291151201	6
0	628	137.114435875433	7
0	634	138.254231006046	8
0	635	138.51403578422	7
0	640	139.241709520887	6
0	649	141.090111190371	5
0	654	142.486883909549	4
0	659	144.611118924748	3
0	663	145.747620233697	4
0	665	147.015480272485	5
0	667	147.504462316571	6
0	671	148.722128144045	7
0	674	150.195395731284	6
0	679	152.214668055121	5
0	686	153.387494830762	4
0	690	153.459964485719	5
0	693	154.651785898905	4
0	698	154.950862956232	3
0	705	157.016251159387	4
0	706	157.066963486779	3
0	711	157.595365950578	2
0	716	160.242212364923	1
0	723	162.253177843329	0
0	731	163.122620498574	1
0	733	163.17461598896	2
0	734	163.289075197346	1
0	740	164.616883113936	0
0	754	165.661317544857	1
0	757	166.251735882119	0
0	779	167.908238543953	1
0	780	168.519347629418	0
0	802	170.670164735287	1
0	804	170.70329692413	2
0	806	172.325578968586	3
0	807	172.787394267022	2
0	815	174.219385950607	1
0	820	174.379739706676	0
0	848	177.630695999627	1
0	849	177.648392522575	0
0	871	183.303976386378	1
0	873	183.624644575351	2
0	879	185.972175020335	1
0	885	186.394948802976	0
0	896	186.656782435001	1
0	897	186.691955670815	0
0	909	187.164805191701	1
0	916	190.27539391241	2
0	917	190.348781694584	1
0	922	190.462482103698	0
0	929	190.803934840681	1
0	931	190.832028023166	2
0	933	190.855014523583	3
0	935	192.379861892013	4
0	936	192.906369926904	3
0	944	194.621878298515	2
0	949	194.847097516492	1
0	956	195.324270208	2
0	957	195.962992789503	1
0	962	196.344175655581	0
0	992	198.86350985442	1
0	993	198.931457382684	0
0	1004	199.263220930261	1
0	1006	199.726062874171	2
0	1010	200.197740548544	1
0	1016	200.572225711132	0
0	1031	202.742493337425	1
0	1033	202.902651049313	2
0	1035	203.608986387025	1
0	1042	204.170515302296	2
0	1043	204.298320380461	1
0	1048	204.814247173394	0
0	1100	210.580132961519	1
0	1104	212.922660351413	2
0	1109	214.282521596144	1
0	1114	214.422517634719	0
0	1128	215.328087919072	1
0	1129	215.330129431272	0
0	1148	219.228041742765	1
0	1152	219.968052944015	0
0	1197	228.995039723455	1
0	1200	229.176054663752	2
0	1201	229.256610158498	1
0	1206	229.283517295234	0
0	1213	229.717503445226	1
0	1215	229.858507341947	2
0	1216	229.859233213385	1
0	1222	230.059193866705	0
0	1247	231.43162552573	1
0	1254	234.721992379879	2
0	1255	235.35762425905	1
0	1260	235.416065584774	0
0	1277	237.779870121303	1
0	1278	237.841763664398	0
0	1287	239.156897897391	1
0	1291	241.12586547005	0
0	1298	241.609162321858	1
0	1301	243.197726386448	0
0	1308	244.293201804223	1
0	1310	246.584139023514	0
0	1316	246.682181691239	1
0	1320	247.235127124326	2
0	1322	248.579892928402	3
0	1323	250.447915221889	2
0	1329	250.80258273869	1
0	1338	251.852153203558	0
0	1368	254.609829472774	1
0	1369	255.796957525363	0
0	1380	256.005704570437	1
0	1386	257.472155247794	2
0	1388	257.996576023672	1
0	1393	258.055381125607	0
0	1450	267.84241409386	1
0	1453	268.585645603516	2
0	1454	268.982926901463	1
0	1459	269.004431397071	0
0	1472	269.519374290643	1
0	1474	269.888606036456	2
0	1476	269.988437241309	3
0	1479	272.743937374597	2
0	1485	273.318630042766	1
0	1491	274.231464710169	0
0	1497	274.62348936644	1
0	1499	275.082123709713	2
0	1501	276.018376591048	1
0	1510	277.343038106342	2
0	1513	277.709502042765	1
0	1520	277.994434668016	0
0	1526	278.007559353499	1
0	1529	278.014301234213	0
0	1533	279.51989184908	1
0	1535	280.416067785831	2
0	1537	280.603578561051	3
0	1540	281.096963941727	2
0	1548	282.000740573209	3
0	1550	282.017836610499	4
0	1551	282.54086414474	3
0	1555	282.672257373152	4
0	1559	283.143069106161	5
0	1561	283.388994239937	6
0	1563	283.598418786796	7
0	1565	285.319848201824	8
0	1567	286.004197585056	9
0	1570	287.595825553671	8
0	1576	288.380855905631	9
0	1581	289.365738658385	10
0	1582	289.97476941246	9
0	1587	291.410507903658	8
0	1592	295.372898998953	7
0	1596	296.522742110059	8
0	1599	297.617841018523	7
0	1604	298.798519086875	6
0	1610	298.907373658497	7
0	1612	299.111977220516	8
0	1616	300.675746066725	9
0	1617	300.849868215349	8
0	1627	303.045194763941	7
0	1633	303.826228382316	6
0	1640	305.523151947793	5
0	1648	309.153856969073	4
0	1653	309.71273982263	3
0	1657	310.128536460447	4
0	1660	310.908765146828	3
0	1665	311.976711940895	2
0	1670	314.13747771138	1
0	1674	315.239571893775	2
0	1676	315.48639083679	3
0	1678	315.559788977352	4
0	1680	315.784848870109	5
0	1682	316.169040022406	6
0	1686	316.93006191953	7
0	1690	317.496206791225	8
0	1691	317.826959403889	7
0	1695	318.209639296572	8
0	1697	318.559459816764	9
0	1701	320.294970102642	10
0	1706	322.117261718783	11
0	1708	322.466517311743	12
0	1709	322.576534942077	11
0	1715	322.781861417401	12
0	1716	322.903668965474	11
0	1720	323.942440593367	12
0	1724	324.101580903553	13
0	1726	324.67002039061	14
0	1729	326.017595902092	13
0	1738	327.924050520645	12
0	1745	328.885581107417	13
0	1746	328.928846999664	12
0	1756	330.366085490247	13
0	1760	332.46047000123	14
0	1762	332.470876266845	15
0	1763	333.885575094642	14
0	1768	334.039141416203	13
0	1775	334.357124680142	12
0	1780	334.53600392681	11
0	1785	335.283668259889	10
0	1793	336.529693202253	9
0	1798	336.983054770133	8
0	1803	338.021366071595	7
0	1810	339.816110968647	6
0	1818	340.248165712385	7
0	1819	340.324513032344	6
0	1826	342.258552465628	5
0	1830	342.361047700747	6
0	1832	342.437625296292	7
0	1835	343.213028802446	6
0	1842	344.73835518918	5
0	1847	346.324352312675	4
0	1856	353.327328528486	3
0	1861	353.726093922914	2
0	1870	355.376012603576	1
0	1875	356.562551330004	0
0	1881	356.904562201889	1
0	1882	357.0168614845	0
0	1889	357.15414838641	1
0	1890	357.717372522973	0
0	1918	362.666574541365	1
0	1919	362.788590374108	0
0	1925	363.085703512817	1
0	1927	363.103646287485	2
0	1929	363.30828324663	3
0	1931	363.497416719632	4
0	1932	364.373354611007	3
0	1936	364.874838407544	4
0	1942	365.680002413431	3
0	1948	365.932992098105	2
0	1955	366.614998228278	3
0	1956	366.64878092053	2
0	1961	366.681147285058	1
0	1968	367.321266126834	0
0	1982	367.717274124908	1
0	1984	367.761711428946	2
0	1986	368.168846467509	1
0	1993	368.89213469864	2
0	1994	368.954274391989	1
0	2001	370.9071016244	0
0	2007	371.011424585059	1
0	2008	371.322959180304	0
0	2012	371.671637973166	1
0	2017	372.856850874851	0
0	2033	374.174655887067	1
0	2035	374.39271961431	2
0	2038	376.1362092036	1
0	2043	376.137175845102	0
0	2047	376.684875684438	1
0	2050	377.65000174359	0
0	2077	382.221075799814	1
0	2079	382.532714172034	2
0	2080	382.637467243659	1
0	2086	382.6695919228	2
0	2088	382.838967071414	1
0	2099	384.776036388569	0
0	2111	386.549315441982	1
0	2112	386.584188842461	0
0	2131	389.330094096435	1
0	2132	391.033184883437	0
0	2139	391.53288625305	1
0	2143	393.266368394383	2
0	2146	394.210825891671	3
0	2147	394.529184684579	2
0	2152	394.642346368571	1
0	2159	395.118808785171	2
0	2162	395.323967304965	3
0	2163	395.558255528146	2
0	2168	395.697590905031	1
0	2174	396.402005655679	0
0	2204	399.143077341973	1
0	2205	399.185077739416	0
0	2234	402.763299364896	1
0	2235	403.321139412617	0
0	2242	404.966823199527	1
0	2243	405.021883868572	0
0	2283	409.574036952787	1
0	2285	411.107487717042	2
0	2288	411.70574628285	1
0	2293	411.992028420712	0
0	2312	414.826300861879	1
0	2313	415.456867288326	0
0	2321	415.957546703924	1
0	2322	416.182797624277	0
0	2348	417.845829208057	1
0	2350	417.914704974665	0
0	2368	421.160618249394	1
0	2369	421.782765320784	0
0	2396	423.10457103555	1
0	2399	425.403228390736	0
0	2411	425.695484363402	1
0	2412	425.950632120319	0
0	2423	426.162511775479	1
0	2426	426.53520449679	0
0	2446	430.071129318875	1
0	2448	430.189187424587	2
0	2452	431.155937556633	1
0	2457	431.182182000412	0
0	2475	435.116176682939	1
0	2478	436.513495968027	0
0	2491	439.395131728904	1
0	2499	442.068453806407	2
0	2500	442.19565503506	1
0	2506	442.458065999449	2
0	2508	442.760446852337	3
0	2509	442.766543957663	2
0	2515	443.033664571719	3
0	2518	443.580794296217	4
0	2520	444.245698139385	5
0	2523	444.979728092107	4
0	2528	445.107676575202	3
0	2533	445.287202338027	2
0	2538	445.828851707911	1
0	2543	446.184770483099	0
0	2549	446.612377186101	1
0	2550	447.139187340814	0
0	2554	447.402227770284	1
0	2556	448.163409568909	2
0	2560	448.619902815306	3
0	2564	449.483219542644	2
0	2569	449.520904212635	1
0	2579	451.770900484912	0
0	2585	451.803067041463	1
0	2586	452.108823244434	0
0	2599	454.015773171384	1
0	2600	454.449867305559	0
0	2617	455.180135277658	1
0	2620	457.086047544057	0
0	2638	460.576301363558	1
0	2639	461.128259613437	0
0	2653	463.27994553569	1
0	2659	464.023977092974	0
0	2674	467.882452267752	1
0	2678	468.878263777274	0
0	2684	469.52338740359	1
0	2687	470.281194991141	0
0	2704	472.154192388708	1
0	2705	472.396678299401	0
0	2712	472.964338847073	1
0	2713	473.099474691799	0
0	2741	476.394185055274	1
0	2742	476.400098974512	0
0	2755	477.400009888632	1
0	2756	477.458105785662	0
0	2777	480.776965544681	1
0	2781	481.908564181502	0
0	2788	482.630039365755	1
0	2789	482.68874741545	0
0	2795	482.866471755826	1
0	2799	483.644671872635	2
0	2800	484.228696085578	1
0	2805	484.288777022269	0
0	2814	484.96248896631	1
0	2816	485.77547410144	2
0	2817	485.979495649696	1
0	2823	486.163856059002	2
0	2825	487.338266801598	3
0	2826	488.219113864467	2
0	2832	488.749970791818	3
0	2834	489.189418282823	4
0	2835	489.466754889846	3
0	2840	489.529614271411	2
0	2845	490.231145952877	1
0	2849	490.448334085487	2
0	2853	492.236734065917	3
0	2855	492.25619507778	4
0	2858	494.144528818877	3
0	2864	495.528414558973	4
0	2868	497.166623645745	5
0	2869	497.733003977642	4
0	2876	499.340641897973	3
0	2880	499.574865965975	4
0	2884	500.056044021487	5
0	2886	500.080535699173	6
0	2888	500.145697006343	7
0	2889	500.454348559687	6
0	2895	500.925361499379	7
0	2896	501.095444469165	6
0	2902	502.798061681368	5
0	2908	503.303697648392	6
0	2909	503.320752455139	5
0	2913	503.822914807747	6
0	2916	505.103653380424	5
0	2920	506.083994868001	6
0	2922	506.10422421925	7
0	2926	507.016407750704	8
0	2929	508.769948840991	7
0	2938	510.516941920948	6
0	2943	510.86802045953	5
0	2948	511.22943559688	4
0	2954	512.359057091537	5
0	2955	512.368040881682	4
0	2962	512.79182438036	3
0	2968	514.768662104961	2
0	2973	515.479289386687	1
0	2978	516.333931094985	0
0	2982	516.412831005688	1
0	2985	518.121794113078	0
0	2991	519.138777669068	1
0	2997	521.486324609751	0
0	3032	525.072690323231	1
0	3034	525.686532030212	0
0	3043	526.564980317236	1
0	3046	527.192110056113	0
0	3058	528.535760806337	1
0	3063	529.382421618446	2
0	3065	529.999913154331	3
0	3067	530.027837290841	4
0	3069	530.055038842817	5
0	3070	532.072326784326	4
0	3075	532.309020550075	3
0	3080	532.790787185315	2
0	3086	533.088367992056	1
0	3091	533.613627706043	0
0	3111	534.908089961052	1
0	3118	537.014761188134	2
0	3120	537.071523085691	3
0	3122	537.723884680738	4
0	3123	538.020092687979	3
0	3129	538.134118631762	4
0	3131	538.405134287041	5
0	3133	538.635739934759	6
0	3134	538.960940469751	5
0	3140	539.650696262771	6
0	3143	541.306099906287	7
0	3146	541.915079446722	6
0	3152	542.138452277349	5
0	3158	542.776864391039	6
0	3159	542.907601962068	5
0	3169	543.8730651791	4
0	3174	544.997939992753	3
0	3179	545.082230786654	2
0	3185	546.220546195835	1
0	3191	547.081395456191	2
0	3193	548.950876805981	1
0	3198	549.30331343011	0
0	3215	553.30820081713	1
0	3220	554.771934896159	2
0	3221	554.95590540185	1
0	3227	555.486823542036	0
0	3250	556.050820882955	1
0	3251	556.165623806228	0
0	3263	559.440423732048	1
0	3264	559.513344054604	0
0	3285	562.912163293701	1
0	3287	563.571560333571	2
0	3288	563.772580577684	1
0	3293	563.988758257302	0
0	3299	564.165053905153	1
0	3300	564.464683191434	0
0	3311	564.964967985978	1
0	3312	565.019882381623	0
0	3346	568.05746367313	1
0	3347	569.314279595941	0
0	3388	573.441301621783	1
0	3394	576.647112696702	2
0	3398	577.358045896931	3
0	3399	578.334745009491	2
0	3405	578.341412987279	3
0	3407	579.102396992303	2
0	3415	580.115612205452	3
0	3418	581.253932503036	2
0	3426	581.956779851647	3
0	3427	582.273064997127	2
0	3437	584.15146371922	1
0	3445	585.555270670986	0
0	3466	587.147876063716	1
0	3467	587.599129744378	0
0	3485	589.3827884671	1
0	3486	590.874867531423	0
0	3492	591.233700779618	1
0	3493	591.721611378145	0
0	3499	591.943093630588	1
0	3501	592.358374393341	0
0	3514	594.252184121179	1
0	3516	594.271022934298	2
0	3518	594.375731308492	3
0	3520	594.591770400526	4
0	3523	596.020247751413	3
0	3528	596.148738637774	2
0	3533	596.194826198401	1
0	3537	596.56498601973	2
0	3541	600.426164449101	1
0	3552	602.595055030299	2
0	3556	603.050415001346	3
0	3557	603.543177286719	2
0	3566	604.721272996267	3
0	3567	604.723246924537	2
0	3573	604.73060439838	3
0	3574	604.75223113483	2
0	3580	605.401197610321	1
0	3585	605.661910835974	0
0	3598	606.913066231558	1
0	3601	607.635731543306	2
0	3602	608.130551813691	1
0	3607	608.339961181427	0
0	3614	609.07094212294	1
0	3616	609.580578524158	0
0	3627	610.36348136271	1
0	3632	611.44446814676	2
0	3633	611.897659388631	1
0	3638	612.023390126521	0
0	3651	613.811155756981	1
0	3652	614.233797183607	0
0	3685	621.565076963926	1
0	3686	621.700660326971	0
0	3695	623.156971501859	1
0	3698	623.588786095137	0
0	3707	623.778042797202	1
0	3709	624.236897840273	2
0	3711	624.537952482186	3
0	3719	629.802271026117	2
0	3725	630.062269112385	3
0	3726	630.132602926619	2
0	3737	631.743278331286	1
0	3745	633.792918621482	2
0	3750	636.125392518196	3
0	3751	636.174829810366	2
0	3757	636.397231517716	3
0	3759	636.952777505943	4
0	3760	637.080172264568	3
0	3765	637.312960361254	2
0	3775	639.038781536254	1
0	3780	639.185377508051	0
0	3799	642.50964908918	1
0	3800	642.867339971367	0
0	3813	644.417477935928	1
0	3815	645.455497006988	0
0	3863	651.072140865674	1
0	3866	651.843838787869	0
0	3885	654.111269857701	1
0	3890	655.36697442674	0
0	3907	657.435914631816	1
0	3908	657.988563810978	0
0	3914	658.112890753611	1
0	3915	658.624276020341	0
0	3921	659.597542402256	1
0	3922	660.36235006334	0
0	3928	662.28886477726	1
0	3931	662.87718973019	0
0	3950	665.275972397703	1
0	3953	667.889358746738	0
0	3959	668.517129698926	1
0	3961	668.692152032096	2
0	3963	668.719615222059	3
0	3964	669.988581121723	2
0	3970	670.171467201274	3
0	3977	671.742367112702	2
0	3982	672.300723319052	1
0	3990	673.258569559057	0
0	4013	675.152961740133	1
0	4018	677.208712339659	2
0	4020	677.793921590857	1
0	4026	677.958131200433	2
0	4027	678.637139620568	1
0	4032	679.494446291879	0
0	4038	680.855066158883	1
0	4040	680.90023553623	2
0	4046	682.235771971547	3
0	4047	683.830390693508	2
0	4052	684.697672770889	1
0	4057	685.432206910266	0
0	4064	687.100042521429	1
0	4068	687.823191420767	2
0	4070	688.443538136964	3
0	4072	688.703950508261	4
0	4073	689.014139641816	3
0	4078	689.063706316991	2
0	4086	691.652819840886	3
0	4087	691.653431761191	2
0	4095	692.082268762355	3
0	4099	692.557011240828	4
0	4103	692.648952078948	5
0	4106	694.1319332875	4
0	4111	694.459203885818	3
0	4118	696.227008243756	2
0	4122	696.586356885746	3
0	4125	697.818102642271	2
0	4132	699.073271145217	3
0	4133	699.21400604889	2
0	4138	699.758043874187	1
0	4142	699.775588002405	2
0	4148	701.915892361682	3
0	4151	702.481685637623	4
0	4152	702.681338558018	3
0	4158	703.092960987075	4
0	4162	704.438414833755	5
0	4164	704.720821536544	6
0	4165	704.810013525629	5
0	4172	705.613897831057	4
0	4178	706.582014264084	3
0	4186	707.629488345796	2
0	4192	707.674416495231	3
0	4193	709.074074623915	2
0	4197	709.393560304891	3
0	4200	709.903184842476	2
0	4204	710.152193039028	3
0	4208	711.58834392102	4
0	4212	711.72025040349	5
0	4215	715.268079066537	4
0	4221	715.488828662152	5
0	4224	716.464878260042	4
0	4232	721.039231933053	5
0	4234	721.057119685321	6
0	4238	722.284767482841	7
0	4239	722.745959519323	6
0	4244	725.332728919894	5
0	4248	725.396707031145	6
0	4251	726.685872991771	5
0	4258	728.357615884245	4
0	4263	729.614832810062	3
0	4268	730.347583852964	2
0	4273	730.946892474195	1
0	4279	732.337524016808	0
0	4285	732.437364662803	1
0	4286	732.515917952176	0
0	4290	732.556672067083	1
0	4292	733.24556867913	2
0	4298	734.467092029464	3
0	4300	736.051916619291	2
0	4305	736.658482195596	1
0	4309	736.667331816956	2
0	4315	737.798613966955	1
0	4320	738.656647164391	0
0	4324	739.907000564996	1
0	4326	740.797866608439	2
0	4328	741.380087961417	3
0	4331	745.053642130581	2
0	4336	745.812170783953	1
0	4342	745.992620621142	2
0	4343	746.008008918182	1
0	4347	746.316478914443	2
0	4353	747.76928805069	1
0	4358	747.866811887598	0
0	4374	748.721333013215	1
0	4375	749.359586806039	0
0	4389	750.498013789196	1
0	4393	751.174958653639	2
0	4395	751.439270621903	3
0	4396	751.628173908596	2
0	4404	752.202553517867	3
0	4406	754.300235842874	4
0	4407	754.72912165722	3
0	4412	754.80555580214	2
0	4417	756.862311103983	1
0	4425	757.24827347573	2
0	4427	757.574134454458	3
0	4429	759.041414438647	2
0	4434	759.488837031588	1
0	4438	760.536467624426	2
0	4441	761.24007288838	1
0	4447	765.668502108846	2
0	4450	766.161170057379	1
0	4455	768.980000781911	0
0	4459	769.834619392375	1
0	4463	772.514598112654	2
0	4465	773.244245800804	1
0	4473	773.822512402169	0
0	4495	775.732128741116	1
0	4497	776.597964100584	0
0	4528	779.510869334508	1
0	4529	779.510930371116	0
0	4535	779.597633398348	1
0	4536	780.036697657607	0
0	4551	781.180777813196	1
0	4553	782.323139583947	2
0	4558	783.754659977452	1
0	4564	784.388085613378	0
0	4572	785.421974989176	1
0	4573	785.466498713925	0
0	4579	786.426116460174	1
0	4581	787.020011116691	0
0	4588	787.412372999831	1
0	4590	787.471397160524	2
0	4593	788.852735694206	1
0	4598	788.96559585575	0
0	4602	789.245626566456	1
0	4605	791.007729054659	0
0	4618	791.942446402679	1
0	4623	792.570774201322	2
0	4624	792.74910286794	1
0	4634	794.7614384866	0
0	4640	796.030716762678	1
0	4642	797.123571730003	2
0	4644	797.567091284185	3
0	4645	798.499486600273	2
0	4650	799.215053112433	1
0	4657	799.329074238689	2
0	4658	800.057002688267	1
0	4663	800.979876267087	0
0	4681	802.841625969305	1
0	4682	804.150315148971	0
0	4699	805.965825619187	1
0	4700	806.188091033332	0
0	4706	806.477698551336	1
0	4708	809.802436579398	0
0	4714	810.094124370471	1
0	4716	810.149690637823	2
0	4719	811.295784316422	1
0	4729	812.96378039472	0
0	4736	813.160196433788	1
0	4737	813.219650034438	0
0	4750	814.400352464233	1
0	4752	814.576459548592	2
0	4753	815.151167371048	1
0	4763	817.813576965655	2
0	4768	819.253698519772	1
0	4772	819.362050245134	2
0	4774	819.595674278188	3
0	4779	821.664588679848	2
0	4787	824.109854057303	1
0	4792	824.485294626913	0
0	4796	826.059717589325	1
0	4799	826.936845401255	0
0	4803	827.562605923289	1
0	4806	827.921098425254	0
0	4845	833.370369841969	1
0	4846	833.711733274624	0
0	4852	834.031420189365	1
0	4858	837.209922629252	0
0	4889	839.239517058192	1
0	4892	839.658610144972	0
0	4903	842.488370152753	1
0	4904	842.914791344602	0
0	4910	843.409582616332	1
0	4911	843.867950462447	0
0	4918	843.97859707939	1
0	4922	844.535433575865	0
0	4941	845.344059172976	1
0	4944	846.49667483207	0
0	4960	848.900560451772	1
0	4964	849.984693323374	0
0	4980	852.630222729996	1
0	4984	854.318344435051	2
0	4988	855.923276697969	3
0	4990	856.413234572094	4
0	4992	856.432039854114	5
0	4993	857.611452720581	4
0	5001	859.148606892583	5
0	5003	859.242113250449	6
0	5005	859.621281015147	7
0	5006	859.692753301168	6
0	5011	859.785695514869	5
0	5017	860.268630665093	4
0	5022	860.661884691381	3
0	5029	861.257813262966	2
0	5034	861.324908656855	1
0	5039	862.154791484462	0
0	5051	863.400375613614	1
0	5052	863.815863601485	0
0	5082	866.681450211069	1
0	5085	867.46980207855	0
0	5099	870.995378302153	1
0	5101	871.357332710217	2
0	5103	871.418006063683	3
0	5113	873.610994643336	4
0	5115	875.28350303137	5
0	5116	875.412216283287	4
0	5122	875.876457566307	5
0	5123	876.190256284546	4
0	5128	876.697230158611	3
0	5133	876.959670722832	2
0	5138	877.10986486854	1
0	5146	878.011606150937	2
0	5149	878.165637199261	3
0	5150	878.36672300578	2
0	5155	878.99479526652	1
0	5164	882.034364007184	2
0	5166	882.653866007527	3
0	5169	885.27988797351	2
0	5175	885.40450031994	1
0	5181	885.577999908792	2
0	5183	885.69967359062	3
0	5185	886.875538558444	2
0	5190	889.406883530343	1
0	5194	889.927032974527	2
0	5200	892.513304125493	1
0	5207	893.993481746226	2
0	5209	894.506355854093	3
0	5214	895.272045806356	2
0	5219	895.830588694018	1
0	5223	896.246213272124	2
0	5225	896.30375913411	3
0	5228	897.012737750058	2
0	5232	898.095628329713	3
0	5236	900.396425680235	4
0	5240	902.347277787135	5
0	5241	902.763652462117	4
0	5246	906.125471091737	3
0	5252	908.592671296873	4
0	5253	908.960682901199	3
0	5258	909.774172451437	2
0	5263	911.314646387673	1
0	5271	915.394166542505	2
0	5273	915.862169918082	3
0	5275	916.695033897637	4
0	5280	917.884922876612	5
0	5281	917.962324138288	4
0	5286	918.235363006378	3
0	5294	920.609592855801	4
0	5298	920.817156181434	5
0	5299	921.257725479464	4
0	5304	921.956082861839	3
0	5311	923.970389095583	2
0	5315	924.676432529913	3
0	5317	926.086056976992	4
0	5321	926.844088438758	5
0	5322	926.934582064351	4
0	5326	926.971030390623	5
0	5330	927.806324288538	6
0	5331	928.004457249362	5
0	5335	928.221260655395	6
0	5339	930.614119286033	7
0	5340	931.66475958642	6
0	5345	932.031093105741	5
0	5353	933.931022405739	6
0	5354	934.024993329589	5
0	5361	935.798858634306	6
0	5363	936.036587608191	7
0	5364	936.107307064442	6
0	5371	936.375438803213	5
0	5375	936.543065847519	6
0	5378	937.159487957765	5
0	5383	937.809999273041	4
0	5387	938.609437960463	5
0	5390	939.239960496033	4
0	5396	940.521566721498	5
0	5398	940.770748283864	6
0	5400	940.939803669526	7
0	5401	941.41105121582	6
0	5405	941.820711853721	7
0	5407	941.992691324758	8
0	5410	942.240615426825	7
0	5416	943.205125789439	8
0	5418	943.237323723857	7
0	5423	944.164780564495	6
0	5428	946.67565175754	5
0	5432	947.213221987955	6
0	5434	949.087084497687	7
0	5436	950.333187834581	8
0	5438	951.19194744767	9
0	5442	952.276461899788	8
0	5448	953.003158678348	7
0	5453	954.171206456867	6
0	5460	955.929887133831	5
0	5464	956.125565571458	6
0	5467	956.47477737353	5
0	5472	959.388213724146	4
0	5478	959.946042563229	3
0	5483	960.033174357767	2
0	5490	961.444316184271	1
0	5494	962.194527622631	2
0	5496	962.202262611281	3
0	5501	962.702084382332	2
0	5506	962.89124209989	1
0	5511	965.70647176728	0
0	5522	968.51822582231	1
0	5524	970.314539281688	0
0	5533	971.265644083781	1
0	5534	971.334305468271	0
0	5546	971.996276445423	1
0	5549	973.728503355966	0
0	5563	975.303140996167	1
0	5566	976.755531768313	0
0	5597	980.605791943931	1
0	5601	981.796383895529	2
0	5603	981.883221309458	3
0	5604	983.173319985528	2
0	5610	983.557885341378	1
0	5615	984.098062011629	0
0	5621	984.17045531869	1
0	5626	984.917075349616	2
0	5628	985.487834010707	1
0	5636	987.293100834807	0
0	5667	991.560439370618	1
0	5669	992.442058900783	2
0	5670	994.186111835055	1
0	5678	994.509386356223	2
0	5679	994.709707745731	1
0	5684	994.81778414622	0
0	5699	996.302795018316	1
0	5706	1000.07632279684	2
0	5708	1001.747552821385	1
0	5713	1001.889012237271	0
0	5721	1003.350158573753	1
0	5723	1004.077742367758	2
0	5724	1004.536709312973	1
0	5729	1005.747096264431	0
0	5761	1006.915061865841	1
0	5766	1008.661433842055	0
0	5775	1009.468460052235	1
0	5783	1011.664493787241	0
0	5809	1014.644329878588	1
0	5811	1014.789662159085	2
0	5817	1015.801260043612	1
0	5822	1016.166238030035	0
0	5828	1016.854547587646	1
0	5829	1016.909420773474	0
0	5835	1016.975252646344	1
0	5839	1017.598264567495	0
0	5858	1020.674174075681	1
0	5860	1021.913422745853	2
0	5864	1024.167166138961	3
0	5868	1024.593981460241	4
0	5872	1026.773819354444	3
0	5877	1027.048670049674	2
0	5884	1027.39354498297	1
0	5889	1027.444654727989	0
0	5908	1032.535593124778	1
0	5909	1033.414726395162	0
0	5938	1035.468408949953	1
0	5946	1037.452138761597	2
0	5947	1037.660547394338	1
0	5953	1038.170825896884	2
0	5955	1039.828459550039	1
0	5960	1039.828518509773	0
0	5994	1042.740243236708	1
0	5998	1043.051158212272	2
0	6002	1044.498238520447	1
0	6007	1045.373575089867	0
0	6014	1045.550287249042	1
0	6017	1046.314283600963	2
0	6021	1046.678289692091	3
0	6022	1046.796032617994	2
0	6027	1046.919722931479	1
0	6032	1048.440775276064	0
0	6041	1050.104442920739	1
0	6046	1050.856836110056	0
0	6052	1051.626098643749	1
0	6053	1051.83429240991	0
0	6062	1053.387196892038	1
0	6065	1053.684371792886	0
0	6069	1053.911471524718	1
0	6073	1055.209166913408	2
0	6075	1056.090344692573	3
0	6079	1056.655045600059	4
0	6086	1058.40504559946	5
0	6087	1058.790433206871	4
0	6097	1060.95026891898	3
0	6103	1063.145130205542	4
0	6108	1064.207803144233	5
0	6111	1064.614985811216	6
0	6113	1065.156477445551	7
0	6114	1065.311911826662	6
0	6120	1066.436404143787	5
0	6126	1066.62080204917	6
0	6130	1069.18400673711	5
0	6135	1070.017320578716	4
0	6140	1070.0410868876	3
0	6146	1070.055540625804	4
0	6147	1070.303368019977	3
0	6154	1073.920127181663	2
0	6163	1074.833419656449	3
0	6167	1075.938014359688	2
0	6173	1077.317980647999	3
0	6174	1077.339174817836	2
0	6179	1077.535154548571	1
0	6185	1077.662630032032	0
0	6224	1082.417915714856	1
0	6225	1082.878160717798	0
0	6257	1090.43765237358	1
0	6260	1091.701670871872	0
0	6266	1091.714840215409	1
0	6267	1092.335486563495	0
0	6281	1095.261067953346	1
0	6284	1097.828350202405	0
0	6300	1101.525983175254	1
0	6303	1102.987709348219	0
0	6322	1104.097962666504	1
0	6324	1104.158447193727	2
0	6329	1104.320884992287	1
0	6336	1105.56764628261	0
0	6360	1107.939777367993	1
0	6362	1107.997104539967	2
0	6365	1109.578974356514	1
0	6370	1109.910963821661	0
0	6381	1111.111606743477	1
0	6385	1112.086567154687	2
0	6390	1114.158622784302	3
0	6392	1114.970056727889	2
0	6400	1115.872941102159	3
0	6401	1115.891117812835	2
0	6408	1116.104738885893	1
0	6417	1117.358814355968	0
0	6425	1119.104591835084	1
0	6431	1120.03909493772	0
0	6465	1125.646154552377	1
0	6468	1127.330205051061	0
0	6491	1130.601243967951	1
0	6493	1131.092784978349	0
0	6507	1132.37364609048	1
0	6510	1134.362287776952	0
0	6521	1134.757231849139	1
0	6522	1135.789652161545	0
0	6534	1137.18135833771	1
0	6535	1137.18639709355	0
0	6620	1156.493456020809	1
0	6627	1157.332903722557	2
0	6630	1158.946650722228	1
0	6635	1159.183049314593	0
0	6684	1174.64882809233	1
0	6685	1174.989770200276	0
0	6704	1180.297050610004	1
0	6706	1181.778642630009	2
0	6707	1181.924637678302	1
0	6712	1182.027921833564	0
0	6723	1182.883858785033	1
0	6724	1183.110733322382	0
0	6753	1190.252881967851	1
0	6755	1190.930493010307	2
0	6758	1191.106928108749	3
0	6760	1191.690072946769	2
0	6767	1193.147322082073	1
0	6772	1193.269830415132	0
0	6789	1196.421112713803	1
0	6790	1196.559551474689	0
0	6809	1199.2171858101	1
0	6814	1200.323321039956	0
0	6834	1202.212385726792	1
0	6835	1202.381760290569	0
0	6850	1203.108442463791	1
0	6854	1206.808569861959	0
0	6884	1211.810795324152	1
0	6885	1211.860255916571	0
0	6931	1217.452689904394	1
0	6933	1217.823492309543	2
0	6935	1217.870514012871	3
0	6938	1218.427952196857	4
0	6939	1218.731051552145	3
0	6944	1218.775176702678	2
0	6949	1218.787725587567	1
0	6955	1219.703913585633	2
0	6956	1220.082429521121	1
0	6961	1220.627777685564	0
0	6983	1223.283094860029	1
0	6986	1224.299525290405	2
0	6987	1225.792686018103	1
0	6993	1227.18642570326	0
0	7017	1232.115940733579	1
0	7019	1232.371443702546	2
0	7021	1233.260463504245	3
0	7023	1233.333095779989	2
0	7028	1233.614169719757	1
0	7033	1235.978305406001	0
0	7037	1236.217826577571	1
0	7041	1238.357520327805	2
0	7043	1238.417615869732	3
0	7047	1239.476941748981	2
0	7052	1241.835415040212	1
0	7057	1243.152587925585	0
0	7077	1246.313417833174	1
0	7078	1247.240594074883	0
0	7096	1250.356983803054	1
0	7100	1251.559863171767	0
0	7122	1255.525790738797	1
0	7123	1255.554548886614	0
0	7133	1257.812991353426	1
0	7134	1258.727995163453	0
0	7179	1261.206513935112	1
0	7181	1262.06229690391	0
0	7198	1267.022274889615	1
0	7201	1268.298320819713	2
0	7206	1269.296434864671	1
0	7211	1269.455987240159	0
0	7227	1270.721921850436	1
0	7229	1271.305069859387	0
0	7266	1276.121327159267	1
0	7267	1276.61772292885	0
0	7282	1277.933933764426	1
0	7283	1278.802007238606	0
0	7313	1282.267818287582	1
0	7315	1282.674897643181	0
0	7322	1283.301120739958	1
0	7328	1286.692078854303	0
0	7341	1289.721864039162	1
0	7342	1290.44920585119	0
0	7356	1291.633088656689	1
0	7357	1291.921995171504	0
0	7363	1292.504567527285	1
0	7364	1292.685057367013	0
0	7385	1296.809890413624	1
0	7386	1297.523199289316	0
0	7421	1309.642439874853	1
0	7422	1309.862918042023	0
0	7438	1311.147242408161	1
0	7439	1311.972388138101	0
0	7447	1313.684732382639	1
0	7448	1314.261901118851	0
0	7456	1315.212541398345	1
0	7459	1315.579458247012	2
0	7460	1316.137380639029	1
0	7467	1316.374964709021	0
0	7473	1316.60281177508	1
0	7476	1316.960639693441	0
0	7484	1317.163119618964	1
0	7486	1317.437683039409	0
0	7497	1318.357682747589	1
0	7500	1319.032795813809	0
0	7513	1320.867740612279	1
0	7515	1323.057537596113	2
0	7516	1323.48742647926	1
0	7521	1325.072792183887	0
0	7525	1325.575268110049	1
0	7532	1326.994001458451	2
0	7535	1327.677322103903	3
0	7537	1328.000562759592	4
0	7538	1328.639700689832	3
0	7544	1328.803360749792	4
0	7545	1329.107657841195	3
0	7552	1330.018901800125	4
0	7553	1331.040366095484	3
0	7558	1331.280315289247	2
0	7564	1333.003343155578	1
0	7570	1334.129858158844	2
0	7571	1334.36304592675	1
0	7575	1334.481268094379	2
0	7582	1337.052721840151	1
0	7587	1337.402245370784	0
0	7593	1338.030755426053	1
0	7595	1338.150629991043	2
0	7596	1338.23981758291	1
0	7600	1339.748605682555	2
0	7604	1340.621917425897	3
0	7605	1340.893686701701	2
0	7609	1341.743854094681	3
0	7613	1343.069850459409	4
0	7615	1343.415024292465	5
0	7616	1343.422451871619	4
0	7620	1343.623880977605	5
0	7626	1344.989792912056	4
0	7631	1346.258576334552	3
0	7639	1347.888223732463	4
0	7640	1348.194603457679	3
0	7645	1348.229668407013	2
0	7650	1348.616836206715	1
0	7658	1349.445832591611	2
0	7659	1349.615386174643	1
0	7663	1351.614947990957	2
0	7665	1351.757462815788	3
0	7669	1352.963547793101	4
0	7671	1353.024290020699	5
0	7673	1353.522509504439	6
0	7676	1356.06451696276	7
0	7678	1356.531950508495	8
0	7680	1356.868583592066	7
0	7685	1357.711886919928	6
0	7691	1357.800072728188	7
0	7692	1358.096866826406	6
0	7698	1359.354734976552	5
0	7704	1359.431384130517	6
0	7705	1359.500628699371	5
0	7711	1361.569132469134	6
0	7712	1362.083997993777	5
0	7717	1362.873528877729	4
0	7723	1364.219847719821	5
0	7726	1365.289553540606	4
0	7730	1365.407820541099	5
0	7733	1367.526232626432	4
0	7741	1371.391142915009	5
0	7743	1371.638125703024	6
0	7744	1371.913249568018	5
0	7749	1373.703100025054	4
0	7753	1374.003799464859	5
0	7757	1375.364588396086	6
0	7761	1376.795594437155	7
0	7766	1377.55931677654	6
0	7770	1377.813208438211	7
0	7774	1377.929253977516	8
0	7775	1379.25491351099	7
0	7781	1379.729169458272	6
0	7787	1380.668236538606	7
0	7788	1381.710942854712	6
0	7792	1381.927111652293	7
0	7795	1382.184656538139	6
0	7800	1382.546363229807	5
0	7805	1382.962002055826	4
0	7809	1384.724188802398	5
0	7812	1384.89474750513	4
0	7816	1384.916629521663	5
0	7819	1386.452092807473	4
0	7823	1387.104366369955	5
0	7829	1388.878809989888	6
0	7831	1390.563340201265	7
0	7836	1391.947481674862	8
0	7837	1391.981470615251	7
0	7842	1392.876684390019	6
0	7847	1394.5793049264	5
0	7851	1396.023577367591	6
0	7854	1396.32181332315	5
0	7860	1396.634925400063	4
0	7866	1398.00999350209	3
0	7871	1398.22179313741	2
0	7876	1399.630938166187	1
0	7883	1401.620480776472	2
0	7884	1402.138798591558	1
0	7890	1402.89663648994	2
0	7892	1403.260834370258	3
0	7894	1403.716444690531	2
0	7900	1403.878532861233	3
0	7904	1404.269873180221	4
0	7907	1404.620900865547	3
0	7913	1405.520559323305	4
0	7917	1405.929140536663	5
0	7919	1406.515124553275	6
0	7921	1406.679706888215	7
0	7922	1406.87898534181	6
0	7927	1410.525253058775	5
0	7932	1411.11621250771	4
0	7938	1411.279818207865	5
0	7940	1412.126552608855	4
0	7946	1413.572949459584	3
0	7951	1413.686677257068	2
0	7957	1414.053003952272	3
0	7958	1414.104396963588	2
0	7962	1414.510050922994	3
0	7964	1415.024240947511	4
0	7966	1415.700845368397	5
0	7976	1425.108549394449	4
0	7983	1425.604106445185	3
0	7988	1428.379506737608	2
0	7992	1428.632177466687	3
0	7994	1428.920391582074	4
0	7996	1429.214213078561	5
0	7998	1429.405333596852	6
0	8002	1430.32547456442	7
0	8004	1430.58464035378	8
0	8005	1431.388785238622	7
0	8012	1431.778021786531	8
0	8013	1432.234889955864	7
0	8020	1433.320772727466	8
0	8021	1434.099071983506	7
0	8026	1434.316908312934	6
0	8031	1437.095772003083	5
0	8039	1438.236383370892	4
0	8045	1438.499842424796	3
0	8051	1438.787732812485	2
0	8056	1438.874455413095	1
0	8062	1439.997362965431	0
0	8073	1440.412392493289	1
0	8075	1440.660062592187	0
0	8102	1444.683599724101	1
0	8104	1444.776621091266	2
0	8105	1445.175782720544	1
0	8112	1445.980064226901	0
0	8135	1448.806335751205	1
0	8136	1449.205280459927	0
0	8144	1449.426203761249	1
0	8148	1451.896019730402	0
0	8164	1453.509518025934	1
0	8166	1454.030290559214	2
0	8172	1454.847139742636	3
0	8173	1454.942147793191	2
0	8179	1455.109674523592	3
0	8180	1455.950687907826	2
0	8186	1456.316636742949	1
0	8192	1456.485449061665	2
0	8193	1456.6341872114	1
0	8198	1457.080883320404	0
0	8217	1459.400902193478	1
0	8218	1459.664510544296	0
0	8317	1479.166869453653	1
0	8321	1479.90907021506	0
0	8342	1481.001410409249	1
0	8345	1481.344737983041	0
0	8358	1483.005572417821	1
0	8360	1483.262604373283	2
0	8363	1485.982309937472	1
0	8368	1486.087850370355	0
0	8383	1488.972307052856	1
0	8387	1490.859454069146	2
0	8391	1492.927338053309	1
0	8397	1493.234918452459	2
0	8398	1493.250024475472	1
0	8403	1493.659805965661	0
0	8426	1497.712715327507	1
0	8428	1498.010338774113	0
0	8441	1498.408676527825	1
0	8443	1498.781163792832	2
0	8444	1498.987303279717	1
0	8454	1501.711481943691	0
0	8490	1504.839024173529	1
0	8492	1505.582623943907	2
0	8493	1506.134107885568	1
0	8498	1507.233915475671	0
0	8507	1507.741955261454	1
0	8510	1508.475376504317	0
0	8520	1511.063458311173	1
0	8524	1511.913255366421	2
0	8526	1512.608154201244	3
0	8532	1514.518247026511	4
0	8535	1516.502430147785	3
0	8541	1516.702461380596	4
0	8542	1517.033548864977	3
0	8547	1517.061313042012	2
0	8551	1517.837239864613	3
0	8556	1519.198124742453	2
0	8563	1519.827225020477	1
0	8567	1520.021512767818	2
0	8571	1520.188915978727	3
0	8572	1520.721584355764	2
0	8581	1522.004982333392	3
0	8584	1522.294559861969	4
0	8586	1523.097799861294	5
0	8587	1523.1115446996	4
0	8592	1523.115316183164	3
0	8597	1523.364550754531	2
0	8601	1523.962551904327	3
0	8603	1524.159234986667	4
0	8606	1525.065976945457	3
0	8610	1525.612569142952	4
0	8613	1525.729470291085	3
0	8619	1529.014675756787	4
0	8626	1530.574846021593	5
0	8628	1531.127348151221	4
0	8635	1532.277551739049	3
0	8641	1532.931260938149	2
0	8647	1532.973678752778	3
0	8649	1532.993148475384	4
0	8653	1533.663889914475	5
0	8655	1534.62535156029	4
0	8660	1534.938144299223	3
0	8665	1536.281796646036	2
0	8674	1539.347752873234	3
0	8675	1539.510320940157	2
0	8681	1539.550700561479	3
0	8682	1542.443328164584	2
0	8689	1543.220602526297	1
0	8693	1543.365819693827	2
0	8696	1544.110021460313	1
0	8703	1544.98793193065	0
0	8732	1546.890876109318	1
0	8734	1547.450771384793	0
0	8754	1549.282341368582	1
0	8756	1549.401244828617	2
0	8762	1550.759629253148	3
0	8765	1551.720452978532	2
0	8771	1552.219515353558	1
0	8776	1552.268884891536	0
0	8784	1553.650488154894	1
0	8786	1553.925308327261	0
0	8794	1554.45360853809	1
0	8799	1555.754610292322	2
0	8801	1556.345757974798	3
0	8803	1556.684455593587	4
0	8806	1558.014017453763	3
0	8812	1558.719007500893	2
0	8819	1560.065869870322	1
0	8825	1560.241217908615	2
0	8826	1561.25516114476	1
0	8831	1562.59869171476	0
0	8850	1567.325878803825	1
0	8853	1568.818095360622	0
0	8882	1570.38628003936	1
0	8888	1571.349253001402	2
0	8890	1571.901484826315	1
0	8895	1573.362710808031	0
0	8917	1574.559977521473	1
0	8919	1574.644766784838	2
0	8920	1575.063225584522	1
0	8925	1575.384693315276	0
0	8934	1578.361767128794	1
0	8935	1578.446432061507	0
0	8949	1579.85821520211	1
0	8950	1579.891406737021	0
0	8954	1579.940880390015	1
0	8956	1581.294960786397	2
0	8962	1581.866289758106	3
0	8963	1582.148510698294	2
0	8969	1583.454020490578	1
0	8974	1583.495816480799	0
0	8978	1584.234552591071	1
0	8980	1584.954047871123	2
0	8982	1585.306904653263	3
0	8984	1587.50882481464	4
0	8988	1588.144820934821	5
0	8991	1588.651376158712	4
0	8995	1588.768331550718	5
0	9000	1589.743290934831	4
0	9006	1591.059900515176	3
0	9012	1591.368950941004	2
0	9017	1591.511273821349	1
0	9025	1592.841502171946	0
0	9031	1592.86882975248	1
0	9032	1593.167328835119	0
0	9043	1593.957197570545	1
0	9046	1594.315461398382	2
0	9047	1594.392316899682	1
0	9051	1595.144985787191	2
0	9053	1595.372274176305	3
0	9059	1598.68885921382	2
0	9065	1598.931584127652	3
0	9066	1599.836691279661	2
0	9071	1599.973040183367	1
0	9077	1600.526519518988	0
0	9117	1604.74756475517	1
0	9122	1605.522198372061	0
0	9153	1610.207675860054	1
0	9155	1611.156790210038	0
0	9331	1645.493792085671	1
0	9333	1647.24359976243	0
0	9350	1650.25041941657	1
0	9352	1650.278285155437	2
0	9355	1650.572403753711	1
0	9361	1650.715776698792	2
0	9363	1652.455234030748	1
0	9368	1652.973167459329	0
0	9374	1653.467528566341	1
0	9376	1653.952661607095	2
0	9377	1655.188600107223	1
0	9382	1655.196032204584	0
0	9425	1665.953818139053	1
0	9429	1667.266550095694	2
0	9430	1667.703013348675	1
0	9435	1667.725620773051	0
0	9441	1669.635854017214	1
0	9443	1669.866044051809	2
0	9444	1670.029611444216	1
0	9449	1670.15704034907	0
0	9492	1677.899183444787	1
0	9493	1677.90714554203	0
0	9509	1679.573550446855	1
0	9510	1679.618147258396	0
0	9516	1680.245436061481	1
0	9517	1680.964437015368	0
0	9547	1688.44824535607	1
0	9549	1688.916721662143	2
0	9550	1688.990977846572	1
0	9556	1689.182370851888	2
0	9558	1689.27291975019	3
0	9560	1690.046482895271	4
0	9561	1690.161038489357	3
0	9567	1691.077483702615	2
0	9573	1693.739119050542	1
0	9580	1693.870667423038	2
0	9582	1694.291057571213	3
0	9584	1695.941331137814	4
0	9585	1696.855424434439	3
0	9592	1697.263750631619	4
0	9593	1697.543484686028	3
0	9599	1697.807040480275	4
0	9600	1697.875470909918	3
0	9608	1698.935249768631	4
0	9610	1699.144511500576	5
0	9611	1699.191829330623	4
0	9615	1700.284395108098	5
0	9620	1702.87020091761	4
0	9628	1704.699784124306	3
0	9633	1706.514418086527	2
0	9644	1709.129708603412	3
0	9645	1709.227509530875	2
0	9652	1710.115041976253	1
0	9657	1710.494898400879	0
0	9673	1711.100115578978	1
0	9675	1712.338862389436	0
0	9681	1712.446504185772	1
0	9682	1712.620883944567	0
0	9695	1714.022800573357	1
0	9697	1714.051449455008	0
0	9796	1738.223515084492	1
0	9800	1739.450306872087	2
0	9801	1739.58919461218	1
0	9809	1739.620581624137	2
0	9812	1740.454664780673	1
0	9818	1741.425924114581	0
0	9824	1742.143636507032	1
0	9826	1743.273183974336	0
0	9834	1745.2463081563	1
0	9836	1745.899961933353	2
0	9839	1746.251841872436	1
0	9844	1747.340788414565	0
0	9850	1747.42785138312	1
0	9853	1747.80052104465	0
0	9857	1749.54300205803	1
0	9859	1749.584400777658	2
0	9863	1750.218172617285	3
0	9865	1750.428299865151	4
0	9870	1751.354479123866	3
0	9877	1753.023289235093	2
0	9884	1754.36600571487	3
0	9886	1754.483290973557	4
0	9887	1754.619683047434	3
0	9893	1754.971046543463	2
0	9901	1755.454353509345	3
0	9902	1756.940257704231	2
0	9906	1758.138056684451	3
0	9913	1760.626974027567	2
0	9918	1761.919553179873	1
0	9923	1761.99634755311	0
0	9927	1762.02321608765	1
0	9931	1762.412456038307	2
0	9935	1763.200355219055	3
0	9938	1764.036892531128	2
0	9944	1765.510326495954	3
0	9947	1766.46741427455	4
0	9948	1767.2054410094	3
0	9954	1767.684133218228	2
0	9959	1767.899064400627	1
0	9967	1769.30853641243	0
0	10004	1770.431283756703	1
0	10005	1770.507964378965	0
0	10009	1770.846426483401	1
0	10011	1770.855986049573	2
0	10019	1774.397149201279	3
0	10020	1774.572797890451	2
0	10028	1775.941473207048	1
0	10034	1776.716726926137	2
0	10036	1776.97791627415	3
0	10039	1777.648921707475	2
0	10043	1778.471464219396	3
0	10046	1780.240211046636	2
0	10052	1781.344922765093	3
0	10053	1781.424452696012	2
0	10057	1781.716642870989	3
0	10059	1781.777349479434	4
0	10061	1782.3761859612	5
0	10064	1784.734903148379	4
0	10068	1784.78857349471	5
0	10071	1787.809879372922	4
0	10077	1788.188963773594	5
0	10079	1788.216719284008	6
0	10082	1788.59208693059	5
0	10092	1791.208827990125	4
0	10098	1793.105489003624	3
0	10105	1793.430167171916	4
0	10106	1793.864326644598	3
0	10112	1796.356521615641	4
0	10113	1796.413794573518	3
0	10117	1796.768339294491	4
0	10121	1796.844542162221	5
0	10127	1798.581455005878	6
0	10130	1800.140897791415	7
0	10131	1800.312808837351	6
0	10136	1800.830803176563	5
0	10142	1802.145232992057	6
0	10144	1803.650328846142	7
0	10145	1803.6740813387	6
0	10151	1803.744986756905	7
0	10152	1804.487173332028	6
0	10157	1804.756844033014	5
0	10162	1805.875766718392	4
0	10168	1808.55107774408	5
0	10169	1810.555879193261	4
0	10173	1811.109149446032	5
0	10180	1811.856249994783	4
0	10187	1812.980370794617	3
0	10194	1813.802530152166	2
0	10200	1814.951044131127	3
0	10201	1815.473364531806	2
0	10207	1816.865593712036	1
0	10213	1817.086853745723	2
0	10215	1817.800647639165	3
0	10216	1817.845946468108	2
0	10220	1818.04660651602	3
0	10226	1819.489093696917	2
0	10231	1819.561741540919	1
0	10237	1819.697275012537	2
0	10239	1821.647165950728	1
0	10245	1822.09913413233	0
0	10261	1823.524375239705	1
0	10263	1824.357004190328	0
0	10278	1825.610082093677	1
0	10281	1825.677494022223	2
0	10285	1826.405631061697	1
0	10291	1826.463496545479	2
0	10293	1827.013060361166	3
0	10294	1827.338638454408	2
0	10300	1828.536281578147	1
0	10305	1829.194405008421	0
0	10316	1829.890787097012	1
0	10317	1830.022707554849	0
0	10323	1830.644696043142	1
0	10325	1831.475881422567	0
0	10335	1833.691939655475	1
0	10336	1833.69379607563	0
0	10364	1836.266955637378	1
0	10365	1836.318214084929	0
0	10371	1836.333128820681	1
0	10373	1837.992307325777	0
0	10386	1841.996461860957	1
0	10387	1842.036334586774	0
0	10411	1844.08551403766	1
0	10414	1844.567270916483	0
0	10420	1845.136822677273	1
0	10421	1845.248146492812	0
0	10433	1846.314403080883	1
0	10435	1847.566492153273	0
0	10476	1855.655757759504	1
0	10477	1856.177199841014	0
0	10500	1859.165032276002	1
0	10503	1861.428160661041	0
0	10513	1861.773044015696	1
0	10517	1862.103125523539	2
0	10519	1862.582577242699	3
0	10522	1863.226490991879	2
0	10527	1864.153110487849	1
0	10534	1864.426141850594	0
0	10542	1864.836448844093	1
0	10544	1864.957384137937	0
0	10548	1865.085155600274	1
0	10552	1867.534331084877	0
0	10559	1868.349796944634	1
0	10563	1869.124764870383	0
0	10585	1871.358001112164	1
0	10587	1871.904663204349	2
0	10592	1872.60343568697	3
0	10593	1873.285898775296	2
0	10599	1874.576772120456	3
0	10602	1875.231756921245	2
0	10612	1877.169440865971	3
0	10613	1877.319965700416	2
0	10619	1877.718015971715	1
0	10629	1879.135192676757	0
0	10645	1881.515927567912	1
0	10647	1881.699912282976	2
0	10648	1882.239166842718	1
0	10653	1882.312598312317	0
0	10688	1885.316716260924	1
0	10689	1885.756432668599	0
0	10698	1886.608706120074	1
0	10700	1886.696158137088	2
0	10701	1887.056135427911	1
0	10709	1888.378831246233	0
0	10715	1888.862804638264	1
0	10717	1889.214171948587	2
0	10718	1889.271856370478	1
0	10723	1889.795173328613	0
0	10741	1891.072097680179	1
0	10742	1891.131963707618	0
0	10762	1894.213967960426	1
0	10763	1894.298850736257	0
0	10772	1895.076216072241	1
0	10773	1895.17132121419	0
0	10786	1896.877049729777	1
0	10787	1897.042775353219	0
0	10810	1898.92870792643	1
0	10813	1900.207220639641	0
0	10853	1908.163502050536	1
0	10856	1912.420344092655	0
0	10863	1914.253786159774	1
0	10865	1914.754180298629	0
0	10890	1922.003565717128	1
0	10893	1923.413727857194	0
0	10899	1923.538824440857	1
0	10901	1924.057817763239	0
0	10932	1928.257480577107	1
0	10934	1928.286020709048	2
0	10936	1928.772237177011	3
0	10942	1930.462469406787	2
0	10947	1930.495256195844	1
0	10953	1930.662445238844	2
0	10954	1930.890204232954	1
0	10960	1931.886939682002	2
0	10961	1932.041804620939	1
0	10970	1933.139734249048	2
0	10972	1933.48916787563	3
0	10974	1933.520818058019	4
0	10975	1933.727156988248	3
0	10982	1935.162351469169	2
0	10992	1936.798868977342	3
0	10994	1939.524026888899	2
0	10999	1939.710706001716	1
0	11004	1939.90909958347	0
0	11008	1940.070087725393	1
0	11013	1941.427465118703	0
0	11032	1944.115367695626	1
0	11036	1945.034439503164	0
0	11042	1945.160199119603	1
0	11044	1945.249748162436	2
0	11045	1947.350266994273	1
0	11051	1947.427808038036	2
0	11052	1947.946088431546	1
0	11057	1948.681505124873	0
0	11061	1950.614482074967	1
0	11066	1951.911113843195	2
0	11067	1952.255075525133	1
0	11072	1953.062529306339	0
0	11097	1960.131517114109	1
0	11098	1960.43817834474	0
0	11152	1965.347128633727	1
0	11156	1966.619022871638	0
0	11162	1966.630853577638	1
0	11164	1966.818667365961	0
0	11172	1968.381342784387	1
0	11173	1968.414494030225	0
0	11241	1980.638460056206	1
0	11242	1981.128963945888	0
0	11264	1984.559094779679	1
0	11265	1984.854991800923	0
0	11287	1988.620861748246	1
0	11289	1989.056817265822	2
0	11294	1990.088095953408	1
0	11298	1991.055457878814	2
0	11301	1991.629607968661	1
0	11305	1992.302075317081	2
0	11308	1992.984274323038	1
0	11312	1995.054319813409	2
0	11317	1995.384630359697	3
0	11320	1997.243652936944	2
0	11325	1997.332642653707	1
0	11330	1997.570152555943	0
0	11354	2001.371353485361	1
0	11355	2001.452465889656	0
0	11387	2010.040622805726	1
0	11390	2010.541115473161	0
0	11404	2011.111360261554	1
0	11405	2011.596340379715	0
0	11438	2019.986622801254	1
0	11441	2020.628048156398	2
0	11442	2020.81066253609	1
0	11447	2021.368123816673	0
0	11477	2027.007285095383	1
0	11478	2027.32765236227	0
0	11503	2031.349074654618	1
0	11505	2031.471872387014	2
0	11508	2032.42146972777	1
0	11513	2033.212176742203	0
0	11521	2038.188512369108	1
0	11524	2038.641172499422	0
0	11528	2039.22582420985	1
0	11530	2040.086280702114	2
0	11535	2041.371593601345	3
0	11536	2041.943899805707	2
0	11541	2042.054514110691	1
0	11551	2043.294358927113	0
0	11577	2046.771941583216	1
0	11578	2046.789531885467	0
0	11592	2048.686448563424	1
0	11594	2049.256785023415	2
0	11595	2049.67715883936	1
0	11601	2049.913697223811	2
0	11606	2050.495265786957	3
0	11608	2051.80199118889	2
0	11613	2052.052480329222	1
0	11619	2052.413362216355	2
0	11621	2052.870974072241	3
0	11623	2054.057612661807	4
0	11626	2055.121099465636	3
0	11633	2056.212370700093	2
0	11638	2056.983496350773	1
0	11643	2057.189181800208	0
0	11662	2058.53673077174	1
0	11664	2059.331939730879	0
0	11670	2059.359177563904	1
0	11671	2059.462556559674	0
0	11698	2061.686391290379	1
0	11701	2062.03375001147	2
0	11702	2063.625185633339	1
0	11707	2064.338346691867	0
0	11726	2066.45933346133	1
0	11728	2067.079807714601	2
0	11732	2067.836007680645	3
0	11734	2068.876217439804	4
0	11737	2069.664293731741	3
0	11742	2070.361002991041	2
0	11746	2070.83390332529	3
0	11748	2071.954493788876	4
0	11752	2075.422588770796	3
0	11758	2075.578236425468	4
0	11760	2076.297148276789	3
0	11767	2077.181422353482	2
0	11772	2077.880029886276	1
0	11778	2079.175284641501	2
0	11782	2079.608009106239	3
0	11785	2079.745139589936	2
0	11789	2080.221064886161	3
0	11791	2080.528581556852	4
0	11794	2080.896386786722	3
0	11802	2083.129849645419	4
0	11804	2085.66233607231	5
0	11806	2085.918495292916	6
0	11812	2087.348370004751	5
0	11817	2088.533084150664	4
0	11822	2089.027362570895	3
0	11827	2089.739197028348	2
0	11833	2090.706074025347	1
0	11839	2091.469656740713	2
0	11840	2091.471845318421	1
0	11848	2094.583197985574	2
0	11851	2094.776556899547	1
0	11856	2095.562166849782	0
0	11860	2096.478901580033	1
0	11863	2098.284930915619	0
0	11867	2098.346501750612	1
0	11871	2099.008243171135	0
0	11889	2101.321410731324	1
0	11891	2101.873741809166	0
0	11902	2102.946431726968	1
0	11903	2103.007252912685	0
0	11934	2106.768829519426	1
0	11935	2106.909685176299	0
0	11961	2110.878529174222	1
0	11964	2112.033734173902	0
0	11988	2114.750739549152	1
0	11989	2114.819607868595	0
0	12013	2117.173484514177	1
0	12016	2117.614928676775	2
0	12017	2117.709466536279	1
0	12022	2117.921228970684	0
0	12028	2119.105750212381	1
0	12032	2120.133077763681	2
0	12034	2120.178338427483	3
0	12035	2120.41615245655	2
0	12041	2120.835268756838	3
0	12043	2122.689999560712	2
0	12049	2122.789968902763	3
0	12052	2123.458599792494	4
0	12053	2125.363737464055	3
0	12058	2125.841034556942	2
0	12065	2126.778523863476	1
0	12069	2127.363776670053	2
0	12073	2128.002384342386	1
0	12078	2128.479731399597	0
0	12082	2129.016813287264	1
0	12086	2129.532935820449	2
0	12089	2130.270432079453	1
0	12095	2130.713149142765	2
0	12096	2130.848395509498	1
0	12103	2131.56403465125	2
0	12107	2132.352356450347	3
0	12108	2132.573549863856	2
0	12114	2133.0143967441	1
0	12120	2134.09946833011	2
0	12124	2134.579465475864	3
0	12127	2135.346799474984	2
0	12132	2136.32185797922	1
0	12137	2137.819932273513	0
0	12141	2137.851935577333	1
0	12146	2139.167348369394	0
0	12182	2144.417013399489	1
0	12184	2144.672250287021	0
0	12208	2147.236937500118	1
0	12209	2147.671124779119	0
0	12240	2151.264484391583	1
0	12242	2151.335573143648	2
0	12243	2152.097046008119	1
0	12248	2152.334575001712	0
0	12270	2157.009640629087	1
0	12273	2158.411111053236	0
0	12287	2160.680656628713	1
0	12288	2161.318273428964	0
0	12297	2162.702241410398	1
0	12298	2163.775950605701	0
0	12341	2168.614290030607	1
0	12342	2168.863848267214	0
0	12350	2169.504681930541	1
0	12352	2169.99416125012	0
0	12375	2171.629833409822	1
0	12376	2171.68288464355	0
0	12382	2172.720057418617	1
0	12383	2173.323605352648	0
0	12407	2178.372527706618	1
0	12408	2178.836816003557	0
0	12419	2179.87873427713	1
0	12425	2181.847848263281	0
0	12462	2189.04687573731	1
0	12464	2189.21727544743	2
0	12465	2189.44603083678	1
0	12471	2189.756592124181	0
0	12484	2191.27390745864	1
0	12485	2191.430206865597	0
0	12491	2191.694190412791	1
0	12495	2193.493483674007	2
0	12497	2193.749699590408	3
0	12499	2194.653736235986	2
0	12504	2194.903226644167	1
0	12512	2195.91814408422	2
0	12516	2196.133775891096	3
0	12517	2196.237742959928	2
0	12522	2196.656908121352	1
0	12527	2197.144823133001	0
0	12546	2200.496922979536	1
0	12547	2201.206436240642	0
0	12591	2208.063841759038	1
0	12592	2208.251878350546	0
0	12596	2209.11991646468	1
0	12602	2211.200460888982	0
0	12606	2211.837453004446	1
0	12609	2212.494849204736	0
0	12613	2212.762220962259	1
0	12616	2213.470976685817	0
0	12638	2214.673493793652	1
0	12640	2215.022386127604	0
0	12672	2220.198903943019	1
0	12673	2220.546810736526	0
0	12684	2221.595928029592	1
0	12686	2221.604897372531	2
0	12688	2222.129957959079	3
0	12691	2223.943832098223	2
0	12696	2223.98038149573	1
0	12704	2224.243529790536	2
0	12705	2224.54046834836	1
0	12712	2226.861744853677	0
0	12748	2229.360801440652	1
0	12750	2229.42657714437	2
0	12751	2229.909928064446	1
0	12757	2229.946652589685	2
0	12759	2230.048238534771	1
0	12764	2230.12672180027	0
0	12791	2233.073000986461	1
0	12792	2233.276863391519	0
0	12822	2238.875201049218	1
0	12823	2239.175947873025	0
0	12839	2241.624045149705	1
0	12840	2241.726160569991	0
0	12879	2251.191455204565	1
0	12883	2251.539008891565	0
0	12894	2252.42822382964	1
0	12896	2252.862838878938	2
0	12899	2253.054782845205	3
0	12900	2253.728937318354	2
0	12905	2253.941142517967	1
0	12911	2254.144787810259	0
0	12919	2255.941140832911	1
0	12920	2255.941480865257	0
0	12944	2258.376956446556	1
0	12945	2258.635773929651	0
0	12969	2260.299898926089	1
0	12970	2260.724330917129	0
0	13010	2266.176716918625	1
0	13011	2266.311484530665	0
0	13088	2284.485884773313	1
0	13089	2284.641435165001	0
0	13097	2285.952087613062	1
0	13099	2285.969097857735	2
0	13101	2286.981149126628	1
0	13108	2287.898984723068	0
0	13134	2290.271249363628	1
0	13135	2290.695218589616	0
0	13167	2296.045113206524	1
0	13170	2296.759372658662	2
0	13171	2297.060469940528	1
0	13176	2297.670188048877	0
0	13191	2299.226938702493	1
0	13195	2301.085281978913	0
0	13220	2303.309357699619	1
0	13221	2303.331853044208	0
0	13231	2305.96840624871	1
0	13233	2306.038298367275	2
0	13235	2306.727267186598	1
0	13240	2307.550408636829	0
0	13266	2310.598179649998	1
0	13268	2311.228969962847	0
0	13291	2314.992011445355	1
0	13294	2316.101715716084	0
0	13333	2323.855433282902	1
0	13334	2325.174116421523	0
0	13357	2328.873607353947	1
0	13359	2329.596594930571	2
0	13360	2329.934707874015	1
0	13365	2329.945729503822	0
0	13388	2334.564251786942	1
0	13390	2334.653909282296	2
0	13392	2335.003260033239	3
0	13394	2337.740341083866	2
0	13400	2338.285742475059	3
0	13403	2338.583936127096	4
0	13405	2339.02185781098	5
0	13407	2339.034096043737	6
0	13408	2339.844035187219	5
0	13413	2341.492076370444	4
0	13418	2341.538627373565	3
0	13423	2342.346195499102	2
0	13429	2342.807505325992	1
0	13439	2343.985519885719	2
0	13441	2344.771473348151	3
0	13442	2345.685850827513	2
0	13450	2346.742815996425	1
0	13458	2347.361779006396	2
0	13460	2347.69539954235	3
0	13461	2348.320531362945	2
0	13466	2350.923379924885	1
0	13471	2351.548992437878	0
0	13486	2353.324735122186	1
0	13487	2353.428240004718	0
0	13491	2353.758189341932	1
0	13495	2355.564520636012	0
0	13509	2357.124258156517	1
0	13510	2357.606172476382	0
0	13587	2376.343595684484	1
0	13588	2377.201116535854	0
0	13620	2384.606681508983	1
0	13621	2384.716759334111	0
0	13665	2392.470488684891	1
0	13666	2392.548453660589	0
0	13672	2393.098241913743	1
0	13676	2394.434561893522	0
0	13691	2396.836869731693	1
0	13697	2397.443907025541	2
0	13699	2398.169757748425	3
0	13703	2398.824001923601	4
0	13705	2399.506460721063	3
0	13710	2400.18034672391	2
0	13715	2400.357347802287	1
0	13723	2401.891611283772	2
0	13724	2401.913189924371	1
0	13729	2402.223583940788	0
0	13751	2405.584978042016	1
0	13755	2407.471708692269	2
0	13757	2407.596504842718	3
0	13759	2407.675651667527	4
0	13763	2408.627359103669	5
0	13764	2408.672283676751	4
0	13770	2408.925864224695	5
0	13771	2408.950080921102	4
0	13778	2409.739796400805	3
0	13782	2409.793644374629	4
0	13784	2409.98764781371	5
0	13789	2411.630866559091	4
0	13794	2412.073937584893	3
0	13798	2412.325478321209	4
0	13800	2412.402726312663	5
0	13802	2412.45610157859	6
0	13806	2412.899725481321	7
0	13810	2413.015584530099	8
0	13812	2413.049640419013	9
0	13814	2413.461483197964	10
0	13816	2414.023332396384	11
0	13819	2414.953894904308	10
0	13825	2415.950330204137	9
0	13833	2417.383564962042	8
0	13839	2417.593466804981	9
0	13840	2418.046105243336	8
0	13845	2419.047638653542	7
0	13852	2420.173435707286	6
0	13858	2421.092209739561	7
0	13859	2421.105650379024	6
0	13865	2422.701808432708	7
0	13870	2423.474617138963	8
0	13871	2424.519969601811	7
0	13877	2424.523789440977	8
0	13882	2425.001182895624	9
0	13886	2425.728047426117	10
0	13887	2426.056567790861	9
0	13893	2426.556875037693	8
0	13902	2428.78171369746	7
0	13909	2429.353826798038	6
0	13914	2429.432026985997	5
0	13919	2429.443528096858	4
0	13923	2429.848319315252	5
0	13926	2430.543788137064	4
0	13934	2431.488894390488	3
0	13940	2432.333494112201	2
0	13945	2432.375382281451	1
0	13950	2433.007238211618	0
0	13954	2434.049447826705	1
0	13962	2437.321632089974	0
0	13989	2440.708520672721	1
0	13991	2441.188868837878	0
0	14015	2442.986686190447	1
0	14023	2445.108885184821	0
0	14048	2450.120086485213	1
0	14049	2451.293052718707	0
0	14055	2452.345035822743	1
0	14056	2452.553081455811	0
0	14072	2454.005580836603	1
0	14073	2454.45696273086	0
0	14092	2458.883748089193	1
0	14098	2461.099461547731	2
0	14100	2461.294600705475	3
0	14101	2461.599178035794	2
0	14106	2462.024693544113	1
0	14111	2463.072486108595	0
0	14130	2464.08384818107	1
0	14131	2464.716403667141	0
0	14146	2466.351224154646	1
0	14148	2466.835070831521	0
0	14159	2468.391201761323	1
0	14163	2471.741848970591	2
0	14171	2473.939647176342	3
0	14174	2474.346072741361	4
0	14177	2474.635193435811	5
0	14184	2477.04393428593	4
0	14189	2477.224629370636	3
0	14201	2479.557452398417	2
0	14206	2479.986532443797	1
0	14211	2480.940355596349	0
0	14217	2481.158178712575	1
0	14218	2481.328058010225	0
0	14224	2481.967246503101	1
0	14225	2482.349548939015	0
0	14258	2484.574403567333	1
0	14260	2484.617417487014	2
0	14261	2484.795898633513	1
0	14272	2488.831363787255	2
0	14273	2489.396675523143	1
0	14279	2490.628114074939	0
0	14285	2490.971199886032	1
0	14287	2491.722165264036	0
0	14293	2491.835485475694	1
0	14294	2491.863957458527	0
0	14314	2494.526078708874	1
0	14316	2494.784701649239	2
0	14328	2496.412729170215	1
0	14338	2498.384351220214	2
0	14339	2498.78782936546	1
0	14345	2499.333068381235	2
0	14346	2499.735074790803	1
0	14352	2500.216368039498	0
0	14358	2501.064537380579	1
0	14359	2501.111811309119	0
0	14464	2515.071306731	1
0	14465	2515.528952613559	0
0	14474	2517.02311380247	1
0	14475	2517.384028644597	0
0	14521	2527.114743324273	1
0	14522	2528.673247041491	0
0	14528	2528.733430830467	1
0	14529	2529.402463368252	0
0	14560	2534.472865905236	1
0	14561	2534.718892946678	0
0	14567	2534.860655269118	1
0	14568	2535.409302256097	0
0	14603	2541.279797712624	1
0	14605	2541.571621125691	2
0	14606	2541.597393035956	1
0	14612	2542.832337833948	2
0	14613	2543.96849301145	1
0	14619	2545.594464023404	0
0	14627	2546.689556759054	1
0	14628	2546.918155039547	0
0	14634	2547.064841046792	1
0	14636	2549.23969721829	2
0	14638	2551.532462401074	3
0	14640	2552.314830141742	4
0	14644	2553.903208219623	5
0	14645	2554.954464562317	4
0	14651	2557.073752215069	5
0	14653	2557.39658866522	6
0	14655	2557.820190606733	7
0	14657	2558.560643751761	8
0	14658	2559.571031928947	7
0	14665	2561.492960851982	6
0	14671	2561.695250481544	7
0	14675	2563.751699523532	6
0	14680	2565.407617704751	5
0	14685	2567.356178751089	4
0	14692	2569.336907534	3
0	14697	2571.043021109408	2
0	14703	2572.03883504217	1
0	14708	2572.088708987481	0
0	14734	2574.485169941261	1
0	14736	2575.590862753414	0
0	14799	2584.597991651291	1
0	14801	2586.563512908849	0
0	14819	2587.258465812249	1
0	14823	2589.404767837383	0
0	14835	2590.349182481547	1
0	14837	2591.164214694268	2
0	14839	2593.292821797859	1
0	14845	2593.988435976406	2
0	14847	2594.563643885012	3
0	14848	2594.812577064091	2
0	14853	2595.074088715443	1
0	14861	2595.892297768791	0
0	14874	2599.593002367007	1
0	14876	2599.903906121344	2
0	14877	2600.062700998301	1
0	14882	2600.58590898986	0
0	14897	2603.198495452035	1
0	14898	2603.296129341	0
0	14904	2603.787853622059	1
0	14905	2603.820547696877	0
0	14928	2607.847504116945	1
0	14930	2608.712734605279	0
0	14948	2611.517769527893	1
0	14949	2612.248756723524	0
0	14960	2612.84269001951	1
0	14961	2613.215053006045	0
0	15032	2626.28400509661	1
0	15038	2627.428103057242	2
0	15041	2627.712299953466	1
0	15049	2628.5903840386	0
0	15055	2628.651724525374	1
0	15057	2629.343564296875	2
0	15060	2630.322980272314	1
0	15064	2630.42374533518	2
0	15066	2630.647822883232	3
0	15070	2631.855570543906	4
0	15071	2631.912142755034	3
0	15075	2633.738793172689	4
0	15078	2634.841275068755	3
0	15083	2635.973230186902	2
0	15087	2636.490300641184	3
0	15090	2637.480073864325	2
0	15094	2637.492074188528	3
0	15104	2642.442757300043	2
0	15110	2642.496127413629	3
0	15112	2642.580458941629	4
0	15113	2642.601061016634	3
0	15118	2642.695472202916	2
0	15126	2643.687455209413	3
0	15127	2644.165213966892	2
0	15138	2645.053116913966	3
0	15140	2645.381460663571	2
0	15145	2645.804346340171	1
0	15153	2646.917505484745	0
0	15175	2648.663361344274	1
0	15181	2650.600769863793	2
0	15184	2651.902664157214	1
0	15191	2652.093273119945	2
0	15192	2652.496577944686	1
0	15201	2654.700026916658	2
0	15203	2655.003623007087	1
0	15209	2655.311409677484	2
0	15211	2656.688295656172	1
0	15216	2657.181716276018	0
0	15233	2659.018953743556	1
0	15235	2659.247225329536	2
0	15237	2659.401624889366	1
0	15243	2660.266299715662	0
0	15255	2661.165021926918	1
0	15257	2661.600263188674	0
0	15271	2663.473771776016	1
0	15272	2663.586265720172	0
0	15325	2670.2993654492	1
0	15329	2671.322295982115	2
0	15330	2672.193722260186	1
0	15336	2672.372237390498	2
0	15338	2674.863218813548	1
0	15345	2676.266417936762	0
0	15352	2677.848238011472	1
0	15354	2680.51291799755	0
0	15360	2681.013944068341	1
0	15361	2681.37103248878	0
0	15367	2682.31167645117	1
0	15368	2682.693174725125	0
0	15379	2683.359594444342	1
0	15383	2684.194574823522	2
0	15385	2684.785878014194	3
0	15386	2684.804934219748	2
0	15391	2685.518759914187	1
0	15396	2687.240887221264	0
0	15422	2692.485061587252	1
0	15425	2692.98499169896	0
0	15443	2694.875182054485	1
0	15445	2694.942556531307	2
0	15448	2695.419269492189	3
0	15452	2697.343564164383	4
0	15453	2697.406667631422	3
0	15458	2699.165492638443	2
0	15464	2699.31910602088	3
0	15465	2699.869178394866	2
0	15472	2701.29601648671	1
0	15477	2703.278607000297	0
0	15549	2725.373746924948	1
0	15551	2726.12199192115	0
0	15574	2729.624331793648	1
0	15575	2730.815282590876	0
0	15581	2731.020974377067	1
0	15584	2731.618794485737	0
0	15591	2732.186591303432	1
0	15592	2732.35610455729	0
0	15619	2735.88844547126	1
0	15623	2736.838150030589	2
0	15624	2737.370081841685	1
0	15630	2739.25906817693	2
0	15631	2740.050594522635	1
0	15636	2741.420796503391	0
0	15693	2754.837280440352	1
0	15695	2754.878142759898	2
0	15698	2755.431354654035	1
0	15702	2755.759835722337	2
0	15704	2757.093989205179	3
0	15708	2758.68194259191	2
0	15718	2759.697126068787	3
0	15719	2760.078095040582	2
0	15724	2760.312761841239	1
0	15729	2760.884777358649	0
0	15809	2772.264184450358	1
0	15810	2772.607068969814	0
0	15830	2776.230347836258	1
0	15832	2776.613793399566	2
0	15833	2776.647631720638	1
0	15838	2777.231605842439	0
0	15856	2781.141527236201	1
0	15858	2781.370889839168	2
0	15861	2781.789884694878	3
0	15863	2782.199121440321	4
0	15864	2783.083909695002	3
0	15869	2783.342476416045	2
0	15874	2784.333482412697	1
0	15881	2784.464753877234	0
0	15885	2784.466329833319	1
0	15888	2784.765584436975	0
0	15894	2785.863605940278	1
0	15897	2786.684638876052	2
0	15898	2787.041359561909	1
0	15904	2787.305698801115	0
0	15917	2788.36015163379	1
0	15918	2788.506026053748	0
0	15924	2789.354982193985	1
0	15925	2790.173386170043	0
0	15960	2796.833033331425	1
0	15962	2798.989198313666	0
0	16002	2809.38164916882	1
0	16003	2810.685206801004	0
0	16019	2814.737136916306	1
0	16020	2814.925165743864	0
0	16066	2822.855529364977	1
0	16068	2823.455742580925	2
0	16070	2824.651704482918	1
0	16077	2825.559835754971	0
0	16106	2826.826130449176	1
0	16110	2828.2751855496	0
0	16142	2839.452995112031	1
0	16143	2839.771816145026	0
0	16180	2850.76451447022	1
0	16182	2851.000248987976	2
0	16184	2851.712614619119	3
0	16185	2851.99535330383	2
0	16192	2853.074947133513	3
0	16193	2853.307232260971	2
0	16199	2856.762382104771	1
0	16204	2856.770290573012	0
0	16241	2865.021759273076	1
0	16242	2865.410393715169	0
0	16253	2865.470242713086	1
0	16256	2866.618556428278	0
0	16260	2866.920623055242	1
0	16264	2869.137181217543	2
0	16266	2869.240889986961	3
0	16269	2870.926198311025	2
0	16279	2872.248027811112	3
0	16281	2872.473032124137	4
0	16282	2873.012921587025	3
0	16287	2874.952965250656	2
0	16291	2877.005141271643	3
0	16295	2878.249280335567	4
0	16298	2878.590457102389	3
0	16307	2880.054955278444	2
0	16313	2880.898612967916	1
0	16323	2883.605711544833	0
0	16327	2884.639842594222	1
0	16330	2886.614711809393	0
0	16352	2890.447511292979	1
0	16353	2890.89581938835	0
0	16377	2893.466466935188	1
0	16379	2893.663556100048	2
0	16381	2894.008068281175	1
0	16387	2894.410361678336	0
0	16391	2894.940539344563	1
0	16394	2895.762414706363	0
0	16398	2896.759730774283	1
0	16401	2896.899589426011	0
0	16409	2897.664507055864	1
0	16414	2899.413910397392	0
0	16420	2899.785657489444	1
0	16421	2899.884325159581	0
0	16445	2902.772127958788	1
0	16446	2902.812030549775	0
0	16471	2908.38486575419	1
0	16473	2908.435160901684	2
0	16481	2910.364772229832	3
0	16482	2911.531636857435	2
0	16489	2912.630238879201	3
0	16490	2912.993967693626	2
0	16496	2913.72230383559	3
0	16498	2915.718280363858	2
0	16504	2915.812947113397	1
0	16509	2915.888787007918	0
0	16515	2915.896386209541	1
0	16516	2916.087878277451	0
0	16548	2922.904087827069	1
0	16549	2923.977471078009	0
0	16553	2924.069612602968	1
0	16556	2924.234603987814	0
0	16566	2929.006214103594	1
0	16568	2929.127673290519	2
0	16572	2929.661505188599	3
0	16575	2930.01764154382	2
0	16580	2930.586351787593	1
0	16585	2934.036850961795	0
0	16635	2941.448807042645	1
0	16636	2941.636523278471	0
0	16642	2942.447842557116	1
0	16643	2942.983268771419	0
0	16647	2943.816600129227	1
0	16655	2945.678184174627	2
0	16657	2945.709317399964	3
0	16659	2945.811677608406	4
0	16660	2945.967023974095	3
0	16671	2947.894752762385	4
0	16672	2948.694679308233	3
0	16677	2950.042976028885	2
0	16683	2951.823403128875	1
0	16690	2954.094570181968	0
0	16696	2954.422089861787	1
0	16699	2955.231787661911	2
0	16700	2955.344178810859	1
0	16705	2956.817442810159	0
0	16739	2962.49007183284	1
0	16742	2963.172698922162	0
0	16748	2965.71871672103	1
0	16749	2966.392269244518	0
0	16753	2967.011977737068	1
0	16756	2967.948879463568	0
0	16767	2968.533541440961	1
0	16769	2970.517452236504	0
0	16775	2970.823388660376	1
0	16778	2971.088788084393	2
0	16779	2971.67180349572	1
0	16788	2972.070338707909	2
0	16789	2972.122718400712	1
0	16795	2972.267863740912	0
0	16847	2979.844112736076	1
0	16848	2980.038086392524	0
0	16862	2981.616273902904	1
0	16864	2982.302032853315	0
0	16870	2982.660452576053	1
0	16872	2982.861320756438	2
0	16877	2983.671608621848	1
0	16882	2984.248406071318	0
0	16888	2985.048842130853	1
0	16890	2985.349481221846	2
0	16893	2985.970959142882	3
0	16898	2986.469866284232	2
0	16905	2987.005227181673	1
0	16910	2987.395927566079	0
0	16916	2987.920640087411	1
0	16917	2987.979017498897	0
0	16967	2992.756946538515	1
0	16972	2993.830232526692	0
0	16982	2994.5008843769	1
0	16984	2994.645099067125	2
0	16986	2994.760960129113	3
0	16987	2995.389514283911	2
0	16991	2996.130481808918	3
0	16994	2996.420305861007	2
0	17001	2997.851338205937	1
0	17007	2998.056834313992	2
0	17010	2998.361813583008	3
0	17012	2999.637649319216	4
0	17013	2999.843593843103	3
0	17018	3000.317463778567	2
0	17023	3001.207268617316	1
0	17027	3001.420565270182	2
0	17031	3002.992527008291	3
0	17034	3004.154100088929	2
0	17039	3004.869140363191	1
0	17045	3006.441098987828	2
0	17048	3006.65037671471	1
0	17053	3008.805453156946	0
0	17059	3009.712160606087	1
0	17062	3010.089897657371	0
0	17073	3010.313065304118	1
0	17074	3010.461213434822	0
0	17083	3012.374585752575	1
0	17085	3012.462751861169	2
0	17089	3013.178141826445	1
0	17095	3013.930254621193	0
0	17102	3014.163321848243	1
0	17103	3014.565526535074	0
0	17123	3016.708749449201	1
0	17124	3016.777237496449	0
0	17140	3017.622757987618	1
0	17141	3018.001586761987	0
0	17145	3019.381343286039	1
0	17148	3020.394643059157	0
0	17152	3020.882592315997	1
0	17156	3024.249050730586	2
0	17160	3026.578901854735	1
0	17165	3026.654438303077	0
0	17169	3027.403353141125	1
0	17174	3029.019092297543	2
0	17178	3029.850264196152	1
0	17183	3030.064201011505	0
0	17196	3030.792118819777	1
0	17197	3031.304731114371	0
0	17219	3032.303413398119	1
0	17223	3034.029084246925	0
0	17238	3037.531694241409	1
0	17242	3040.156589588973	2
0	17246	3041.647845383186	1
0	17259	3042.764017132638	2
0	17260	3043.654685814086	1
0	17265	3043.742745648606	0
0	17276	3044.102393663618	1
0	17278	3044.43004034878	0
0	17292	3046.120134992641	1
0	17298	3047.336547947447	2
0	17300	3047.406953007184	3
0	17302	3047.595512782786	4
0	17303	3048.016172635454	3
0	17308	3048.202614358922	2
0	17316	3050.587775166229	3
0	17317	3050.977530418491	2
0	17323	3053.446881925462	1
0	17328	3053.672390231027	0
0	17339	3053.74844145813	1
0	17343	3055.21709989593	2
0	17344	3055.973942385332	1
0	17349	3056.351675260746	0
0	17361	3057.966673283689	1
0	17362	3058.247613140291	0
0	17439	3072.438901899526	1
0	17441	3072.48900217534	2
0	17442	3073.119318934399	1
0	17449	3075.626386874524	0
0	17462	3076.294605170614	1
0	17463	3077.182051476109	0
0	17493	3085.797205145855	1
0	17495	3086.078329110943	2
0	17497	3086.658447566166	1
0	17504	3087.032981455404	0
0	17540	3093.798767593013	1
0	17541	3094.071801184855	0
0	17566	3098.791316768958	1
0	17567	3099.41903655875	0
0	17573	3100.075805854349	1
0	17574	3100.114506580506	0
0	17588	3100.739094631756	1
0	17590	3101.039050237195	0
0	17608	3107.792190536514	1
0	17610	3108.094925326642	2
0	17612	3108.626707625	3
0	17615	3110.287119404101	2
0	17621	3110.558605134301	1
0	17626	3110.703955569795	0
0	17658	3117.818364127715	1
0	17659	3118.238341565126	0
0	17665	3118.844005278477	1
0	17666	3119.05929377605	0
0	17681	3120.772773102481	1
0	17682	3120.922911135242	0
0	17686	3121.075407935772	1
0	17690	3121.452042306558	2
0	17691	3121.498323323068	1
0	17695	3122.328136727988	2
0	17699	3122.81737875196	3
0	17700	3123.015129749573	2
0	17705	3123.655329486887	1
0	17714	3127.021634490647	0
0	17739	3129.837475054217	1
0	17741	3130.909830394011	0
0	17764	3136.141039316704	1
0	17766	3136.458126306158	2
0	17767	3136.510211511566	1
0	17772	3136.914689490589	0
0	17788	3138.839561535653	1
0	17790	3139.009667158223	0
0	17833	3147.251613388923	1
0	17834	3147.791720251854	0
0	17855	3148.541629202172	1
0	17856	3149.257272064923	0
0	17872	3150.078331591238	1
0	17874	3150.277753446453	0
0	17914	3156.897451904884	1
0	17916	3158.210928070251	0
0	17929	3158.684246135797	1
0	17930	3158.995988917714	0
0	17943	3161.580179522381	1
0	17957	3164.904212913753	2
0	17959	3164.949467538517	1
0	17965	3165.71781043951	0
0	18019	3173.428054052054	1
0	18021	3173.673442738188	0
0	18044	3176.277332973223	1
0	18047	3177.894429753366	0
0	18082	3185.887010436234	1
0	18083	3186.180178530672	0
0	18122	3191.767113668771	1
0	18123	3191.822638148077	0
0	18170	3200.456124495419	1
0	18172	3200.568186466282	2
0	18173	3200.876491954389	1
0	18181	3201.732000936997	0
0	18193	3203.429439677763	1
0	18194	3204.429344760291	0
0	18215	3206.218261796173	1
0	18218	3207.176188012857	2
0	18219	3207.780868771723	1
0	18226	3208.385620934581	0
0	18239	3210.074613307282	1
0	18242	3210.581940495325	0
0	18274	3223.083691278802	1
0	18275	3223.143148379537	0
0	18345	3237.062377042425	1
0	18346	3237.357768552888	0
0	18362	3240.188079920114	1
0	18368	3242.951566088665	2
0	18370	3243.575552342462	3
0	18371	3244.672570744952	2
0	18380	3246.849014539435	1
0	18388	3248.388812403076	0
0	18405	3248.953725993259	1
0	18406	3249.408584768894	0
0	18412	3249.973242999771	1
0	18416	3250.38390206348	0
0	18427	3251.103053752702	1
0	18431	3251.765034478684	0
0	18442	3252.684721891971	1
0	18443	3252.971223917314	0
0	18482	3260.213442478437	1
0	18483	3260.232158015309	0
0	18608	3282.75402031757	1
0	18611	3283.274560004705	2
0	18613	3283.45835417614	1
0	18618	3284.299306179397	0
0	18624	3284.31227241266	1
0	18626	3284.694962640523	2
0	18632	3286.818566001642	1
0	18637	3287.385591447983	0
0	18673	3293.112620710363	1
0	18674	3293.607567074876	0
0	18698	3296.128081100815	1
0	18700	3296.31972122612	0
0	18710	3296.937738363514	1
0	18712	3297.188186288754	2
0	18714	3297.400308269039	3
0	18715	3297.870341430441	2
0	18721	3298.108884062346	1
0	18726	3298.210399773904	0
0	18760	3301.277822585828	1
0	18765	3301.595442945716	0
0	18773	3301.801467600763	1
0	18776	3303.144798540203	2
0	18780	3303.803964674416	3
0	18782	3305.587695503897	2
0	18787	3305.73554180242	1
0	18795	3306.536311151328	0
0	18801	3306.727294387447	1
0	18802	3307.384358832803	0
0	18838	3310.090579807612	1
0	18839	3311.544780771233	0
0	18846	3312.403264025398	1
0	18848	3312.631249194477	0
0	18872	3315.840330929197	1
0	18874	3316.463375988939	0
0	18880	3316.583290789714	1
0	18883	3317.042039681463	2
0	18884	3317.629866378325	1
0	18889	3318.379270674303	0
0	18896	3318.789743821989	1
0	18897	3319.020600920768	0
0	18905	3319.133359233512	1
0	18906	3319.666950975012	0
0	18935	3322.344787725054	1
0	18936	3322.542162406381	0
0	18984	3330.049078901574	1
0	18985	3330.479072561678	0
0	19026	3336.298792536024	1
0	19027	3338.180268833194	0
0	19066	3341.261493376201	1
0	19068	3341.438506722073	2
0	19069	3341.58180758253	1
0	19077	3342.904481013315	2
0	19079	3342.909105541108	3
0	19082	3344.627044077072	2
0	19087	3344.830093197095	1
0	19092	3345.104341158915	0
0	19103	3345.567252056468	1
0	19104	3345.662236658982	0
0	19110	3346.336579451353	1
0	19113	3346.422942652206	0
0	19117	3346.472593693456	1
0	19123	3348.274544677419	0
0	19139	3348.937248812191	1
0	19142	3350.910654229222	0
0	19164	3353.020036699118	1
0	19165	3353.065144417481	0
0	19176	3353.191598959274	1
0	19177	3354.285604780861	0
0	19191	3355.842205971462	1
0	19196	3356.144656047922	0
0	19200	3357.141604625824	1
0	19202	3357.344380084419	2
0	19206	3358.614827907722	3
0	19209	3359.055141898326	4
0	19210	3359.149872154049	3
0	19216	3359.921660457615	4
0	19217	3360.390843340995	3
0	19221	3360.435941123457	4
0	19225	3361.465723938748	5
0	19227	3361.769192979762	6
0	19230	3362.186657036452	5
0	19236	3362.512148341744	6
0	19238	3363.038788401829	5
0	19246	3364.039923276112	6
0	19247	3364.361621114076	5
0	19254	3365.943886533239	4
0	19261	3366.663806862055	5
0	19262	3367.055282369721	4
0	19268	3367.290741786993	5
0	19270	3367.403135407106	6
0	19275	3368.661748960329	7
0	19276	3369.144281879352	6
0	19283	3371.107871890936	5
0	19289	3371.182755428606	4
0	19294	3371.221204111431	3
0	19299	3371.256738478174	2
0	19305	3373.334749982142	3
0	19309	3374.126946825741	2
0	19316	3375.117795279869	3
0	19317	3375.220111803569	2
0	19322	3375.223006739684	1
0	19328	3375.355513385933	0
0	19340	3376.046889892271	1
0	19342	3376.137345953796	2
0	19344	3376.146184868165	3
0	19346	3376.198663127502	4
0	19347	3376.441353802867	3
0	19352	3376.580922266851	2
0	19359	3378.093533054643	3
0	19360	3378.104507085751	2
0	19371	3380.258068883982	1
0	19376	3380.363329157786	0
0	19387	3380.486754379605	1
0	19389	3380.620670469105	0
0	19406	3382.881230660538	1
0	19408	3383.790400315237	2
0	19411	3384.412794561385	1
0	19416	3384.95005394229	0
0	19430	3386.234108818372	1
0	19436	3387.676635553306	0
0	19466	3391.484728973729	1
0	19468	3392.602465182944	2
0	19469	3394.745221133791	1
0	19474	3396.194197835205	0
0	19480	3398.146370346358	1
0	19481	3398.78326986186	0
0	19488	3399.572139859849	1
0	19492	3400.019181562131	2
0	19494	3400.187910788193	3
0	19495	3402.42635470762	2
0	19500	3402.860664907095	1
0	19504	3402.985425251113	2
0	19510	3404.859450411461	3
0	19512	3405.68611267102	4
0	19514	3406.683440209135	5
0	19516	3406.918391337426	6
0	19517	3408.198520150717	5
0	19523	3408.751499940308	6
0	19524	3409.700205945879	5
0	19531	3410.965004673901	4
0	19535	3411.651406343793	5
0	19537	3411.857101820358	6
0	19541	3412.406242644532	7
0	19542	3412.681880392357	6
0	19548	3414.095243628714	7
0	19549	3414.12632871022	6
0	19556	3414.498669449885	5
0	19560	3416.384974045626	6
0	19566	3417.653346011228	7
0	19567	3417.813757196412	6
0	19573	3420.765659258487	7
0	19580	3423.958171024858	6
0	19584	3425.018381489366	7
0	19588	3425.808041673367	6
0	19594	3426.701557626461	5
0	19600	3426.943978908532	6
0	19602	3427.355473599375	7
0	19604	3427.642783161403	8
0	19606	3427.82911692753	9
0	19608	3429.342233609257	10
0	19609	3429.491805293717	9
0	19615	3429.953450568384	10
0	19617	3430.407893129786	11
0	19619	3430.986581223258	10
0	19624	3431.447472683658	9
0	19631	3433.179942620081	8
0	19637	3434.175742330669	9
0	19639	3434.830286667906	10
0	19645	3436.192620184432	11
0	19646	3436.448052709716	10
0	19651	3436.830229391243	9
0	19656	3436.945683450566	8
0	19660	3438.554372142576	9
0	19664	3440.40977851274	8
0	19669	3441.542432110524	7
0	19674	3442.130023696119	6
0	19681	3443.948897681565	5
0	19687	3445.950393338731	6
[...]
5	161103	27977.8034260986	8.335778977457
5	161108	27978.117957019332	8.123070576539
5	161115	27979.064528302244	9.02282585706
5	161139	27981.246603095467	1.541392933669
5	161170	27985.300136689384	0.797663157373
5	161191	27987.71788359082	0.695584780438
5	161205	27991.65795930909	0.201455685101
5	161235	27996.725581003488	3.482020058347
5	161261	28000.804931998897	0.446431115928
5	161297	28006.333733116422	2.899602510512
5	161306	28008.564539356823	2.631129615501
5	161313	28008.698228051026	0.474690324185
5	161354	28012.982413375849	0.048878768921
5	161369	28016.443274347344	0.068215618629
5	161420	28026.90081464589	4.352862941887
5	161588	28076.56571826093	45.573074806957
5	161595	28077.559448758208	43.025891224333
5	161608	28080.249853443993	44.99758734555
5	161613	28080.256015911543	44.704785015088
5	161622	28080.878189769276	43.200595012719
5	161654	28087.116797623918	44.454306032648
5	161662	28087.682304620074	42.019115541065
5	161842	28119.943179032885	67.289848010386
5	161883	28131.8612791068	78.528007574122
5	161900	28135.364930412211	69.855361252057
5	161908	28136.74751034354	69.260590484382
5	161947	28140.590340094354	71.195322510622
5	161954	28142.424888500932	72.52396864394
5	161961	28142.636528407867	70.613863209747
5	161992	28145.144740538786	72.495651601877
5	161998	28145.349731044877	71.98010483432
5	162003	28145.403487372402	71.760819580573
5	162012	28146.649950740516	68.319245662079
5	162030	28148.375347839547	55.388198351045
5	162905	28321.12068292309	219.62673342365
5	163013	28338.361191894238	233.52953644473
5	163019	28339.455293304513	234.18908825248
5	163025	28341.011452754848	235.364423774
5	163037	28343.480853420792	232.85952844895
5	163064	28346.003989386026	227.51990536635
5	163082	28346.830191089499	219.42369121655
5	163093	28351.533452108603	223.91501894647
5	163101	28353.042202037727	224.57491120689
5	163122	28356.403524923006	218.29289013893
5	163133	28357.456282472914	218.54904027406
5	163139	28358.241615452203	217.80518528451
5	163148	28359.259133973127	216.56795794816
5	163165	28361.624827087787	218.55767970279
5	163174	28363.052070792474	212.26317629768
5	163185	28363.307156491569	212.47306873443
5	163190	28363.331650879923	211.41364552077
5	163205	28368.196757958407	208.10724480525
5	163238	28372.896834103356	205.69318958229
5	163247	28374.974446768993	201.97771660574
5	163257	28375.310541643737	200.1748090534
5	163262	28375.66317688466	194.80213084336
5	163277	28381.655957085405	188.23614341123
5	163326	28392.079567917483	196.67337550738
5	163365	28395.126464215772	192.38999098359
5	163379	28398.357879190505	185.26262885832
5	163394	28402.173787945065	185.510072028
5	163413	28403.765736319781	186.75200568325
5	163423	28404.233004308387	186.88615514136
5	163438	28407.320755269677	185.94095194232
5	163492	28422.095292789468	200.5622677439
5	163500	28423.919521776809	199.96852338188
5	163505	28425.137711558844	200.41274166723
5	163516	28427.244783966873	201.33662654283
5	163521	28427.441299794203	200.96291879261
5	163527	28428.259292476686	200.50118696732
5	163532	28428.389034515924	188.74115786765
5	163541	28429.987459983185	185.30600550086
5	163546	28430.07611095612	180.09028059814
5	163553	28430.358613995314	176.56493716434
5	163576	28436.940693217555	177.32361204163
5	163600	28439.488820204066	179.81249327899
5	163611	28440.541011374559	174.63370849756
5	163623	28442.135924886897	174.00991457138
5	163633	28442.937769445273	162.7650594844
5	163645	28446.317867274592	159.0836966594
5	163655	28446.68969783849	158.94311175342
5	163660	28446.730527249218	151.62925622994
5	163678	28453.068270785605	154.80972688836
5	163767	28470.390811843179	165.26464844839
5	163777	28470.575835379522	159.11648482105
5	163783	28470.835262106944	157.25609735928
5	163789	28471.772189309266	156.96654784996
5	163794	28471.788467593991	155.69289605061
5	163801	28473.299564913627	155.86771456764
5	163840	28484.149982739567	163.70152701308
5	163847	28484.361422976489	163.44748046627
5	163862	28488.335324907589	154.81099566863
5	163891	28492.802681877097	156.64232823316
5	163903	28497.395573710071	153.74708738588
5	163935	28500.848321000615	147.76640522822
5	163957	28502.317932927088	135.72792278205
5	163964	28503.109573062484	135.29805179054
5	163975	28503.884529668362	129.5419512574
5	163986	28505.420169874565	129.69776215917
5	164007	28506.652149371268	118.97972165103
5	164021	28510.274339745965	119.54648559455
5	164041	28512.994585590845	121.78121333604
5	164051	28513.120075032478	120.58446690819
5	164066	28516.171301926715	123.31785849149
5	164120	28524.243502049783	129.95050275698
5	164473	28591.734483448672	195.92918461847
5	164484	28593.510339019524	195.79108433755
5	164562	28604.379215548538	203.21015573967
5	164576	28605.966861187303	201.01533978605
5	164582	28606.625007451124	193.50721905386
5	164591	28607.646726722157	193.19885705407
5	164602	28608.11165224028	181.01494404273
5	164607	28608.144281700654	178.16172882671
5	164621	28610.676731728122	179.79054341566
5	164641	28613.771188459663	181.04946914966
5	164648	28613.849818745858	178.83702994972
5	164662	28615.794873581407	173.70341941243
5	164688	28617.362596969135	173.87804155991
5	164707	28619.371265825464	162.0890454889
5	164716	28622.570592396181	154.2870686049
5	164813	28638.877146353594	132.24425142713
5	164831	28639.888845669558	130.99721571866
5	164857	28643.687120614677	133.79949422346
5	164864	28644.680911072848	126.90752601815
5	164872	28645.917751418264	126.34632790353
5	164885	28647.671856124429	122.06474768476
5	164895	28649.842508965258	121.43193460738
5	164906	28650.948363031636	121.89330183046
5	164913	28651.255927932538	122.01782455452
5	164927	28653.519169176505	120.43708918996
5	164943	28655.101533109526	110.00893315457
5	165006	28665.795736611901	119.74875232076
5	165019	28667.042551210772	118.13502779909
5	165053	28670.652216779335	116.89060251497
5	165060	28671.192633222711	115.90257279983
5	165069	28671.985730254517	100.12862946686
5	165079	28673.759354731909	99.648660831576
5	165093	28676.102016832229	97.6801435768
5	165116	28678.579606191019	95.258464874244
5	165140	28682.296200614927	92.339758270692
5	165159	28683.993750500921	90.455167202158
5	165165	28684.644623650174	90.257253754915
5	165176	28686.282630745236	89.757613184547
5	165182	28686.817924102053	85.156148750525
5	165187	28686.844357015077	81.361794793572
5	165192	28686.989546244917	79.910645271898
5	165198	28688.534810971452	75.067239120532
5	165203	28688.875915746725	75.092428150077
5	165210	28690.239825566879	74.525238119029
5	165251	28696.05344885236	78.948781394146
5	165278	28698.933397697246	72.805228665314
5	165283	28699.266824956839	67.545994927089
5	165290	28701.271167055272	65.628858530777
5	165300	28702.211573924649	64.70331304869
5	165308	28703.103018036129	61.930846680804
5	165321	28706.024925705463	64.718958218682
5	165326	28707.49507572541	64.373474256496
5	165339	28712.231129772493	64.141513038763
5	165355	28713.7166640688	59.743449803968
5	165360	28714.236386669734	58.210515837161
5	165373	28717.840492390607	59.295639624099
5	165410	28721.971523805542	60.504649317459
5	165415	28722.495354702745	51.313675604684
5	165420	28722.881630775834	51.587667054954
5	165428	28723.676278595455	51.884035488638
5	165439	28728.559133797962	55.005342061208
5	165466	28732.885110043593	55.953061229267
5	165489	28736.90861276168	50.998567495906
5	165519	28739.569831187469	48.299355270197
5	165542	28740.155616021313	48.290274727556
5	165553	28742.3171821815	43.598854349317
5	165590	28748.263717597124	37.771918510569
5	165597	28749.506028968381	31.09278234979
5	165608	28750.194818789043	30.909317822593
5	165613	28750.90982819462	13.995280867029
5	165624	28751.866616650613	13.186505467363
5	165630	28752.584485386416	1.234723665706
5	165637	28753.317812378816	1.690812330359
5	165677	28762.459412236417	5.639837792464
5	165689	28764.235651668526	2.911291635868
5	165704	28765.681311587348	2.237578587566
5	165714	28767.691759895366	1.592350413443
5	165731	28769.434381032423	0.519868757258
5	165761	28777.287763495231	0.455180891377
5	165788	28783.660614905098	0.731573584165
5	165795	28784.152794897654	0.169727235371
5	165854	28798.79448105284	0.718193436854
5	165879	28801.777520443778	2.606386046216
5	165919	28806.104178918165	4.946255050984
5	165923	28806.162221160461	3.502520600143
5	165946	28813.291352135714	3.805039015039
5	166147	28863.784036184049	47.588745725889
5	166153	28864.643060096909	47.681853208474
5	166161	28867.212393368685	48.579231064102
5	166168	28868.127806898638	49.081007496017
5	166176	28868.969973204751	25.356029280238
5	166183	28869.191759881714	15.476028707212
5	166194	28870.794388690628	14.739899396509
5	166214	28872.728935078155	9.81558450752
5	166226	28875.085312753135	6.028581280096
5	166233	28875.29147830019	4.680392746222
5	166361	28897.259630596849	9.709163017348
5	166366	28897.578376264942	7.875239741617
5	166381	28900.698465506603	9.524839713015
5	166478	28921.84590793476	27.375591561888
5	166485	28923.638647567553	27.854851726938
5	166497	28924.71753717059	27.026915337777
5	166502	28925.014466682393	16.894386694072
5	166507	28925.04805539679	10.927532034147
5	166522	28926.26264880451	6.742370762079
5	166565	28930.780586577696	10.270514210881
5	166585	28933.241233403072	7.049938596831
5	166621	28942.486997402496	9.303950844868
5	166639	28944.663971682887	9.83609330651
5	166700	28949.949453335228	14.438818254483
5	166706	28951.575193283275	11.822058019057
5	166711	28952.001268219202	10.47446414411
5	166718	28952.241163539374	8.541988360113
5	166733	28953.207438933984	8.982584755622
5	166738	28953.429674364595	8.168012741331
5	166743	28954.284003098682	7.139449519799
5	166751	28956.452576394292	8.072901906008
5	166768	28960.706987597787	8.406861076102
5	166772	28961.175218533194	2.650384854192
5	166813	28967.549932598785	2.067860592958
5	166870	28980.408360496773	0.181990793803
5	166890	28982.906207520587	1.309628764747
5	166903	28983.892416043558	2.044784100792
5	166911	28984.508508998083	1.192994861534
5	166915	28984.558310797454	0.169013797704
5	166959	28996.259949809083	0.766402575585
5	166966	28998.401414494378	0.464509810627
5	167021	29007.708942827068	0.236181549391
5	167070	29020.070365990122	0.106696237939
5	167131	29034.420350602545	0.007460800893
5	167190	29047.322790933957	3.313410122185
5	167215	29051.815500419037	3.140193880101
5	167238	29056.545033833568	6.020132477766
5	167253	29059.388897306582	0.402936546313
5	167262	29061.031362797099	0.56143025428
5	167274	29061.537472349949	0.382263728288
5	167330	29070.950031226276	9.742316317534
5	167366	29075.651984663183	6.737302598682
5	167373	29076.869556622913	1.522586248096
5	167391	29079.918311435869	3.016797184566
5	167474	29095.731706504167	9.706741774158
5	167479	29095.784220042557	5.928698290721
5	167486	29096.102605042453	5.553566949427
5	167493	29096.583503768816	4.308005066317
5	167536	29109.016027162966	0.933899502144
5	167551	29110.321820508286	0.583038817251
5	167576	29115.882072669871	2.765438694273
5	167586	29119.919081086934	2.589311046356
5	167590	29120.06788565795	1.689105327615
5	167614	29127.06582468952	3.626778450325
5	167662	29133.484484818243	5.644763974341
5	167691	29135.707034357276	7.673261875346
5	167698	29136.512801239906	7.606508563376
5	167712	29138.638865218146	9.338068004808
5	167817	29160.85491303737	31.39021637706
5	167824	29161.745975941823	27.576463738199
5	167835	29163.472322864384	28.428986715115
5	167842	29164.121879095984	27.735246824531
5	167848	29164.301408400555	27.003131986104
5	167853	29164.323975888121	18.174883864239
5	167858	29164.351944339359	11.102094579676
5	167869	29168.571792102926	12.813174800097
5	167902	29172.190705769181	15.879359795192
5	167910	29174.711985251241	11.159371471541
5	167916	29175.294903404713	6.133666537881
5	167922	29175.51171822664	5.474876253496
5	167926	29175.661673347813	4.327844087493
5	167947	29179.733855426049	1.601017696033
5	167996	29184.843470834254	1.063584005806
5	168027	29191.578852802496	2.177008681021
5	168034	29193.374895047369	3.43215643279
5	168038	29194.033475925573	2.932522805707
5	168066	29196.588999306858	1.44992176362
5	168076	29197.814976599339	2.207936618662
5	168094	29201.240911087094	0.212907936995
5	168141	29209.512596398782	2.149593539659
5	168150	29210.274068664577	0.142903295751
5	168166	29212.493904546063	0.408641881362
5	168191	29219.77330638187	1.296735217058
5	168238	29230.836671522653	0.269782734261
5	168261	29233.586972975073	1.63270414272
5	168283	29235.383392471232	3.347800734655
5	168350	29247.353131015291	12.392222847043
5	168371	29254.638339132331	3.980712376577
5	168400	29260.666826162828	1.206435735493
5	168426	29265.886476545548	0.029598462566
5	168445	29267.645259317659	0.800530302167
5	168471	29273.511503281134	0.667095611221
5	168488	29277.546571983789	2.046800688208
5	168503	29278.664933847119	0.235355548659
5	168510	29279.557567443452	0.010160421899
5	168566	29289.586908428845	0.994667651767
5	168576	29290.671503436387	1.918570642338
5	168663	29304.702138958382	5.369865474007
5	168678	29304.997947710666	5.554569080594
5	168691	29307.19582950381	2.242540514731
5	168756	29321.159952871326	1.737137699279
5	168771	29325.957163248693	6.532557582714
5	168781	29327.935921516853	0.746851711983
5	168798	29328.449096681404	0.440262642207
5	168832	29333.515262771413	0.439188204749
5	168847	29336.071393465204	0.021344770847
5	168867	29340.310951654212	0.970804054839
5	168936	29354.757092548472	1.536284016239
5	168953	29357.558350997638	0.45996236363
5	168967	29359.175042517017	0.035213511734
5	168974	29360.519944761803	0.012652097381
5	169024	29367.130676313781	3.07953127534
5	169036	29369.857885780241	3.211284903776
5	169096	29378.456135094805	7.612773088393
5	169121	29380.203127204154	1.050123916898
5	169140	29383.060492032268	3.605116954992
5	169149	29383.805280357674	3.846303310199
5	169154	29385.036675868181	1.263797312719
5	169206	29405.430963623011	0.056451327101
5	169213	29405.862880258315	0.346379823763
5	169237	29418.248059738524	1.284709065751
5	169272	29421.862137395554	1.179697582155
5	169295	29422.987952273651	0.005277875611
5	169317	29426.572375925444	0.35989851887
5	169340	29430.317897095566	2.211039833812
5	169361	29433.086767219384	4.57375784363
5	169411	29437.782241117345	3.68549144567
5	169418	29438.039125070028	1.605495027365
5	169441	29440.832744211996	4.043086014731
5	169452	29442.731032823782	4.083493866759
5	169474	29445.610565163653	5.806750579247
5	169569	29463.67594678312	2.784783091215
5	169594	29466.235593026576	3.881300645463
5	169599	29466.681653293646	2.012053506332
5	169629	29471.302409685385	0.383365709381
5	169640	29473.817639506086	1.840228448008
5	169663	29483.942137700696	0.317471453202
5	169674	29486.795439685359	2.867369647936
5	169688	29487.530970139024	2.490442969462
5	169708	29488.975111409907	3.690100671674
5	169734	29492.641225962047	0.702300376
5	169755	29498.20022949301	0.633021026875
5	169777	29499.86694546592	0.838390359527
5	169786	29502.872072356261	1.00086142771
5	169796	29503.88743348062	0.765269518888
5	169805	29507.465224336268	3.605744824631
5	169839	29515.579606132667	0.270273691142
5	169902	29528.418324912939	1.927067496184
5	169907	29529.281616533961	1.136225067547
5	169915	29532.094336882969	0.10385851453
5	169954	29543.044047139295	1.466110210844
5	169973	29546.257012440885	1.172503693389
5	169978	29546.607805531837	1.344769984623
5	169985	29547.202449112815	1.64208457492
5	169991	29547.705004094002	1.938534598267
5	169995	29548.056021866667	1.127486218763
5	170014	29553.156228658545	1.12124096887
5	170043	29560.417955651296	0.243864526046
5	170060	29565.526599881533	1.52245018214
5	170160	29583.436123689314	11.748151904942
5	170187	29586.718839748361	0.626950343837
5	170201	29588.617599446196	1.058933526781
5	170215	29589.561322359575	1.064863958078
5	170227	29590.22406002085	1.541819170537
5	170231	29590.287936843183	0.29239603013
5	170264	29595.058885550891	2.800373930418
5	170312	29612.672788956468	6.543852907418
5	170343	29617.864629344936	1.307579894501
5	170356	29619.978159567345	1.923113218685
5	170388	29625.004325200202	0.43544477609
5	170418	29631.001342647535	0.89513863304
5	170442	29632.671327334968	0.351895711979
5	170499	29645.402470399926	0.816003733009
5	170868	29712.486424808384	67.43566414671
5	170875	29712.589864050135	59.537972765059
5	170895	29715.270975357949	50.088141675517
5	170902	29715.435824890617	46.33684192934
5	170922	29717.094515137253	42.500910178055
5	170944	29721.608008162224	45.862566323077
5	171007	29728.762739619569	51.984606244996
5	171015	29729.782077742017	48.555757238007
5	171028	29731.690977774989	47.152670264523
5	171051	29736.678981333506	45.40277754704
5	171069	29737.658912317716	42.539315273349
5	171078	29738.298052857551	37.751051952411
5	171089	29739.117533978691	36.82892204733
5	171098	29739.78764227546	37.437501415215
5	171148	29744.643992199097	36.825623538055
5	171154	29744.964353169771	36.960733967773
5	171168	29746.043052101403	33.675945146633
5	171199	29751.873359277579	33.290125456592
5	171209	29755.43455211501	23.298000015911
5	171215	29755.968412243391	19.960157598599
5	171220	29756.023805949787	18.772714152171
5	171226	29757.480177481697	19.596077302285
5	171232	29759.524930709653	19.029464600607
5	171239	29760.25721685849	14.829977780648
5	171296	29769.087409817166	21.249570979962
5	171306	29769.964583620011	17.940575637342
5	171320	29771.188403217301	16.736270917661
5	171360	29780.048355172555	18.211543417931
5	171421	29787.663102144111	21.385429937327
5	171426	29788.201545631822	18.550234925277
5	171434	29789.40499083195	15.754368701841
5	171455	29791.210991246479	17.314424272528
5	171462	29791.828658636762	16.239883696678
5	171499	29798.560713777709	21.896564521995
5	171511	29800.604944178555	23.937460514349
5	171521	29801.500342960307	24.806353828275
5	171526	29801.753824396706	11.725154015857
5	171530	29802.095923035022	1.863536250746
5	171541	29802.88468621365	0.481887325476
5	171549	29804.019451911986	1.462243440539
5	171576	29807.282036216651	3.20526754885
5	171600	29809.331043449691	4.221816377251
5	171609	29811.756566868588	6.091917400607
5	171613	29811.848909341493	5.128001779267
5	171633	29814.889130562537	1.88965114516
5	171640	29815.118433734147	0.58850504536
5	171644	29815.153120986793	0.116519980248
5	171656	29818.491647043355	0.725958257927
5	171661	29818.677633473103	0.740794559565
5	171665	29820.569704777454	2.435016006442
5	171713	29826.968678796673	0.218971777912
5	171730	29828.894469509033	0.843592111299
5	171758	29832.029572631291	0.978859241035
5	171812	29844.702041579807	9.183660544963
5	171818	29845.270316919906	6.662073274484
5	171825	29847.42628202948	7.910842302184
5	171835	29848.844355706625	7.323851836246
5	171956	29879.886590168428	16.241376310682
5	171961	29879.923892693556	15.632003119277
5	171966	29881.155981425932	9.646825568977
5	172006	29887.438720570316	4.206386862843
5	172027	29891.699409831407	0.080786597345
5	172049	29896.734021936444	2.474768943545
5	172065	29898.495277085987	0.55316881026
5	172086	29903.564571271039	1.472394594095
5	172124	29911.955452794192	1.941451218534
5	172219	29934.0565993461	22.571571464231
5	172230	29934.941582631655	22.148702873452
5	172323	29961.440986445258	36.855893797644
5	172331	29962.995518780421	36.852304255813
5	172339	29963.998910864723	34.90341274813
5	172345	29964.861631153533	35.290227692099
5	172350	29965.95540384191	35.387371686157
5	172355	29966.163733546636	33.284535023994
5	172363	29966.91449479579	33.922422571172
5	172369	29967.771324066613	19.163823458748
5	172374	29967.988074157056	13.605412035098
5	172379	29970.353837773624	15.377184027133
5	172384	29970.707072087402	7.736330657849
5	172393	29973.537066713341	9.580615134048
5	172402	29973.937527450761	7.593111603387
5	172415	29976.151670365122	0.607660435077
5	172420	29979.09885536742	3.159801193736
5	172436	29981.774199283092	5.777093810755
5	172455	29983.325736413944	3.650325019813
5	172521	29996.908990752275	0.605943516404
5	172537	29999.753078071266	3.446836990593

