version 2
run First-n3-0-20191016-14:52:34-6064
attr configname First-n3
attr datetime 20191016-14:52:34
attr experiment First-n3
attr inifile omnetpp.ini
attr iterationvars ""
attr iterationvarsf ""
attr measurement ""
attr network org.omnetpp.queueing.Pizza
attr processid 6064
attr repetition 0
attr replication ""
attr resultdir results
attr runnumber 0
attr seedset 0
param **.PS.maxInventoriedPS 3
param **.U1.interArrivalTime exponential(2s)
param **.U2.interArrivalTime exponential(4s)
param **.PS.serviceTimeForInventoryU1 exponential(0.8s)
param **.PS.serviceTimeForInventoryU2 exponential(1.0s)
param **.PS.serviceTimeDirectU1 exponential(1.2s)
param **.PS.serviceTimeDirectU2 exponential(1.4s)
param **.PS.probabilityProducing 0.5
param **.CS.serviceTimeU1 exponential(0.8s)
param **.CS.serviceTimeU2 exponential(1.0s)

vector 0 Pizza.EntryQueueU1 queueLength:vector ETV
attr interpolationmode sample-hold
attr title "queue length, vector"
vector 1 Pizza.CS queueLength:vector ETV
attr interpolationmode sample-hold
attr title "queue length, vector"
vector 2 Pizza.EntryQueueU2 queueLength:vector ETV
attr interpolationmode sample-hold
attr title "queue length, vector"
vector 3 Pizza.sink lifeTime:vector ETV
attr interpolationmode none
attr title "lifetime of arrived jobs, vector"
attr unit s
vector 4 Pizza.sink lifeTimeU2:vector ETV
attr interpolationmode none
attr title "lifetime of arrived jobs, vector"
attr unit s
0	0	0	0
0	9	4.103610525227	1
0	12	5.205707498568	2
0	13	5.326445306984	1
0	18	6.063776078518	0
0	22	6.175963826011	1
0	24	6.812676107695	2
0	28	7.779880317592	3
0	34	10.713217096752	2
0	38	10.917672552838	3
0	40	11.065043263768	4
0	42	11.888199256253	5
0	44	12.070521308502	6
0	49	14.159746325118	7
0	50	14.313250344633	6
0	56	14.462208032448	7
0	58	15.745626377804	8
0	62	17.389427839946	7
0	68	18.956105491927	8
0	71	19.180136298742	7
0	75	19.207854310803	8
0	79	20.952496700887	9
0	81	22.721390930351	8
0	87	23.234746691976	7
0	93	23.795226061074	8
0	96	24.302978839675	7
0	100	25.01339090744	8
0	106	25.303946962024	9
0	109	25.51253403207	8
0	117	27.226708840156	9
0	119	28.422200993793	10
0	120	28.527122304283	9
0	124	29.313237983895	10
0	128	30.462302797377	11
0	129	30.623402044045	10
0	133	30.671425248927	11
0	138	31.545007697795	10
0	143	31.880341927759	9
0	148	33.908874803688	8
0	153	34.411956397583	7
0	161	37.671852617836	8
0	163	37.887122834148	9
0	164	38.668343047492	8
0	169	39.090235706363	7
0	173	40.002775660852	8
0	175	42.12026109104	9
0	177	43.864092798291	10
0	179	44.448253864825	11
0	181	45.518383218992	12
0	186	46.303847385912	11
0	191	46.609092060611	10
0	197	46.774266380974	11
0	198	46.784196537817	10
0	207	48.712478613278	9
0	214	49.963428754513	8
0	218	52.748646164678	9
0	221	54.757604078443	8
0	226	55.658565931582	7
0	233	56.788892230381	6
0	243	59.950119887527	5
0	249	60.246709083847	6
0	250	60.378027388133	5
0	256	61.321379009785	4
0	261	62.923971427791	3
0	269	63.516578588149	2
0	274	63.585994974021	1
0	278	65.254532650017	2
0	280	65.905213481075	3
0	282	66.672333909272	4
0	284	66.6911354106	5
0	287	66.878166659282	4
0	293	68.892827230782	5
0	295	69.576135564834	6
0	296	69.601329421487	5
0	302	70.191171012359	6
0	304	70.23179592995	7
0	305	70.487987867609	6
0	309	70.59230043392	7
0	311	71.515762226009	8
0	313	71.525175306994	9
0	315	71.841858319455	10
0	318	72.858654483189	9
0	324	74.1071266034	10
0	327	74.772788190097	9
0	331	74.78782007987	10
0	334	75.519488402377	9
0	339	77.274774096572	8
0	343	77.609868898459	9
0	345	78.114708884241	10
0	350	79.408850943421	9
0	358	82.557722681189	10
0	360	82.804775975913	11
0	361	83.198911483211	10
0	365	83.510816242461	11
0	371	85.847319366963	10
0	376	86.147910440888	9
0	380	86.872660651553	10
0	385	89.743234395909	9
0	390	91.64613047391	8
0	398	93.601401557655	9
0	400	94.606023154177	10
0	404	95.708815134445	11
0	405	96.142614807425	10
0	414	96.99702455109	11
0	415	97.173105358854	10
0	421	97.682223800486	11
0	425	98.279488724083	10
0	430	98.357026927744	9
0	436	98.802145940634	10
0	439	100.052956883367	9
0	447	100.589604097245	10
0	449	101.363864281543	11
0	451	102.493085283785	12
0	452	102.872029368823	11
0	456	102.99324827374	12
0	458	103.297835524249	13
0	460	104.214181292165	14
0	462	104.41882252187	15
0	466	105.563745624727	16
0	469	106.210451647691	15
0	474	107.754780510576	14
0	478	110.013574939178	15
0	482	110.882266251066	16
0	483	111.284689160854	15
0	488	115.11309555663	14
0	495	115.92380819123	13
0	500	117.525397387651	12
0	505	117.94939969016	11
0	510	118.98668627268	10
0	515	120.029047586881	9
0	523	121.614042029623	8
0	528	121.627456242417	7
0	537	124.308351183821	6
0	541	124.41304729094	7
0	547	126.468414100637	6
0	554	127.185629994982	7
0	556	127.692641405269	8
0	557	127.731144278322	7
0	562	129.836919368361	6
0	567	130.811956811036	5
0	572	130.837842254752	4
0	576	131.844703526155	5
0	578	132.204618209259	6
0	581	132.716186050909	5
0	585	133.591017748334	6
0	590	135.926373019656	5
0	594	135.992959561418	6
0	599	137.781671530235	5
0	603	138.266152551932	6
0	606	139.748393203488	5
0	614	140.885723294655	6
0	616	140.919248158057	5
0	622	141.297787391621	6
0	623	141.995526104644	5
0	629	142.50114536467	6
0	633	143.01717089255	7
0	634	143.039425709746	6
0	640	143.19547947254	7
0	642	143.646453844196	6
0	648	143.942819061329	7
0	650	144.891651641995	8
0	651	146.643809535256	7
0	655	146.814530785137	8
0	658	146.937064954516	7
0	662	148.378482226888	8
0	666	149.475667460411	7
0	672	150.653559237969	8
0	673	151.291539473038	7
0	677	153.161965778151	8
0	679	154.429825816939	9
0	681	154.918807861025	10
0	685	156.136473688499	11
0	688	156.875816279574	10
0	693	158.895088603411	9
0	698	159.744824546257	8
0	704	160.874310030173	9
0	707	161.576938775378	8
0	711	161.659456086548	9
0	713	161.659566790338	10
0	717	163.210080590093	9
0	722	163.374358805082	8
0	729	165.269630449688	7
0	735	165.7812092721	8
0	737	166.302489530853	9
0	738	167.916476864033	8
0	742	168.927505516784	9
0	744	169.513408433757	10
0	746	170.2662671368	11
0	750	170.746114175673	12
0	751	171.047954980954	11
0	756	171.265172289894	10
0	761	171.840363040155	9
0	765	172.022491386859	10
0	768	173.252496198937	9
0	772	173.268150006389	10
0	775	175.412782949217	9
0	780	176.145641131312	8
0	788	176.564302352711	9
0	791	177.509879543641	8
0	795	177.572862219214	9
0	798	178.635114048724	8
0	804	179.203007520612	7
0	809	179.22774855386	6
0	816	181.044948428267	5
0	820	181.243389025093	6
0	822	181.733785210378	7
0	824	181.908002376895	8
0	828	184.674635309197	9
0	831	184.906039787693	8
0	839	186.431065466634	9
0	841	187.107374896323	10
0	845	187.6584307704	11
0	847	187.869805118609	12
0	849	188.000030848182	13
0	851	188.033163037025	14
0	854	188.835661888182	13
0	858	189.655445081481	14
0	866	193.235424290443	15
0	867	193.49053046969	14
0	872	194.262907303434	13
0	876	195.001185380357	14
0	879	196.978431439292	13
0	886	198.583389096511	12
0	893	201.285442172291	11
0	899	202.589232946533	12
0	903	205.675714774767	11
0	909	205.800150472669	12
0	912	207.164860089153	11
0	919	207.506088738782	10
0	926	209.580353868862	11
0	927	210.712448462681	10
0	933	210.88194855358	11
0	935	210.890061196222	12
0	936	211.26280324545	11
0	941	211.757380752976	10
0	946	212.711067217175	9
0	950	212.930435372132	10
0	953	213.066571352841	9
0	958	213.453759697836	8
0	962	213.955864657391	9
0	967	216.966207087125	8
0	973	217.919645339609	9
0	976	221.210282118931	8
0	982	221.983936701843	7
0	987	222.097637110957	6
0	993	222.660420500837	7
0	995	222.688513683322	8
0	997	222.711500183739	9
0	1000	223.604358291341	8
0	1005	224.106538772358	7
0	1009	224.236347552169	8
0	1011	224.424096646734	9
0	1014	225.783126649315	8
0	1021	226.686854181943	9
0	1022	227.236850749291	8
0	1027	227.618033615369	7
0	1034	229.288942685627	6
0	1042	230.226093828363	7
0	1046	230.855289003326	6
0	1052	230.944016465116	7
0	1053	231.322028020154	6
0	1059	233.323008967786	7
0	1064	233.779723159662	6
0	1068	234.459349935271	7
0	1070	234.640024423434	8
0	1072	234.757080221327	9
0	1075	235.829354539665	8
0	1081	236.914934038326	9
0	1084	237.879472881846	8
0	1091	238.823835661746	7
0	1097	238.999410190461	6
0	1102	239.035920630057	5
0	1108	239.919759625748	6
0	1109	240.322654909326	5
0	1116	241.269661573054	6
0	1118	242.133229296803	5
0	1123	242.649156089736	4
0	1129	242.992996556644	5
0	1130	243.09941625119	4
0	1137	244.079705858955	3
0	1141	244.618793279015	4
0	1143	245.269135019992	5
0	1147	245.736606651198	4
0	1152	245.847476108336	3
0	1156	246.818819779	4
0	1158	248.548695997858	5
0	1168	250.118370037041	6
0	1169	250.369301376781	5
0	1179	253.341034035282	6
0	1180	253.789951459511	5
0	1186	254.920978123143	4
0	1192	255.076973999318	5
0	1193	255.140548940746	4
0	1199	256.413793838981	3
0	1205	256.973814347873	2
0	1211	257.990094422469	3
0	1212	258.53379587735	2
0	1218	259.622131550399	3
0	1219	260.044673663743	2
0	1225	261.337001755627	3
0	1227	261.680079010373	4
0	1230	263.782388973363	3
0	1236	264.682011437155	2
0	1241	264.733823991387	1
0	1245	266.470438589152	2
0	1249	267.573845814333	3
0	1253	268.17250257917	4
0	1256	269.559132661752	3
0	1264	270.468593891649	2
0	1269	270.632475705366	1
0	1273	270.88393960687	2
0	1275	271.909793590528	3
0	1279	273.44671874531	4
0	1281	273.656584239967	5
0	1282	273.784667371118	4
0	1286	275.535588211693	5
0	1288	275.742929884977	6
0	1291	277.317845228959	5
0	1297	278.009103462023	4
0	1302	278.036010598759	3
0	1307	279.370721321351	2
0	1311	279.815518259521	3
0	1313	279.956522156242	4
0	1317	280.829892573783	3
0	1322	280.942273147347	2
0	1328	281.529640340025	3
0	1329	281.606806858527	2
0	1336	283.138255155892	1
0	1352	289.524767293465	2
0	1353	290.022737892692	1
0	1357	290.872654181902	2
0	1361	291.548849464078	1
0	1366	291.821039239769	0
0	1408	299.968301885622	1
0	1410	300.497866432299	2
0	1414	301.690210215093	3
0	1418	302.284957270909	4
0	1419	302.740996751418	3
0	1425	303.246713719515	4
0	1430	304.623664565877	3
0	1435	304.836317805095	2
0	1440	305.225533116902	1
0	1445	305.394352276868	0
0	1449	307.79412805289	1
0	1453	308.337207807095	0
0	1469	309.788725901224	1
0	1470	309.78893013822	0
0	1474	310.514883581592	1
0	1479	313.467122575518	0
0	1485	314.169936117225	1
0	1488	315.082790178093	0
0	1500	315.636386794582	1
0	1502	316.83869608735	2
0	1508	319.308055839457	3
0	1510	320.000922494447	4
0	1511	320.426747379059	3
0	1518	321.577884156561	2
0	1525	322.229838957879	3
0	1527	322.380222576207	4
0	1532	324.158137023534	3
0	1537	324.415209265829	2
0	1542	324.654691668182	1
0	1551	328.022053214595	0
0	1555	329.251469361162	1
0	1559	329.885424120933	2
0	1563	331.100993649166	3
0	1565	332.128364875694	4
0	1567	332.180020964546	5
0	1571	332.751158805552	6
0	1572	333.049302644775	5
0	1579	335.217336259986	6
0	1581	335.271097499006	7
0	1582	335.297235846625	6
0	1587	335.621816921719	5
0	1593	338.04845204674	6
0	1594	338.833511170637	5
0	1599	339.289090699078	4
0	1604	339.857961238111	3
0	1610	341.797959299317	2
0	1616	342.014077207288	3
0	1617	342.577062172501	2
0	1622	344.24815360655	1
0	1631	346.506910591386	0
0	1635	347.80431244133	1
0	1637	348.441098473442	2
0	1644	350.010211867278	3
0	1646	350.595637336865	2
0	1653	350.722543430405	3
0	1654	351.200570335097	2
0	1661	351.75943513996	1
0	1667	353.652467351038	0
0	1676	355.8274964175	1
0	1678	356.073421551276	2
0	1680	356.282846098135	3
0	1681	356.427982422059	2
0	1686	357.047595852407	1
0	1692	358.004275513163	2
0	1693	358.077908043695	1
0	1699	358.283975936768	0
0	1729	363.950692192126	1
0	1731	365.486570036354	0
0	1737	365.514461038335	1
0	1741	366.433792225432	0
0	1755	368.801167508747	1
0	1756	369.174637671363	0
0	1762	369.597064298045	1
0	1763	369.975882608273	0
0	1777	373.705169265772	1
0	1778	374.328371067301	0
0	1808	377.247875904412	1
0	1813	378.987106626086	2
0	1814	379.604422743553	1
0	1822	380.558224537219	0
0	1838	380.951582994905	1
0	1840	381.366989567329	2
0	1843	383.095822709253	1
0	1850	383.600026714444	2
0	1853	385.41916812419	3
0	1855	387.513552635173	4
0	1856	388.052550804231	3
0	1864	388.463971512744	4
0	1870	390.644462685666	5
0	1871	390.863733862591	4
0	1880	392.925511635593	5
0	1881	392.943472458867	4
0	1889	393.74552238553	3
0	1896	394.224333089182	4
0	1899	395.047734244927	5
0	1900	395.852827502284	4
0	1905	395.967406119469	3
0	1913	396.823472111171	2
0	1918	397.684584478705	1
0	1923	397.715215516923	0
0	1929	402.094036927386	1
0	1931	402.961435868187	2
0	1933	404.150367901584	3
0	1937	406.706372159916	4
0	1938	407.207344826977	3
0	1942	408.936105868057	4
0	1946	409.556498114586	5
0	1947	409.88387502398	4
0	1952	413.754238701439	3
0	1956	413.967299722191	4
0	1958	414.602838404955	5
0	1964	415.420273713423	6
0	1966	416.351477862433	5
0	1974	416.552532816814	6
0	1976	416.947996352696	7
0	1977	417.990344387711	6
0	1983	418.304918217304	5
0	1988	420.509888679286	4
0	1995	422.771107855738	3
0	2001	423.323764697243	4
0	2002	423.561322689285	3
0	2007	426.612723325041	2
0	2012	427.821901997224	1
0	2017	429.905585156015	0
0	2029	431.523633282583	1
0	2032	432.668314879011	0
0	2039	433.454504881976	1
0	2046	436.35631499603	0
0	2073	437.992443055223	1
0	2077	438.528889241766	2
0	2080	438.793312441423	3
0	2081	439.623998408486	2
0	2086	440.008231859533	1
0	2094	440.460401167411	0
0	2101	441.29520976274	1
0	2102	441.843008665785	0
0	2121	443.523439235673	1
0	2123	443.756022569207	2
0	2126	444.155653085806	1
0	2135	444.961471236518	0
0	2139	445.26973120366	1
0	2141	445.487794930903	2
0	2145	447.779951001031	3
0	2147	447.839200505624	4
0	2149	447.84161710938	5
0	2151	449.372695273928	6
0	2152	449.377887903176	5
0	2157	450.59357503702	4
0	2162	452.672154693014	3
0	2167	453.782877321668	2
0	2171	454.908895389304	3
0	2174	455.923735337888	2
0	2179	457.195132635394	1
0	2189	458.204190820859	0
0	2197	458.609073829046	1
0	2198	458.781032744395	0
0	2212	459.531525384259	1
0	2214	459.864505772098	2
0	2217	460.672011586327	3
0	2219	461.712959921556	2
0	2225	461.806747825659	3
0	2226	462.000236467815	2
0	2231	462.438566417976	1
0	2237	462.666592231136	2
0	2238	462.831802704979	1
0	2245	464.849909462921	0
0	2258	467.906995384897	1
0	2259	468.233184308107	0
0	2286	470.755257416169	1
0	2290	471.404891025462	2
0	2292	471.654612741139	3
0	2300	472.661464972048	4
0	2303	473.051656247084	3
0	2309	474.391763089897	4
0	2310	474.760611388136	3
0	2315	475.511017880622	2
0	2320	475.829466684612	1
0	2325	476.965511411355	0
0	2345	481.919124676959	1
0	2346	482.401317475004	0
0	2352	482.48832504494	1
0	2354	483.086250400928	0
0	2377	486.403161829419	1
0	2382	488.457732218962	0
0	2412	493.174643635229	1
0	2414	493.474134051745	2
0	2416	494.911234564393	1
0	2421	494.97704461677	0
0	2452	500.851078002715	1
0	2459	502.02943217906	0
0	2474	506.327124593262	1
0	2476	506.377253768369	2
0	2478	506.458882769071	3
0	2480	506.473875457968	4
0	2484	508.103004480011	3
0	2490	508.515540296073	4
0	2491	508.828205501787	3
0	2496	509.314630802398	2
0	2503	510.984648035635	3
0	2504	511.137278596644	2
0	2509	511.914859711106	1
0	2513	511.91839239056	2
0	2517	512.599348773632	3
0	2522	512.715278941804	2
0	2527	513.594344599302	1
0	2536	515.050984683204	0
0	2554	516.748653538428	1
0	2557	517.090757176509	2
0	2559	517.155783703953	1
0	2565	518.697627301755	0
0	2571	518.952104289755	1
0	2573	519.00429221968	2
0	2578	520.03441656191	1
0	2584	520.309779460765	2
0	2585	520.411807790287	1
0	2591	522.406405229104	0
0	2597	523.123640551317	1
0	2599	523.766504372515	0
0	2605	524.702593740993	1
0	2606	525.580896685184	0
0	2617	527.345773953353	1
0	2618	527.423948201604	0
0	2624	531.743304532684	1
0	2628	532.702083142444	0
0	2650	535.85948688799	1
0	2656	536.524390731158	2
0	2659	537.351455477484	1
0	2665	539.00582532961	0
0	2685	543.128758636064	1
0	2687	543.585251882461	2
0	2688	543.73229844393	1
0	2695	543.980140151578	0
0	2701	544.769601490417	1
0	2708	547.039795876729	0
0	2719	547.401229953988	1
0	2720	547.683962076946	0
0	2734	549.613936083909	1
0	2737	550.803688595692	2
0	2743	552.48163516155	3
0	2745	552.65946388624	4
0	2747	554.038489730083	5
0	2748	554.715321257055	4
0	2754	555.244111546092	5
0	2755	555.505840179588	4
0	2763	555.937071786418	3
0	2768	556.127124220763	2
0	2775	556.812662701951	1
0	2780	556.915038657844	0
0	2784	558.124894756106	1
0	2786	558.939249117183	2
0	2789	560.32975708438	1
0	2795	561.092566414888	2
0	2797	561.209684111533	3
0	2798	561.648782636062	2
0	2802	562.585433654498	3
0	2804	562.768310950581	4
0	2806	562.971160517361	5
0	2808	563.948139090142	6
0	2813	567.063308827251	5
0	2819	567.930570371133	6
0	2824	570.762957332125	7
0	2825	571.203629965839	6
0	2832	571.860004020174	5
0	2841	574.70939548231	4
0	2846	575.743853032611	3
0	2853	576.561954639478	4
0	2854	578.402702733733	3
0	2861	579.265648353275	4
0	2863	579.353393709179	5
0	2865	580.183686498154	6
0	2866	580.270373311385	5
0	2871	580.354424377706	4
0	2875	580.993832956519	5
0	2880	581.640327524647	4
0	2885	582.196129615572	3
0	2889	582.28479249857	4
0	2891	583.086544925862	5
0	2893	583.446073102208	6
0	2895	586.808801892702	7
0	2902	588.207638514579	6
0	2906	588.247395437251	7
0	2909	588.943464104085	6
0	2913	590.693774918353	7
0	2915	591.43833848463	8
0	2917	592.839680568947	9
0	2921	593.895478886491	8
0	2926	595.24626114891	7
0	2930	595.375824416657	8
0	2934	595.866763380938	9
0	2937	596.857252320821	8
0	2946	599.862462836079	7
0	2951	600.73203930267	6
0	2957	603.152182756976	7
0	2958	603.155641167498	6
0	2970	605.205635789997	5
0	2976	605.510059558072	4
0	2983	606.557015685859	3
0	2991	607.556719647853	4
0	2992	607.61887406385	3
0	2998	607.945101605415	4
0	3002	609.119512348011	5
0	3003	609.858492278621	4
0	3007	610.034228170914	5
0	3013	613.153330734361	6
0	3015	614.684371682049	7
0	3017	614.841520135962	8
0	3021	615.527199587683	9
0	3023	616.252509613766	10
0	3025	619.378212722577	11
0	3029	621.166612703007	12
0	3031	621.18607371487	13
0	3032	622.169675190509	12
0	3039	623.000873776278	11
0	3045	624.458293196063	12
0	3046	625.036600974462	11
0	3052	625.814264239487	12
0	3053	626.367954198448	11
0	3063	628.232716159707	10
0	3068	628.79829069095	9
0	3074	629.405578117165	10
0	3077	629.866325158411	9
0	3082	629.899574853449	8
0	3086	629.92937729833	9
0	3092	631.236104232757	10
0	3096	633.497184293011	11
0	3097	633.963239576428	10
0	3105	636.112436923511	9
0	3115	637.805464001942	8
0	3120	638.007616303476	7
0	3126	638.555447172946	8
0	3127	638.628514845568	7
0	3135	638.782843229786	8
0	3136	638.899745107697	7
0	3141	639.36351436336	6
0	3146	639.644450985482	5
0	3150	640.003043834194	6
0	3154	641.77961203851	7
0	3155	642.022907304779	6
0	3159	642.317553095194	7
0	3163	644.255353900978	8
0	3164	644.474957290531	7
0	3168	644.77511780514	8
0	3172	645.062740514723	9
0	3175	648.924083560119	8
0	3180	649.897081414721	7
0	3185	650.324650923855	6
0	3189	650.412259302443	7
0	3192	650.547295026062	6
0	3200	651.274825966741	7
0	3201	651.465275770167	6
0	3205	651.85342462308	7
0	3209	653.049915053789	8
0	3210	653.225053036097	7
0	3216	655.290266059844	6
0	3223	655.904221198274	5
0	3228	656.189777707301	4
0	3234	656.639635647274	3
0	3239	656.978299972117	2
0	3244	657.807071522769	1
0	3248	658.131401928134	2
0	3250	658.159326064644	3
0	3254	658.18652761662	4
0	3255	658.706502191599	3
0	3261	659.25457429807	4
0	3262	660.450077599827	3
0	3266	660.45899088617	4
0	3270	660.90687280706	5
0	3272	661.168598678617	6
0	3273	662.021252006836	5
0	3278	662.886110773152	4
0	3282	663.680136402215	5
0	3284	664.200986541193	6
0	3287	664.355094778106	5
0	3297	665.285745928638	6
0	3299	665.459676284006	7
0	3301	665.585083428511	8
0	3303	665.689935466215	9
0	3304	666.6801684828	8
0	3310	670.394047236358	9
0	3313	670.852827862187	8
0	3324	673.162917277683	7
0	3329	673.271323539795	6
0	3336	673.517250059923	5
0	3340	674.312075477312	6
0	3342	675.967479120828	7
0	3346	678.007799243545	8
0	3348	678.436281087159	9
0	3349	678.53676431928	8
0	3357	679.397478172846	7
0	3363	679.45100639931	8
0	3364	680.976811525102	7
0	3368	681.675104172023	8
0	3372	683.095999269213	7
0	3377	683.327882017686	6
0	3385	685.456787569592	5
0	3390	685.541078363493	4
0	3396	685.979635237175	5
0	3398	686.014050623467	6
0	3399	686.265002272174	5
0	3403	688.450676175794	6
0	3406	690.460785277519	5
0	3416	693.544869897895	4
0	3424	694.677481536733	5
0	3426	695.220283855932	4
0	3431	695.805777487544	3
0	3435	697.649360903736	4
0	3437	697.78607761363	5
0	3439	699.490100568459	6
0	3443	700.511728665239	5
0	3450	700.768986555255	6
0	3452	700.865960602875	5
0	3458	701.456580706011	4
0	3465	702.818593045098	5
0	3467	703.350121084534	4
0	3473	703.552542800863	5
0	3474	704.877521476491	4
0	3479	705.102646063981	3
0	3486	705.761263280328	4
0	3487	705.899848416339	3
0	3493	706.663906451484	4
0	3494	707.288544241	3
0	3500	708.375253949645	2
0	3506	708.513172291022	3
0	3507	708.552680869111	2
0	3511	709.57670415458	3
0	3513	709.935721546557	4
0	3517	710.737992245675	5
0	3520	712.568082057916	4
0	3524	712.772370831163	5
0	3527	713.400103134997	4
0	3532	713.937145671987	3
0	3537	714.472999428612	2
0	3544	717.249415052222	1
0	3549	717.469480903229	0
0	3561	718.678555121007	1
0	3563	718.894365021303	0
0	3573	719.58203953337	1
0	3574	719.722276565378	0
0	3613	725.809647857079	1
0	3614	726.352703789123	0
0	3630	729.505061097708	1
0	3637	731.424191054738	2
0	3639	732.411303932026	3
0	3641	733.632377494922	2
0	3647	734.252471578221	3
0	3649	734.543791574558	4
0	3650	734.700813602353	3
0	3658	736.777252087181	2
0	3664	737.131467787796	3
0	3665	737.217257978457	2
0	3670	737.849946435616	1
0	3678	740.15435530349	2
0	3680	741.520112935103	1
0	3685	741.832612136136	0
0	3693	745.415871635801	1
0	3694	745.804337334068	0
0	3698	746.062730986637	1
0	3700	746.985289912432	2
0	3702	746.985411056022	3
0	3706	747.941140434795	4
0	3707	748.407485369846	3
0	3714	749.747142261363	2
0	3720	750.176052838179	3
0	3722	750.228209483992	2
0	3727	750.968574408999	1
0	3733	752.996141419655	2
0	3737	753.824873032179	1
0	3743	755.113001036459	2
0	3744	755.17576633091	1
0	3751	756.592208970148	0
0	3758	758.084426571758	1
0	3762	758.103265384877	2
0	3766	758.319304476911	3
0	3767	758.492843290941	2
0	3772	758.543103316538	1
0	3777	758.894928760329	0
0	3781	761.377548945439	1
0	3787	764.047601496778	0
0	3803	764.345443879492	1
0	3805	764.906379154417	2
0	3807	765.51017985003	3
0	3810	766.735941801179	4
0	3812	766.934913485424	5
0	3814	767.390273456471	6
0	3817	768.398403377353	5
0	3822	768.497547644268	4
0	3828	769.464577155246	3
0	3837	770.337561888517	2
0	3842	770.485963355418	1
0	3848	771.575706499122	2
0	3849	773.170062925761	1
0	3856	773.456549174737	2
0	3859	774.179214486485	3
0	3860	774.47976694694	2
0	3865	774.703436270959	1
0	3870	774.912845638695	0
0	3887	782.044665955785	1
0	3890	782.340461674657	0
0	3896	783.125652739835	1
0	3897	783.405119384797	0
0	3915	785.492340350056	1
0	3917	787.641765129537	2
0	3918	788.052599031044	1
0	3923	788.877554375622	0
0	3955	795.395686336482	1
0	3957	795.731079433711	2
0	3959	796.446290650783	3
0	3963	797.608956709662	4
0	3964	798.0229767232	3
0	3970	798.126163249144	4
0	3975	798.747234544487	5
0	3976	798.922430799686	4
0	3982	798.963110694142	5
0	3983	799.029997885994	4
0	3990	801.239724538073	3
0	3996	801.747617647408	2
0	4001	802.07794954791	1
0	4006	802.463952895548	0
0	4023	807.111031598987	1
0	4029	808.254142305924	2
0	4030	808.952634197638	1
0	4035	809.174852592929	0
0	4051	811.00040992505	1
0	4052	811.011932394187	0
0	4071	813.932432111945	1
0	4072	814.099578058891	0
0	4083	817.079785813584	1
0	4087	817.917202260502	2
0	4088	818.224072601337	1
0	4093	818.666575792816	0
0	4097	821.385750631324	1
0	4100	822.590329490353	0
0	4111	823.499814439627	1
0	4113	823.854364814752	2
0	4114	824.067198271715	1
0	4120	825.046303745615	0
0	4162	831.939184354817	1
0	4164	831.968966865842	2
0	4166	832.670613845978	3
0	4167	832.774421936115	2
0	4172	833.126329487174	1
0	4177	833.506700608968	0
0	4197	835.917014798883	1
0	4202	837.313816001307	0
0	4208	838.8322523954	1
0	4212	839.828655668157	0
0	4225	841.819360015843	1
0	4227	842.343134304362	0
0	4240	844.801601448218	1
0	4242	844.829064638181	2
0	4247	846.280916617396	3
0	4249	846.922141932135	4
0	4250	847.039428567832	3
0	4254	847.294644435918	4
0	4256	847.374668880404	5
0	4258	847.435984805164	6
0	4264	848.560733639067	7
0	4266	849.097635444508	6
0	4271	849.927372950762	5
0	4275	849.956624154942	6
0	4277	850.802426386585	7
0	4280	851.170596142286	6
0	4287	852.365685841866	7
0	4288	852.707133961539	6
0	4294	853.131221061209	7
0	4295	854.562515689617	6
0	4302	856.950659949604	5
0	4307	857.536086649979	4
0	4313	859.878440673128	5
0	4317	860.60556400238	4
0	4323	861.139778576507	3
0	4329	862.775375631578	4
0	4330	863.204476607531	3
0	4335	864.071758684912	2
0	4342	864.78200781607	1
0	4347	865.945900835522	0
0	4364	867.63964618146	1
0	4366	867.923477768808	2
0	4368	868.090860286707	3
0	4370	868.520309208176	4
0	4372	868.829126955611	5
0	4373	868.991987881429	4
0	4377	871.142460438489	5
0	4379	871.243994139988	6
0	4381	871.718736618461	7
0	4383	871.933583270583	8
0	4385	872.025524108703	9
0	4387	872.313665897966	10
0	4391	872.715717203696	9
0	4396	873.130295961903	8
0	4404	876.251070704764	9
0	4408	878.737984964235	10
0	4410	880.425154159795	11
0	4414	881.391251146747	10
0	4420	881.435537594986	11
0	4421	881.935288972044	10
0	4425	882.659908051454	11
0	4429	884.096790341383	12
0	4431	884.662583617324	13
0	4433	885.40814399756	12
0	4438	885.782163946528	11
0	4443	886.28383008564	10
0	4449	888.041817007189	9
0	4458	888.984144038215	10
0	4459	889.029502308104	9
0	4463	889.139897270131	10
0	4465	890.751701618581	11
0	4468	891.44512518121	10
0	4473	891.936694308263	9
0	4479	894.363167313878	10
0	4483	894.996842913952	11
0	4487	896.422452663075	10
0	4493	896.492404604167	11
0	4494	896.507963380585	10
0	4499	897.088598826384	9
0	4503	897.220634575291	10
0	4505	897.238522327559	11
0	4507	898.466170125079	12
0	4512	901.04998488725	11
0	4517	902.311059165084	10
0	4523	902.904522781615	11
0	4524	902.94853470727	10
0	4529	905.765569552154	9
0	4533	905.983927067865	10
0	4535	906.016699703035	11
0	4541	906.94058235276	12
0	4543	907.282826758705	13
0	4544	907.356181243463	12
0	4550	907.916620393157	11
0	4556	908.439500359392	10
0	4561	908.61789429476	9
0	4566	908.965037382147	8
0	4575	911.850113164222	9
0	4576	912.206758350869	8
0	4582	912.584448666011	9
0	4585	913.014948958394	8
0	4589	914.100862606773	9
0	4593	915.30809074686	8
0	4600	916.166123944296	7
0	4605	917.717500739235	6
0	4609	921.696735333943	7
0	4613	922.674010736378	8
0	4614	922.798675537362	7
0	4620	922.942690851861	8
0	4621	922.976183712016	7
0	4625	923.266549145162	8
0	4631	924.737462844524	7
0	4636	924.834986681432	6
0	4641	924.8619096345	5
0	4647	925.671403243934	6
0	4650	926.134077254651	5
0	4654	927.272841142593	6
0	4656	928.60310717468	7
0	4658	930.379787950661	8
0	4661	931.033324333745	7
0	4670	932.841757055777	6
0	4676	934.095049617129	5
0	4682	935.666367446207	4
0	4687	936.50544037621	3
0	4691	936.864693103544	4
0	4696	938.831123695285	3
0	4701	939.240358318575	2
0	4705	941.121924095789	3
0	4708	942.760431929418	2
0	4718	946.18711815789	3
0	4720	946.409192902036	4
0	4721	946.587636383862	3
0	4725	946.591133877776	4
0	4730	951.508733552861	3
0	4734	951.934870335657	4
0	4736	953.285352765891	5
0	4739	954.702960412479	4
0	4745	956.422084234149	5
0	4750	958.494953611347	4
0	4757	959.321206384451	3
0	4762	959.411567873625	2
0	4766	959.639614862611	3
0	4772	960.860409600064	4
0	4775	961.379332960567	3
0	4782	962.021936109096	2
0	4786	962.625528405686	3
0	4789	964.317715026069	2
0	4793	964.91137685614	3
0	4799	966.785865613277	2
0	4804	966.835159933861	1
0	4810	968.641147257905	2
0	4814	970.649442658868	3
0	4816	970.938172234068	4
0	4819	971.833448347641	3
0	4824	973.24992446355	2
0	4829	974.632277262108	1
0	4835	975.426375266441	0
0	4865	977.414619710094	1
0	4871	980.19761932456	2
0	4872	980.764097335392	1
0	4877	981.158599951255	0
0	4886	983.127597067583	1
0	4888	983.186621228276	2
0	4895	984.520252409124	1
0	4901	984.960850634208	2
0	4904	985.390536379037	1
0	4911	986.033998078704	0
0	4925	988.401759431763	1
0	4931	988.718775141407	2
0	4932	989.415337931921	1
0	4936	989.61333391085	2
0	4938	990.010007435201	3
0	4942	990.738462829473	4
0	4945	993.207816015232	3
0	4950	993.923382527392	2
0	4956	995.080136617343	1
0	4961	996.003010196163	0
0	4986	1000.083583113654	1
0	4990	1000.934738578091	2
0	4991	1001.110822353053	1
0	4996	1001.905060097885	0
0	5002	1002.347331828484	1
0	5004	1002.859204760633	2
0	5005	1002.958899380457	1
0	5010	1006.573244926523	0
0	5014	1007.275783564662	1
0	5019	1008.765326924945	0
0	5023	1009.450276702799	1
0	5025	1010.251150910786	2
0	5031	1010.986137522156	3
0	5033	1011.073546360644	4
0	5035	1011.564079670723	5
0	5037	1011.564814506058	6
0	5039	1011.654214511266	7
0	5040	1012.239626480822	6
0	5044	1012.293888610561	7
0	5048	1013.534044641006	8
0	5049	1014.140883739845	7
0	5055	1014.577458775597	8
0	5057	1014.753565859956	9
0	5058	1015.16393991652	8
0	5062	1017.990683277019	9
0	5064	1018.400585666414	10
0	5066	1018.471817919868	11
0	5069	1019.372719065304	10
0	5073	1019.544533048281	11
0	5075	1020.746788845513	12
0	5077	1021.985667681018	13
0	5084	1024.150558128476	12
0	5090	1025.202843529242	13
0	5091	1026.178975398374	12
0	5099	1027.49159964287	13
0	5102	1028.994487976834	14
0	5103	1029.493937094262	13
0	5108	1030.002324806608	12
0	5114	1031.222081094459	13
0	5116	1031.77625973316	14
0	5118	1032.325902844969	15
0	5119	1032.571361350436	14
0	5125	1032.902061445347	15
0	5126	1034.09009895838	14
0	5132	1036.985307773992	15
0	5136	1037.913493316091	16
0	5137	1038.303043258622	15
0	5146	1039.505863474379	14
0	5153	1042.277989606914	13
0	5158	1042.586040445399	12
0	5162	1042.858983342208	13
0	5167	1044.477717609858	12
0	5172	1045.253260234045	11
0	5176	1046.669267037591	12
0	5179	1051.863882673384	11
0	5183	1051.877363906418	12
0	5186	1052.875446695881	11
0	5190	1053.782994815732	12
0	5192	1053.873516759767	13
0	5196	1053.974959805632	14
0	5198	1054.790630283426	13
0	5203	1054.824377246694	12
0	5209	1055.07227840371	13
0	5211	1055.217413299609	12
0	5219	1055.900567507076	13
0	5220	1056.516954537433	12
0	5225	1057.021871176308	11
0	5229	1058.818003181142	12
0	5231	1061.021110760547	13
0	5233	1061.332217364554	14
0	5235	1061.508148294866	15
0	5238	1062.005200892027	14
0	5243	1063.511087488019	13
0	5250	1064.519979279272	12
0	5258	1066.106364698709	13
0	5259	1066.367467571425	12
0	5266	1067.883511270685	11
0	5271	1067.931885283175	10
0	5277	1069.044599659462	11
0	5278	1069.231504470536	10
0	5286	1071.774747839322	9
0	5292	1072.124193721556	8
0	5300	1072.756276425977	9
0	5302	1073.616058632846	8
0	5307	1075.343692272713	7
0	5312	1075.528684679002	6
0	5317	1075.68336125762	5
0	5321	1076.467699617976	6
0	5325	1078.155821323031	7
0	5326	1078.305954471796	6
0	5330	1078.40142548842	7
0	5336	1078.891383362545	8
0	5339	1082.327641472658	7
0	5345	1082.80961821449	6
0	5350	1082.902560428191	5
0	5354	1083.459986288021	6
0	5357	1083.823768466023	5
0	5362	1084.151891624644	4
0	5368	1084.236310499345	5
0	5371	1084.98568458782	4
0	5375	1085.597082545477	5
0	5377	1085.928924935344	6
0	5379	1086.096663420067	7
0	5384	1087.862852455275	6
0	5390	1089.020534415798	5
0	5395	1090.33296425478	4
0	5400	1090.456407778914	3
0	5405	1091.671117861819	2
0	5410	1091.931981777924	1
0	5415	1093.486239673963	0
0	5419	1093.589901088032	1
0	5425	1094.460950800255	2
0	5427	1095.176666298948	1
0	5433	1095.357814746965	2
0	5434	1095.668262993859	1
0	5438	1095.822972419366	2
0	5448	1098.848656254292	1
0	5454	1098.929734076999	2
0	5458	1099.526925432216	3
0	5459	1101.765107763864	2
0	5465	1101.797652108583	3
0	5467	1103.470160496617	4
0	5470	1103.984339474798	3
0	5476	1104.063115031554	4
0	5477	1104.762379476057	3
0	5484	1106.198263616184	4
0	5487	1106.645429917679	3
0	5494	1106.854365026736	4
0	5495	1107.054746658361	3
0	5500	1107.116359077691	2
0	5506	1107.627890950217	3
0	5509	1108.498346000119	2
0	5515	1111.49661775814	3
0	5517	1112.408897928179	4
0	5518	1112.54350065441	3
0	5522	1112.559638673436	4
0	5526	1115.47023568756	5
0	5528	1116.089737687903	6
0	5531	1117.754937971352	5
0	5535	1119.013871589168	6
0	5544	1121.757355502809	5
0	5548	1122.126025110439	6
0	5551	1124.390237523855	5
0	5559	1125.8036207067	6
0	5560	1127.023504849125	5
0	5570	1129.167368257587	6
0	5571	1129.339765849458	5
0	5577	1130.526639544203	4
0	5582	1131.283609782155	3
0	5587	1131.604024965422	2
0	5592	1133.932922913777	1
0	5598	1135.061799805611	2
0	5600	1135.554658403978	3
0	5601	1135.573347411901	2
0	5608	1137.734166664974	1
0	5612	1139.702098676583	2
0	5618	1143.90093318919	1
0	5624	1145.947492186321	2
0	5625	1146.621531287443	1
0	5629	1147.285434008691	2
0	5631	1147.312245150731	3
0	5635	1148.565958878008	4
0	5637	1150.536573127684	5
0	5640	1151.221217066374	4
0	5648	1151.951744244624	3
0	5653	1151.99993829499	2
0	5658	1156.251611505117	1
0	5664	1157.795368040309	0
0	5680	1159.572371699734	1
0	5681	1160.229987570984	0
0	5692	1160.3304031615	1
0	5696	1161.317782345925	2
0	5699	1162.678679955973	1
0	5705	1162.859163649233	0
0	5728	1168.356077508954	1
0	5734	1169.532302225591	2
0	5736	1172.501043103846	3
0	5739	1172.852112517061	2
0	5746	1173.527327204728	3
0	5748	1173.813101691007	4
0	5749	1175.195425480775	3
0	5754	1175.295098105721	2
0	5763	1175.819380714731	1
0	5771	1176.303731946585	0
0	5777	1176.628053004552	1
0	5780	1178.785747312398	0
0	5786	1178.946695106146	1
0	5787	1180.418538295732	0
0	5833	1187.570765240485	1
0	5835	1188.337537992054	2
0	5837	1188.924369969615	3
0	5838	1189.060950342956	2
0	5844	1189.142199455959	3
0	5846	1189.380647547998	4
0	5848	1190.418367356724	3
0	5853	1190.554849050351	2
0	5861	1191.208747844853	1
0	5868	1191.230086994454	0
0	5872	1191.249458388722	1
0	5876	1193.758833777563	2
0	5877	1193.851818041393	1
0	5881	1194.464555689773	2
0	5886	1195.10121067947	3
0	5887	1195.351377956272	2
0	5894	1195.831843041112	3
0	5895	1196.119227752541	2
0	5899	1196.955461422226	3
0	5905	1198.124876987126	2
0	5910	1198.47683223883	1
0	5915	1199.524358569865	0
0	5919	1200.26232597297	1
0	5921	1202.563831549674	2
0	5924	1202.817140548095	1
0	5928	1203.099186910284	2
0	5930	1203.220404686084	3
0	5933	1203.556418038459	2
0	5941	1205.704388136384	1
0	5949	1207.185193825959	0
0	5965	1208.045417846339	1
0	5970	1209.395859521967	2
0	5971	1209.497011879163	1
0	5978	1209.663695650462	0
0	5991	1210.618583615683	1
0	5993	1210.958562096466	0
0	6012	1213.234373717424	1
0	6014	1213.675332331595	0
0	6021	1215.027782379517	1
0	6024	1215.235851443466	2
0	6025	1215.350623214621	1
0	6030	1215.556622589891	0
0	6036	1216.8010442213	1
0	6038	1219.1685124529	0
0	6050	1220.574571999824	1
0	6053	1220.903109395447	2
0	6057	1221.96032353914	1
0	6063	1224.230476555378	0
0	6069	1224.342731162933	1
0	6070	1224.724616046915	0
0	6086	1225.3381549687	1
0	6088	1225.553735697789	2
0	6091	1226.304808769352	1
0	6097	1227.949163047272	2
0	6098	1227.959635201639	1
0	6103	1229.033857153754	0
0	6115	1230.502561233666	1
0	6116	1230.745684973588	0
0	6130	1232.420010335727	1
0	6133	1233.641699025348	0
0	6152	1235.553548535519	1
0	6153	1235.83376136171	0
0	6163	1237.034680273822	1
0	6164	1237.124411084783	0
0	6168	1237.531449075126	1
0	6173	1238.296654017506	0
0	6201	1241.230370504463	1
0	6204	1241.959687597628	0
0	6231	1245.918243613628	1
0	6232	1246.719825834757	0
0	6238	1246.873239511469	1
0	6242	1247.599076412672	0
0	6284	1255.088757632214	1
0	6287	1255.324727228183	0
0	6304	1258.019423434514	1
0	6306	1258.01957083385	2
0	6314	1260.962982497803	3
0	6316	1262.225007199248	4
0	6320	1262.837838173833	3
0	6325	1263.007712403492	2
0	6331	1263.745017854838	3
0	6333	1263.788899365314	4
0	6335	1263.889753417199	3
0	6340	1264.091974263254	2
0	6347	1265.578749788347	1
0	6352	1266.208784555012	0
0	6356	1267.464467334603	1
0	6363	1269.355321593625	0
0	6369	1269.652808758153	1
0	6370	1269.965245121654	0
0	6390	1273.078961986801	1
0	6391	1273.209894651029	0
0	6399	1273.453874962531	1
0	6400	1274.187350950883	0
0	6406	1274.364266831689	1
0	6409	1274.888541464369	2
0	6410	1274.897789946765	1
0	6414	1275.297034258776	2
0	6416	1276.594729647466	3
0	6420	1277.28696522824	4
0	6422	1277.851666135726	5
0	6424	1278.402741964416	6
0	6429	1278.691235220548	5
0	6435	1280.152741963817	6
0	6436	1280.898243394524	5
0	6441	1281.657570067819	4
0	6446	1284.606158417956	3
0	6450	1284.892826569899	4
0	6453	1285.903172078782	3
0	6459	1286.663072627664	4
0	6462	1287.696951640751	3
0	6467	1288.689423130665	2
0	6472	1288.906120361621	1
0	6476	1289.356806435765	2
0	6480	1289.8982980701	3
0	6481	1289.921325095208	2
0	6486	1291.807598415898	1
0	6492	1291.987488931537	2
0	6495	1293.196993644586	1
0	6500	1294.65607724762	0
0	6504	1295.422227508171	1
0	6508	1295.969963596269	0
0	6519	1296.419886389748	1
0	6520	1296.425199212985	0
0	6524	1298.797446300405	1
0	6526	1299.928337634066	2
0	6530	1301.996322693873	3
0	6532	1302.211536613452	4
0	6534	1302.562472729119	3
0	6540	1304.696097605002	4
0	6541	1304.811768184836	3
0	6555	1309.796032671859	4
0	6558	1310.073893694185	3
0	6562	1310.250827446339	4
0	6564	1310.251200908962	5
0	6568	1311.021959276865	6
0	6569	1311.664197891726	5
0	6576	1313.13321969712	4
0	6582	1313.194424575537	5
0	6584	1313.946592900869	4
0	6591	1314.89379365039	5
0	6593	1315.452321974355	4
0	6599	1315.840835080359	5
0	6600	1315.877177865018	4
0	6608	1316.958762359927	5
0	6610	1316.973377661233	6
0	6612	1317.295392249234	7
0	6614	1317.363348373678	8
0	6615	1317.580531218116	7
0	6620	1320.650792947525	6
0	6628	1322.179408305302	5
0	6634	1322.257012484544	6
0	6636	1322.652910900579	7
0	6637	1322.853089891501	6
0	6642	1324.271580986676	5
0	6647	1325.752456711616	4
0	6651	1325.765046171795	5
0	6653	1326.836116808273	6
0	6658	1328.828660527611	7
0	6659	1329.159330154888	6
0	6665	1329.917221003393	5
0	6673	1330.537928266464	4
0	6679	1330.996680935756	5
0	6680	1331.295701229427	4
0	6685	1333.111650313467	3
0	6690	1334.344074458649	2
0	6694	1335.781409254038	3
0	6696	1336.257003812512	4
0	6699	1336.714980190812	3
0	6704	1337.570456462567	2
0	6711	1338.382156633012	1
0	6716	1338.701058922869	0
0	6729	1341.202631996645	1
0	6730	1341.287262013095	0
0	6736	1342.169040242	1
0	6741	1342.714936184511	0
0	6769	1348.688754764931	1
0	6770	1349.04280062738	0
0	6783	1350.574862363042	1
0	6788	1352.289180680899	2
0	6789	1352.591266644813	1
0	6800	1354.055649057519	2
0	6801	1355.024115093566	1
0	6806	1355.065394871362	0
0	6830	1357.287299790444	1
0	6836	1357.777955946097	2
0	6839	1359.287903991333	1
0	6844	1361.217786849353	0
0	6861	1362.201704156138	1
0	6864	1364.277110108022	0
0	6893	1367.511050630693	1
0	6896	1368.484564039756	2
0	6898	1370.049782509891	1
0	6904	1370.805688554271	2
0	6905	1371.106864853865	1
0	6913	1371.731125511195	0
0	6926	1372.827933103193	1
0	6927	1372.978189945437	0
0	6933	1374.334467622387	1
0	6934	1376.359238811666	0
0	6938	1376.838370685019	1
0	6941	1377.927957873535	0
0	6947	1378.292010017978	1
0	6948	1379.020408501414	0
0	6952	1379.334679643006	1
0	6955	1380.080234981167	0
0	6987	1385.933435777681	1
0	6990	1388.979037944325	0
0	7006	1391.938393926268	1
0	7007	1392.833497686389	0
0	7021	1393.697873329595	1
0	7023	1393.729473892656	2
0	7029	1395.545251105695	1
0	7034	1395.861625580484	0
0	7040	1396.008866185137	1
0	7041	1396.040642197305	0
0	7063	1397.596599584128	1
0	7065	1398.36109439108	0
0	7077	1402.151084127501	1
0	7081	1403.814051130014	2
0	7082	1403.846671382624	1
0	7088	1404.803399401089	2
0	7089	1404.838366081746	1
0	7095	1406.307609745486	0
0	7110	1410.451621918763	1
0	7111	1410.996616017563	0
0	7123	1411.933213938768	1
0	7124	1412.526860827616	0
0	7130	1412.576398854354	1
0	7131	1413.080499863214	0
0	7135	1413.110981356987	1
0	7137	1413.933391812044	2
0	7139	1414.001174656085	3
0	7141	1414.423260054921	4
0	7145	1414.961146649717	5
0	7147	1415.17866422008	6
0	7149	1416.873581359271	7
0	7152	1416.969034955325	6
0	7160	1418.963124582394	5
0	7166	1420.300492336852	4
0	7172	1420.325439740281	5
0	7173	1420.617612607236	4
0	7179	1420.631710572929	5
0	7181	1421.40308319639	4
0	7186	1421.460980031819	3
0	7192	1421.747060821241	4
0	7193	1422.146267140814	3
0	7199	1423.328757335806	4
0	7200	1423.612353719295	3
0	7204	1424.11268922226	4
0	7207	1425.168549071469	3
0	7212	1426.091765696677	2
0	7218	1429.040768804733	1
0	7224	1429.283190589569	2
0	7225	1429.423949881116	1
0	7230	1430.614233047212	0
0	7234	1433.050738653121	1
0	7241	1437.514517679837	0
0	7263	1439.345330002988	1
0	7264	1439.923877968614	0
0	7280	1441.952025148227	1
0	7282	1442.203687102996	2
0	7284	1443.875153406294	3
0	7289	1444.407302868514	4
0	7290	1444.542396324919	3
0	7294	1445.368669613951	4
0	7299	1446.004094154479	3
0	7307	1447.114228591061	2
0	7313	1448.14643929367	1
0	7319	1449.219778262457	0
0	7325	1451.255274865849	1
0	7328	1452.254143223967	0
0	7345	1455.610410905684	1
0	7347	1455.981213310833	2
0	7349	1456.028235014161	3
0	7351	1456.585673198147	4
0	7357	1458.100420796157	5
0	7358	1458.177526101358	4
0	7365	1459.370371750274	3
0	7372	1459.788348147172	2
0	7379	1460.016191682795	1
0	7384	1460.347536165691	0
0	7399	1461.062546617653	1
0	7407	1464.46016968566	0
0	7418	1464.546895830546	1
0	7419	1464.73714204242	0
0	7459	1470.557897031066	1
0	7461	1471.102302116603	0
0	7480	1473.363479300604	1
0	7486	1474.576147792986	0
0	7511	1477.407045270484	1
0	7513	1479.586299616331	2
0	7518	1480.67653710803	1
0	7525	1481.18446610951	0
0	7533	1481.541929358124	1
0	7538	1483.072110337788	2
0	7540	1483.704867564388	3
0	7541	1484.357912386349	2
0	7547	1484.770460241598	1
0	7552	1484.784210305671	0
0	7565	1485.428576854013	1
0	7567	1486.530309576005	2
0	7569	1486.758392001031	3
0	7570	1486.91939172024	2
0	7579	1488.370801742199	3
0	7581	1489.245696102041	2
0	7587	1489.248874330819	3
0	7588	1489.281083912299	2
0	7594	1493.44444275454	1
0	7600	1493.507730049888	2
0	7602	1493.543139169263	3
0	7605	1494.413883166829	2
0	7610	1495.200004706328	1
0	7617	1496.120247821268	2
0	7618	1496.33566549562	1
0	7623	1496.576816188	0
0	7649	1498.147156760864	1
0	7652	1499.153356215911	0
0	7672	1504.420437982796	1
0	7676	1506.942826654597	0
0	7689	1507.649476499901	1
0	7691	1507.761555373845	2
0	7692	1508.198546472182	1
0	7699	1509.321396369281	0
0	7703	1509.681307646619	1
0	7706	1510.251094026874	0
0	7712	1511.421056392553	1
0	7714	1514.307732824824	2
0	7719	1517.082189853974	1
0	7724	1517.768466656276	0
0	7737	1520.728476124028	1
0	7740	1521.532651533898	0
0	7751	1522.141706438558	1
0	7756	1523.066965845937	2
0	7758	1523.237901893457	3
0	7760	1523.985595565704	2
0	7767	1525.799695240049	1
0	7773	1526.068358002198	2
0	7774	1526.308703758173	1
0	7780	1526.883197447789	2
0	7786	1529.33183760318	1
0	7793	1529.887439315989	0
0	7807	1530.793791497458	1
0	7808	1530.845693368522	0
0	7819	1532.460010032717	1
0	7820	1533.155336614616	0
0	7834	1536.744107940622	1
0	7838	1537.17671042789	0
0	7849	1537.913961877206	1
0	7852	1538.742633006966	2
0	7854	1540.480613173915	1
0	7860	1540.820020680799	0
0	7874	1541.983104525896	1
0	7877	1542.403228988556	0
0	7885	1542.784525841284	1
0	7888	1543.451792002582	0
0	7914	1545.689434751652	1
0	7915	1546.649287561046	0
0	7924	1548.207165265588	1
0	7928	1551.586350163296	0
0	7940	1552.545383514131	1
0	7941	1552.825777073975	0
0	7950	1553.760924564464	1
0	7952	1553.799446373192	2
0	7953	1554.758485328264	1
0	7958	1554.765270937611	0
0	7964	1554.988883376969	1
0	7966	1556.507928327908	2
0	7969	1559.149142806713	1
0	7975	1559.907185255839	2
0	7977	1560.686408623007	1
0	7982	1561.03593215364	0
0	7986	1561.288044421333	1
0	7994	1563.381974951648	2
0	7996	1563.7588671811	1
0	8003	1565.632867920913	0
0	8043	1571.927766764307	1
0	8044	1572.147756385884	0
0	8061	1576.250144330103	1
0	8062	1577.000703193682	0
0	8077	1578.358402649757	1
0	8082	1579.557334581227	2
0	8084	1580.014221935861	1
0	8092	1580.58208457074	0
0	8103	1583.224975133661	1
0	8104	1583.292420542167	0
0	8121	1585.871043363227	1
0	8124	1587.302049404296	2
0	8125	1587.982271179314	1
0	8133	1588.319663405352	2
0	8134	1589.267048907046	1
0	8140	1590.007821592657	2
0	8142	1590.038465796564	3
0	8143	1590.362641931482	2
0	8150	1590.909396262606	3
0	8151	1591.841103697213	2
0	8157	1592.959934557255	1
0	8166	1593.416158035974	0
0	8192	1595.863829753705	1
0	8193	1596.179986175718	0
0	8199	1596.55270487258	1
0	8201	1597.107417905703	0
0	8221	1600.628800565309	1
0	8224	1601.473252656986	0
0	8233	1602.426420961193	1
0	8235	1603.742219857919	2
0	8239	1605.752222752505	3
0	8243	1607.502241575629	4
0	8249	1611.02586954822	5
0	8251	1611.650275552138	4
0	8257	1611.715630217088	5
0	8260	1612.111149557748	6
0	8261	1612.150550009372	5
0	8266	1612.384943616017	4
0	8272	1612.519730771106	5
0	8276	1613.379936384607	6
0	8278	1613.716118924348	7
0	8282	1614.535435951114	8
0	8283	1614.726140083396	7
0	8288	1614.805543244243	6
0	8293	1614.898798162159	5
0	8299	1616.23735859603	6
0	8305	1618.25128731734	5
0	8311	1618.315298344339	6
0	8318	1620.418019108627	7
0	8322	1622.240954369396	8
0	8327	1626.437273016675	7
0	8332	1627.192042135811	6
0	8337	1627.268490343127	5
0	8343	1628.318474487184	6
0	8345	1628.577640276544	7
0	8346	1629.697699745978	6
0	8350	1629.771021709295	7
0	8354	1630.097487217583	8
0	8356	1630.602333198163	7
0	8361	1631.341465252907	6
0	8365	1631.640238158518	7
0	8367	1632.471969885997	8
0	8369	1633.086803825598	9
0	8373	1633.631394649167	10
0	8375	1635.05973025482	11
0	8378	1635.797404008056	10
0	8382	1635.966981913274	11
0	8385	1637.023109634823	10
0	8391	1637.587681917718	9
0	8397	1638.584096614505	8
0	8402	1638.868484562357	7
0	8407	1639.634499538913	6
0	8411	1640.202887702704	7
0	8413	1640.471067361849	8
0	8418	1642.103894397156	7
0	8425	1643.457585391785	6
0	8433	1646.086963597	5
0	8438	1646.465456697557	4
0	8443	1646.76322831936	3
0	8448	1648.48187664913	2
0	8453	1648.905653207595	1
0	8459	1649.528463252981	2
0	8461	1649.572991247737	3
0	8463	1649.786643690562	4
0	8467	1652.435730714538	5
0	8468	1652.678421881429	4
0	8474	1654.082332993192	3
0	8479	1654.086384733677	2
0	8489	1656.339285520179	3
0	8490	1658.077020624054	2
0	8497	1660.378404340196	3
0	8501	1661.295226873503	4
0	8503	1662.001689689475	5
0	8504	1662.645852679963	4
0	8510	1664.500914290785	3
0	8515	1664.818211438023	2
0	8519	1666.329632225041	3
0	8525	1668.145278875025	2
0	8530	1668.250292787408	1
0	8536	1668.760579073135	2
0	8539	1669.614491572534	1
0	8544	1669.82815011453	0
0	8550	1671.281929359724	1
0	8553	1672.088572139504	0
0	8570	1674.434509229711	1
0	8572	1675.047607402585	0
0	8576	1675.850036707166	1
0	8579	1676.437434319915	0
0	8595	1677.130230799979	1
0	8598	1677.49085140987	2
0	8599	1677.71030383807	1
0	8609	1678.677508078895	0
0	8622	1680.3911368794	1
0	8625	1681.503553491909	0
0	8631	1681.60859394867	1
0	8633	1681.672908575597	2
0	8634	1681.846499415241	1
0	8640	1681.901149861405	2
0	8643	1683.088399065009	3
0	8644	1683.315355415457	2
0	8654	1684.67421988871	1
0	8659	1685.412848410676	0
0	8690	1690.507558226033	1
0	8693	1691.19191252077	0
0	8702	1691.347904509008	1
0	8705	1691.834600788656	0
0	8718	1693.07554560492	1
0	8720	1693.349369272877	2
0	8721	1693.643704435213	1
0	8726	1694.860555463657	0
0	8744	1700.334835419686	1
0	8746	1700.656622260395	0
0	8768	1703.979770585269	1
0	8772	1705.113287686306	2
0	8775	1706.033708572979	3
0	8776	1706.640118858765	2
0	8781	1706.885436876694	1
0	8786	1707.113235535685	0
0	8792	1707.318626551392	1
0	8794	1707.365179229439	2
0	8795	1707.809176243621	1
0	8800	1708.002091899015	0
0	8861	1717.40477464989	1
0	8862	1717.500726621727	0
0	8868	1717.863293314506	1
0	8870	1719.15030438479	0
0	8877	1719.541122570356	1
0	8878	1720.45767432706	0
0	8905	1727.540310024851	1
0	8906	1727.716718803171	0
0	8917	1729.724582928056	1
0	8919	1729.973563360548	2
0	8921	1730.020940568825	3
0	8924	1730.564454831663	4
0	8927	1732.101754108776	3
0	8932	1732.851341567902	2
0	8943	1734.11692072305	1
0	8948	1734.462821540263	0
0	8965	1735.202020588042	1
0	8966	1735.504803316178	0
0	8978	1736.477368793883	1
0	8980	1736.74839820353	2
0	8982	1736.798922289614	3
0	8989	1739.626837309808	4
0	8990	1739.809462316921	3
0	8998	1741.00048888478	2
0	9004	1741.65419808388	1
0	9009	1741.925145853534	0
0	9034	1744.255864029634	1
0	9038	1746.167924305314	0
0	9047	1746.646553479041	1
0	9048	1747.374094844173	0
0	9065	1750.036683610902	1
0	9066	1750.653804172716	0
0	9073	1751.067379330364	1
0	9074	1751.102751003612	0
0	9081	1751.824494593919	1
0	9083	1752.02037958395	2
0	9086	1752.591542426427	1
0	9091	1752.60630601735	0
0	9110	1758.646722127539	1
0	9111	1758.697743181241	0
0	9118	1758.967069164911	1
0	9119	1759.144462394391	0
0	9139	1761.584181991436	1
0	9142	1762.525915715036	0
0	9149	1762.831837929002	1
0	9152	1763.55150428633	2
0	9153	1763.575305498947	1
0	9158	1764.26524716766	0
0	9173	1765.813025967437	1
0	9179	1767.454748060057	2
0	9181	1769.697484245861	3
0	9184	1769.871409459427	2
0	9189	1770.433395871663	1
0	9196	1770.878566738616	2
0	9199	1771.138385918793	1
0	9204	1772.327677193231	0
0	9216	1773.523857563622	1
0	9218	1774.593483135879	2
0	9220	1775.022120962882	1
0	9224	1775.125702010848	2
0	9229	1778.845494217819	1
0	9233	1779.951117417398	2
0	9235	1780.712421683032	3
0	9237	1781.632238119637	4
0	9240	1783.196861372279	3
0	9244	1784.692639355172	4
0	9246	1784.798517032747	5
0	9256	1785.858321185422	6
0	9257	1785.926878394538	5
0	9262	1786.160101840776	4
0	9268	1787.153790209092	5
0	9269	1787.941440996435	4
0	9274	1788.552548913992	3
0	9281	1790.822023360728	2
0	9285	1792.706749616533	3
0	9288	1793.670280087782	2
0	9294	1794.377153166793	3
0	9295	1795.399228211414	2
0	9299	1795.514762909855	3
0	9302	1795.805078342844	2
0	9306	1796.18723166218	3
0	9308	1796.301126612416	4
0	9311	1796.899363753431	3
0	9315	1798.033039090257	4
0	9317	1799.558303618167	5
0	9320	1800.199053750531	4
0	9324	1800.916858666001	5
0	9328	1801.720527992887	6
0	9330	1801.936104930055	7
0	9333	1803.389810755493	6
0	9340	1804.856837484723	5
0	9345	1804.920762793675	4
0	9350	1805.113767600967	3
0	9357	1805.704998872263	2
0	9364	1808.149856500264	1
0	9369	1809.528940283557	0
0	9373	1809.590451795632	1
0	9375	1809.694941771185	2
0	9379	1811.542326919191	1
0	9384	1811.79173116555	0
0	9409	1816.638921016919	1
0	9410	1818.15158651488	0
0	9425	1819.47436122381	1
0	9427	1820.288927881743	2
0	9429	1821.377295699808	3
0	9431	1822.603303643602	4
0	9434	1826.795201100648	3
0	9439	1826.938506631783	2
0	9445	1826.966985115905	3
0	9446	1827.270316387307	2
0	9451	1827.681809398143	1
0	9456	1829.277304108031	0
0	9460	1829.718544477971	1
0	9470	1832.588124642575	2
0	9472	1832.874388497607	3
0	9474	1833.307157687388	4
0	9475	1833.383929303244	3
0	9483	1835.006681101417	4
0	9485	1835.077652272483	5
0	9486	1835.620974198131	4
0	9493	1837.116638274219	3
0	9498	1837.40345295133	2
0	9506	1838.993614422273	3
0	9507	1839.249361235707	2
0	9513	1839.99333685732	3
0	9514	1840.228104375201	2
0	9519	1840.527984672256	1
0	9524	1841.046356413046	0
0	9544	1843.656624094361	1
0	9545	1844.353912505889	0
0	9551	1844.655698672464	1
0	9552	1845.008124771194	0
0	9604	1855.87480803348	1
0	9611	1857.545436591208	2
0	9612	1857.651604111197	1
0	9618	1858.236616505749	0
0	9624	1858.415006462485	1
0	9627	1859.254566384773	0
0	9633	1860.594166690282	1
0	9634	1860.744989813019	0
0	9647	1862.604908379752	1
0	9649	1862.971970117993	2
0	9650	1863.099715382881	1
0	9656	1863.755394698627	0
0	9670	1865.084552864352	1
0	9671	1866.111150630465	0
0	9688	1867.248941102146	1
0	9689	1867.335149615707	0
0	9701	1867.68221636008	1
0	9704	1867.940546491689	0
0	9728	1874.603494212737	1
0	9730	1875.589239931842	0
0	9741	1876.08115243702	1
0	9743	1876.263561471461	2
0	9745	1878.060420332139	3
0	9747	1878.861041578838	4
0	9751	1880.464334668287	5
0	9752	1880.496071891194	4
0	9759	1880.545527244884	5
0	9760	1880.671068508536	4
0	9769	1884.072695720473	5
0	9770	1884.262451779405	4
0	9775	1884.560963701218	3
0	9780	1885.968934774895	2
0	9788	1888.728409402468	1
0	9792	1889.611277340207	2
0	9794	1890.528208033089	3
0	9796	1890.943098020536	4
0	9801	1891.63707714939	5
0	9803	1892.137572692537	6
0	9804	1892.278036062929	5
0	9809	1892.511745725624	4
0	9813	1892.583042058462	5
0	9815	1892.925618838765	6
0	9818	1893.657919639902	5
0	9823	1894.851389811137	4
0	9828	1894.931184694801	3
0	9833	1896.66503851996	2
0	9837	1899.93281184762	3
0	9841	1901.069149180198	2
0	9847	1901.46489558708	3
0	9849	1901.477973185043	4
0	9851	1902.643648168495	3
0	9859	1903.455251128457	4
0	9860	1903.464142245008	3
0	9864	1904.664626701168	4
0	9867	1905.200569693523	3
0	9874	1906.891525718621	2
0	9882	1908.499966831227	1
0	9889	1909.690417065405	2
0	9892	1910.522888538821	1
0	9897	1910.558148896259	0
0	9901	1911.364784067473	1
0	9903	1912.367220887863	2
0	9906	1913.178272894761	1
0	9910	1913.534477083988	2
0	9912	1914.206362698614	3
0	9915	1916.651865510522	2
0	9920	1919.783753951359	1
0	9924	1919.893246766581	2
0	9928	1920.589502084563	3
0	9930	1921.454374446873	4
0	9932	1921.910889116328	5
0	9935	1922.756780282013	4
0	9940	1923.313278568672	3
0	9946	1924.023404349294	4
0	9949	1925.366850787449	3
0	9953	1925.832457370778	4
0	9957	1926.300933676851	5
0	9960	1927.62156764728	4
0	9965	1927.949524503327	3
0	9973	1929.226085283814	4
0	9976	1929.858553049956	3
0	9983	1933.028646929503	4
0	9985	1933.449037077678	5
0	9986	1934.415332542608	4
0	9991	1934.560409675952	3
0	9995	1935.099310644279	4
0	9997	1935.119776645597	5
0	10001	1936.005421663816	4
0	10006	1937.210832693454	3
0	10013	1938.907943159521	4
0	10015	1940.338138073709	5
0	10016	1940.366739018185	4
0	10021	1940.424818321137	3
0	10027	1942.243136595118	4
0	10028	1942.382990072479	3
0	10034	1943.239247003692	4
0	10037	1945.305311249348	3
0	10042	1946.593966527491	2
0	10047	1947.752854477892	1
0	10051	1947.775831909244	2
0	10054	1949.309374369187	1
0	10059	1949.689230793813	0
0	10112	1957.521137015424	1
0	10114	1958.25160449476	2
0	10117	1958.446187857184	1
0	10122	1958.493386371594	0
0	10134	1959.307960139368	1
0	10138	1960.127962854341	2
0	10139	1960.207051164393	1
0	10144	1962.58480847038	0
0	10150	1963.028212284293	1
0	10152	1963.111040196995	2
0	10154	1963.268702980622	3
0	10155	1963.569640453243	2
0	10162	1966.65094301226	1
0	10167	1967.068920410978	0
0	10183	1970.190509235982	1
0	10187	1971.769886581343	2
0	10190	1974.783693622571	1
0	10194	1975.114486548843	2
0	10199	1977.181692201823	1
0	10205	1977.34029444449	2
0	10210	1978.79112072003	1
0	10215	1978.872128581707	0
0	10227	1981.274571270619	1
0	10229	1981.867996468933	2
0	10235	1983.539037811175	1
0	10242	1984.296144803702	2
0	10245	1986.517695709275	1
0	10251	1986.857850606581	2
0	10253	1987.996555423152	1
0	10259	1988.007182181792	2
0	10261	1988.250064159003	1
0	10266	1988.418470824628	0
0	10272	1988.735669681094	1
0	10274	1988.78246977452	2
0	10278	1990.217024200239	3
0	10279	1990.363943216872	2
0	10283	1990.66595436831	3
0	10286	1991.182836739164	2
0	10290	1991.212943102124	3
0	10292	1991.264238396495	4
0	10298	1991.945068408396	5
0	10300	1992.862802369483	4
0	10306	1994.353756968287	5
0	10308	1994.39716547565	6
0	10309	1994.416866130763	5
0	10313	1994.799434648338	6
0	10315	1995.068016738458	7
0	10317	1995.900252420248	8
0	10319	1997.471089381666	9
0	10323	1998.60979157473	10
0	10324	1999.269324667823	9
0	10330	1999.72491602793	8
0	10335	2000.648904538689	7
0	10343	2004.204937346317	6
0	10348	2004.213339200009	5
0	10355	2004.811446238547	6
0	10356	2004.898647917332	5
0	10365	2005.348774194544	6
0	10368	2005.763079227569	7
0	10369	2005.781116786382	6
0	10374	2005.847520735342	5
0	10379	2006.051863195584	4
0	10383	2006.478523253265	5
0	10385	2007.254083844798	6
0	10387	2007.530902088287	7
0	10389	2007.536451688309	8
0	10392	2008.098282410953	7
0	10398	2008.93351734941	8
0	10399	2009.134087959425	7
0	10406	2009.81965969659	6
0	10414	2010.523891978453	7
0	10416	2011.240638495884	8
0	10418	2012.071993124583	9
0	10421	2013.884493208076	8
0	10426	2016.379745273942	7
0	10432	2017.135665536133	8
0	10437	2019.018103870973	7
0	10443	2021.174430376607	6
0	10448	2021.665054744305	5
0	10453	2022.165729056771	4
0	10457	2022.379967839616	5
0	10460	2023.349970706147	4
0	10465	2023.597285413063	3
0	10469	2023.741512210882	4
0	10472	2024.18009581474	3
0	10476	2026.153899744392	4
0	10479	2027.255072039283	3
0	10486	2029.554290023276	4
0	10487	2030.008918375467	3
0	10493	2030.247564848307	4
0	10497	2030.744203390954	5
0	10499	2031.534238175824	4
0	10505	2032.641453008282	5
0	10506	2032.657956915931	4
0	10511	2033.092098200331	3
0	10515	2033.446506640102	4
0	10517	2033.900526601024	5
0	10521	2035.79762070346	6
0	10522	2036.202425543502	5
0	10527	2036.653508678249	4
0	10534	2037.595364423022	3
0	10539	2038.320172462058	2
0	10546	2039.300990857718	3
0	10547	2039.813637032277	2
0	10552	2040.331631371489	1
0	10558	2041.30532605836	2
0	10560	2042.810421912445	3
0	10562	2042.905079823208	4
0	10565	2043.762593405606	3
0	10569	2044.081992764997	4
0	10571	2044.210875905874	5
0	10573	2044.750728422901	6
0	10577	2047.795418601062	5
0	10584	2050.436044058951	6
0	10585	2051.676019673514	5
0	10591	2052.214969834225	6
0	10593	2052.79750817512	7
0	10595	2052.822079541525	8
0	10597	2053.285751528626	9
0	10599	2053.621499471892	10
0	10600	2053.731784331862	9
0	10612	2056.364164584099	10
0	10613	2056.561930674841	9
0	10617	2057.859242818738	10
0	10620	2058.209556235815	9
0	10629	2059.570774933792	8
0	10636	2059.995052433334	9
0	10638	2060.707646296128	8
0	10643	2060.845248350549	7
0	10649	2061.053950499463	6
0	10655	2061.094042229425	7
0	10657	2061.143698914233	8
0	10659	2061.769320556442	9
0	10660	2062.349869616299	8
0	10666	2062.899241010448	9
0	10669	2063.641174290533	8
0	10673	2063.805152426045	9
0	10679	2064.321952024392	10
0	10680	2065.614974599022	9
0	10685	2066.134764926882	8
0	10691	2066.407658878364	9
0	10692	2066.592588446783	8
0	10696	2066.712595989416	9
0	10698	2067.002180304822	10
0	10700	2067.372221605909	11
0	10703	2068.718954028131	10
0	10712	2069.483191619143	9
0	10718	2070.542054170322	10
0	10723	2072.233336652584	9
0	10729	2073.946567320777	10
0	10732	2074.057078837564	9
0	10738	2075.118977968392	10
0	10744	2077.016791635317	11
0	10745	2077.613357825605	10
0	10754	2079.295424204973	11
0	10755	2079.298989038652	10
0	10760	2079.364963923663	9
0	10765	2080.509196146105	8
0	10769	2082.342667817306	9
0	10773	2084.019542414421	8
0	10778	2085.199826147767	7
0	10786	2086.448444378189	6
0	10792	2086.778808437704	5
0	10798	2086.8569099832	6
0	10799	2087.655637805136	5
0	10805	2088.082700240142	6
0	10807	2088.389405631572	7
0	10809	2088.455578814875	8
0	10813	2089.40320733402	9
0	10816	2090.472034561409	8
0	10825	2092.138139377532	7
0	10830	2092.426760832121	6
0	10835	2093.69418805718	5
0	10840	2094.455410197777	4
0	10844	2095.066540374296	5
0	10849	2096.595320928314	4
0	10854	2097.027282920773	3
0	10858	2097.072921542799	4
0	10861	2098.095464280688	3
0	10865	2098.124230182412	4
0	10870	2101.982260584049	3
0	10875	2102.926958634484	2
0	10883	2104.722970860762	3
0	10885	2105.020339810323	4
0	10886	2105.399006502786	3
0	10890	2107.596705850344	4
0	10892	2108.835799737161	5
0	10898	2112.21275869801	4
0	10904	2112.657210883657	5
0	10906	2113.629898218394	4
0	10911	2113.8736098647	3
0	10917	2114.327521896779	4
0	10918	2114.371573068138	3
0	10922	2114.534807767231	4
0	10925	2114.770307075816	3
0	10931	2115.123973581025	4
0	10933	2115.162324915125	5
0	10934	2115.42879176113	4
0	10942	2118.064898841365	5
0	10946	2120.333494623556	4
0	10951	2120.423821402807	3
0	10955	2120.43899285893	4
0	10962	2121.962119595742	3
0	10970	2123.986482544113	4
0	10973	2126.004906044425	3
0	10980	2126.594494283807	4
0	10982	2126.98875261892	5
0	10984	2127.318834126763	6
0	10985	2128.203740839104	5
0	10992	2129.261389214508	4
0	11000	2131.171830076415	5
0	11001	2131.288588103681	4
0	11005	2131.89261209936	5
0	11009	2134.209160839285	6
0	11011	2135.362668774501	7
0	11014	2135.992124898364	6
0	11018	2136.045247181364	7
0	11025	2138.460124014945	6
0	11029	2139.726475277317	7
0	11031	2140.080494803518	8
0	11033	2140.134666139576	9
0	11036	2140.586204350765	8
0	11040	2140.982461953535	9
0	11043	2141.727946025031	8
0	11048	2143.591861453426	7
0	11055	2144.556858984036	6
0	11059	2144.958546417301	7
0	11063	2146.693320141457	8
0	11066	2148.122723613171	7
0	11071	2149.420496968359	6
0	11077	2151.230309649876	7
0	11078	2151.231619862806	6
0	11084	2151.929082132497	7
0	11085	2152.398606034864	6
0	11090	2153.417301947303	5
0	11096	2154.963732567023	6
0	11099	2155.287761070206	5
0	11103	2155.863861515704	6
0	11106	2157.62304317063	5
0	11113	2158.881520119109	6
0	11115	2159.691993057974	5
0	11120	2160.867462980071	4
0	11127	2161.376306827673	3
0	11131	2162.424461881715	4
0	11133	2163.33515129913	5
0	11135	2163.394243317933	6
0	11138	2164.787393178945	5
0	11145	2165.451176018661	4
0	11151	2166.598753372729	5
0	11153	2166.782332046726	6
0	11155	2167.269335870946	7
0	11158	2168.13367112026	6
0	11162	2168.419871713237	7
0	11166	2169.938192060816	8
0	11168	2170.727163932843	9
0	11170	2171.298346819653	10
0	11175	2171.704126009842	11
0	11177	2172.773582697875	12
0	11179	2173.711974289868	13
0	11180	2173.71420954166	12
0	11185	2173.839844846094	11
0	11189	2175.325971689002	12
0	11194	2176.227860032883	11
0	11200	2177.802967629774	12
0	11202	2177.890419646788	13
0	11204	2180.057066147964	14
0	11205	2180.365099130553	13
0	11209	2180.872865901221	14
0	11212	2181.929695030271	13
0	11220	2184.179605447025	14
0	11222	2184.530972757348	15
0	11223	2184.558545081621	14
0	11227	2186.38889848894	15
0	11232	2186.560931640299	14
0	11237	2188.157266819195	13
0	11241	2188.438457036109	14
0	11248	2189.121338795421	13
0	11255	2189.422842414417	14
0	11257	2190.147014683145	13
0	11262	2190.346250703102	12
0	11268	2190.413347763529	13
0	11269	2190.575907708287	12
0	11276	2190.920806953013	11
0	11283	2191.233547105412	10
0	11287	2191.378886701682	11
0	11291	2191.748939257623	12
0	11292	2192.457335856183	11
0	11297	2192.742810063566	10
0	11303	2193.912242947327	9
0	11308	2194.732906225988	8
0	11318	2196.361870697071	7
0	11327	2197.397592090444	6
0	11333	2200.148715624101	5
0	11338	2200.314302671392	4
0	11344	2201.165037579853	5
0	11345	2201.234974056534	4
0	11349	2201.813912714494	5
0	11351	2202.104776260549	6
0	11353	2202.204559155282	7
0	11356	2204.376994141533	6
0	11361	2205.270403786909	5
0	11368	2205.794456710792	4
0	11376	2207.53153517305	5
0	11378	2208.467285408307	6
0	11385	2209.531154751548	5
0	11392	2212.652212302913	4
0	11396	2213.156831714929	5
0	11400	2213.675975740533	6
0	11401	2214.884113771218	5
0	11406	2216.734474431954	4
0	11412	2219.510566255468	5
0	11413	2219.839234665435	4
0	11419	2220.488549102561	3
0	11425	2221.215665901962	4
0	11426	2222.009979170483	3
0	11432	2223.442198525104	4
0	11434	2224.051242280113	5
0	11436	2224.42482504522	6
0	11440	2226.700832727624	7
0	11441	2227.183113946052	6
0	11447	2227.84662425366	7
0	11449	2228.112608407161	6
0	11454	2228.121691847319	5
0	11461	2230.23123661079	4
0	11466	2231.480384164996	3
0	11470	2232.56528038991	4
0	11474	2232.825345122812	5
0	11477	2233.125322306362	4
0	11481	2234.813942603204	5
0	11486	2236.899603341794	4
0	11494	2238.241815101938	5
0	11495	2238.772703726452	4
0	11502	2241.504496340595	5
0	11504	2241.586463313237	6
0	11507	2242.805076402228	5
0	11512	2242.881236843948	4
0	11518	2245.074809845433	5
0	11519	2245.547872116081	4
0	11524	2245.834780699115	3
0	11529	2247.119445737604	2
0	11534	2247.74729797025	1
0	11543	2248.483432446754	0
0	11577	2251.787812127529	1
0	11578	2252.3123853201	0
0	11584	2252.609656039827	1
0	11587	2253.415849013679	0
0	11591	2253.601975786027	1
0	11594	2255.068596331809	0
0	11598	2255.155355501189	1
0	11604	2255.857711894296	0
0	11632	2262.920930609876	1
0	11633	2263.412984110365	0
0	11645	2264.575474122328	1
0	11646	2264.885467349968	0
0	11650	2266.196244354588	1
0	11653	2267.320483568077	0
0	11680	2269.068454155479	1
0	11682	2269.079278597413	2
0	11683	2269.29277467002	1
0	11688	2269.767011331987	0
0	11697	2270.434854745413	1
0	11700	2271.128266578666	0
0	11719	2275.194214692762	1
0	11722	2275.546477156653	0
0	11726	2275.701221252487	1
0	11729	2277.401084245337	0
0	11733	2277.451710459236	1
0	11739	2278.800139005398	0
0	11752	2281.441277119895	1
0	11753	2281.684566343452	0
0	11760	2283.397667722565	1
0	11761	2284.160025937233	0
0	11767	2284.197729304961	1
0	11771	2284.916447267535	0
0	11786	2285.785534609315	1
0	11788	2285.969679230535	2
0	11790	2287.786334357427	3
0	11797	2289.824070504492	2
0	11803	2290.08722162579	1
0	11811	2291.355808692764	0
0	11817	2292.063136535033	1
0	11818	2292.090709036827	0
0	11826	2292.938595351236	1
0	11828	2293.128691471584	2
0	11829	2293.262064874274	1
0	11835	2294.555712694486	2
0	11836	2294.61831177399	1
0	11840	2295.271232053297	2
0	11842	2295.284353162183	3
0	11844	2295.538919341119	4
0	11847	2296.02263820145	3
0	11852	2297.637018699301	2
0	11858	2298.374417189064	3
0	11861	2298.692257476137	2
0	11868	2300.51502802955	3
0	11869	2300.67271925151	2
0	11874	2300.804843470025	1
0	11880	2300.931315876129	2
0	11885	2301.659842378371	1
0	11890	2302.047061297575	0
0	11928	2305.909277125999	1
0	11929	2306.040220321995	0
0	11952	2307.706240117121	1
0	11953	2308.099093217521	0
0	11962	2309.580289667406	1
0	11963	2309.611079661682	0
0	11974	2311.66203549907	1
0	11977	2311.861136045552	0
0	12020	2320.252645081015	1
0	12024	2321.651037491755	2
0	12026	2321.842011263485	3
0	12032	2323.981979986239	2
0	12039	2324.181202997583	3
0	12040	2324.434721764488	2
0	12046	2325.080848505388	3
0	12047	2325.08812791599	2
0	12052	2325.12107391292	1
0	12057	2325.178551005961	0
0	12068	2325.509014649997	1
0	12070	2325.636554302183	2
0	12072	2325.898234791704	1
0	12077	2326.39670383255	0
0	12081	2326.58540892047	1
0	12083	2327.622720761212	2
0	12086	2328.04918349467	1
0	12092	2329.217555409626	2
0	12094	2330.237950580549	1
0	12099	2330.348564885533	0
0	12118	2332.194601412327	1
0	12119	2332.381160203974	0
0	12133	2334.246777668059	1
0	12139	2336.531481322701	0
0	12150	2340.13759847138	1
0	12151	2340.210495246611	0
0	12160	2340.707934931371	1
0	12162	2341.289503494517	2
0	12164	2343.563066567691	3
0	12170	2344.783653518013	4
0	12173	2345.409876368842	5
0	12175	2345.867488224728	6
0	12176	2346.452105869577	5
0	12181	2346.790259325095	4
0	12185	2347.054126814294	5
0	12191	2348.514229442244	6
0	12196	2349.238441901346	7
0	12197	2349.704961518789	6
0	12203	2349.834810088651	7
0	12205	2349.91910657256	6
0	12211	2350.080632423236	7
0	12214	2350.992150915959	6
0	12219	2351.122767744754	5
0	12226	2352.782781422686	4
0	12231	2353.121282644231	3
0	12237	2353.47607651605	4
0	12239	2354.014262604736	3
0	12244	2354.263655486191	2
0	12253	2357.521593674654	3
0	12255	2358.369072940598	4
0	12258	2359.574190911595	3
0	12264	2360.856235207491	2
0	12270	2362.053851078296	3
0	12273	2362.987292421715	2
0	12277	2363.40867286881	3
0	12285	2366.724934880835	4
0	12288	2366.943787140752	3
0	12297	2368.822644396578	4
0	12298	2369.581513224597	3
0	12303	2370.029749410032	2
0	12307	2370.564417544828	3
0	12309	2370.695418167449	4
0	12311	2370.780837795319	5
0	12314	2373.647484228631	4
0	12320	2375.252753381084	5
0	12322	2375.887542154327	6
0	12324	2376.521655460583	5
0	12329	2376.600711359202	4
0	12334	2378.009821630876	3
0	12338	2378.992202944248	4
0	12342	2379.533392572904	3
0	12348	2380.126612920705	2
0	12353	2380.38802959579	1
0	12361	2382.085517080318	2
0	12363	2384.618003507209	3
0	12365	2384.874162727815	4
0	12371	2386.840012813819	3
0	12376	2388.024726959732	2
0	12381	2388.519005379963	1
0	12386	2389.230839837416	0
0	12398	2390.425324175612	1
0	12400	2391.754487456846	0
0	12438	2395.768957524089	1
0	12444	2397.904113649224	0
0	12460	2399.484353893581	1
0	12466	2401.860471142319	0
0	12475	2402.44638178962	1
0	12479	2404.438609497487	0
0	12486	2405.008553007446	1
0	12490	2406.359241563001	0
0	12508	2409.118252662242	1
0	12511	2410.816051237718	2
0	12513	2411.88497472685	3
0	12514	2412.302976294911	2
0	12520	2412.602805549139	3
0	12522	2413.693075224966	2
0	12528	2413.81014353115	3
0	12529	2414.081761529225	2
0	12534	2414.152346791201	1
0	12543	2415.147647211109	2
0	12544	2415.377790196449	1
0	12549	2415.504851874071	0
0	12565	2416.917461841455	1
0	12567	2417.138596372488	0
0	12610	2425.948067226082	1
0	12611	2426.840984793339	0
0	12635	2431.101638748921	1
0	12639	2432.295006391949	2
0	12640	2432.31973066796	1
0	12645	2432.791815996886	0
0	12665	2436.139485875404	1
0	12667	2436.927807674501	2
0	12669	2437.596011482786	3
0	12673	2438.728078548217	2
0	12678	2438.920077406519	1
0	12683	2438.943739725317	0
0	12687	2439.343123362549	1
0	12691	2441.179833309578	2
0	12693	2441.236589581465	3
0	12699	2444.583394914115	4
0	12702	2444.865691152011	3
0	12707	2445.51805384663	2
0	12715	2446.375561846463	3
0	12718	2447.666375634439	2
0	12723	2447.708251687589	1
0	12729	2448.04797425267	2
0	12730	2448.518437218504	1
0	12735	2448.687453338795	0
0	12739	2449.156430667798	1
0	12742	2450.34920961417	0
0	12746	2450.816369060173	1
0	12749	2452.179581495371	0
0	12753	2452.352980776403	1
0	12757	2454.079348211228	0
0	12783	2456.630422774433	1
0	12789	2458.317258667317	2
0	12792	2458.781955043348	1
0	12801	2459.927541657203	0
0	12824	2461.998159222238	1
0	12826	2463.74227630484	0
0	12838	2465.669175221864	1
0	12839	2465.908511201149	0
0	12856	2467.846510663317	1
0	12861	2469.512978198093	2
0	12864	2470.850052914067	1
0	12869	2471.052962444776	0
0	12902	2477.854138264736	1
0	12904	2477.870347825383	2
0	12908	2478.181897915807	3
0	12911	2478.347023961	4
0	12915	2479.607958745623	5
0	12916	2479.743641615717	4
0	12924	2480.654935642011	3
0	12932	2482.915923757211	2
0	12937	2483.159718112075	1
0	12943	2483.34183793829	2
0	12948	2484.106965646479	3
0	12949	2484.352848777551	2
0	12956	2485.281355636615	1
0	12964	2486.864057868243	2
0	12966	2488.56963276548	1
0	12972	2488.67378680355	2
0	12976	2488.729662782305	1
0	12982	2489.429138544631	2
0	12986	2490.209256194116	1
0	12991	2491.680303543919	0
0	12995	2491.726139719021	1
0	13000	2494.466478388313	0
0	13015	2495.475294044076	1
0	13018	2495.997220121708	0
0	13026	2496.659581121791	1
0	13030	2497.247772672007	0
0	13037	2497.620321443148	1
0	13038	2498.248190453672	0
0	13086	2505.679144869121	1
0	13087	2506.303018527233	0
0	13103	2508.292980397145	1
0	13108	2509.05637514641	0
0	13114	2509.356671928434	1
0	13116	2509.433246536774	2
0	13117	2510.134470878276	1
0	13123	2511.016428805619	0
0	13137	2512.437989548757	1
0	13143	2515.525989136562	0
0	13163	2516.884984335252	1
0	13164	2516.991407190146	0
0	13202	2523.618226998789	1
0	13206	2523.824890272443	2
0	13207	2523.913329166377	1
0	13214	2526.009040327736	0
0	13226	2527.049218820484	1
0	13227	2527.634928742979	0
0	13243	2531.13809135897	1
0	13245	2531.197856044064	2
0	13246	2531.721718449196	1
0	13252	2532.430614984624	0
0	13282	2537.001047307356	1
0	13284	2537.053130064663	2
0	13287	2537.137859172768	1
0	13293	2537.249887525777	0
0	13328	2540.761290567394	1
0	13340	2545.575423455985	0
0	13351	2545.958823278512	1
0	13353	2546.880490082748	0
0	13373	2548.333724732982	1
0	13378	2551.523572155181	0
0	13384	2551.667507808523	1
0	13386	2552.415765045376	0
0	13416	2556.984318729397	1
0	13417	2557.177012137998	0
0	13430	2559.177236644222	1
0	13431	2559.197847320512	0
0	13460	2562.359703725508	1
0	13466	2564.154066318292	0
0	13507	2568.657975563334	1
0	13509	2568.856639558835	0
0	13522	2570.092358762986	1
0	13526	2571.066641618599	2
0	13528	2571.577167574313	1
0	13535	2572.22650480253	2
0	13536	2572.409732360078	1
0	13541	2573.047398423739	0
0	13557	2575.982933091136	1
0	13560	2576.501760656016	2
0	13562	2578.475575058982	1
0	13568	2578.552041200237	2
0	13569	2579.840794573503	1
0	13576	2581.198352891925	2
0	13579	2584.298734800943	1
0	13585	2584.572741110423	2
0	13587	2585.444302245366	1
0	13593	2585.795687546709	0
0	13622	2587.74381412529	1
0	13623	2587.810745300752	0
0	13641	2589.4403738431	1
0	13645	2590.830035226889	0
0	13649	2591.165181975055	1
0	13651	2592.296645210834	2
0	13656	2593.962592096046	3
0	13659	2594.537345384153	4
0	13660	2594.656224499696	3
0	13664	2595.087980108487	4
0	13666	2595.364531300091	5
0	13671	2597.68722538669	4
0	13676	2598.934704330901	3
0	13680	2599.089364451821	4
0	13684	2600.28271565439	3
0	13690	2600.909964265977	2
0	13695	2601.095838914111	1
0	13700	2601.763149677586	0
0	13704	2602.240095450765	1
0	13710	2602.954354902903	2
0	13711	2603.727544963163	1
0	13719	2604.478650173775	2
0	13720	2605.024135523074	1
0	13726	2606.099884623767	0
0	13732	2606.212841301668	1
0	13734	2606.763344722643	2
0	13737	2608.005343007508	3
0	13738	2608.164395149912	2
0	13744	2608.438028791856	1
0	13749	2609.214952120044	0
0	13766	2610.617415349334	1
0	13768	2612.377635144064	0
0	13772	2612.866671411912	1
0	13774	2613.827459160858	2
0	13778	2614.102888197098	3
0	13779	2614.747727684967	2
0	13790	2615.413372467471	3
0	13792	2616.22022012142	4
0	13793	2617.161820676664	3
0	13798	2617.283140922851	2
0	13802	2617.807011918151	3
0	13806	2618.712738665536	2
0	13811	2619.03252823605	1
0	13817	2620.574350311387	2
0	13819	2620.650918082169	3
0	13820	2620.833098033026	2
0	13828	2623.743715879058	1
0	13833	2624.293108149632	0
0	13845	2625.809230390832	1
0	13846	2625.826561210312	0
0	13858	2627.178822016529	1
0	13859	2628.367139028535	0
0	13871	2629.62077918663	1
0	13873	2631.76213904512	0
0	13890	2633.64176830736	1
0	13892	2633.647961136061	2
0	13896	2634.689309194086	1
0	13902	2634.946893716517	0
0	13908	2635.152191239318	1
0	13909	2636.085455704147	0
0	13913	2636.476029923353	1
0	13917	2636.762797437796	0
0	13924	2638.272480924433	1
0	13928	2638.889528636309	0
0	13935	2639.712725808301	1
0	13937	2640.192795256292	2
0	13939	2640.453700921134	3
0	13941	2640.570078428938	4
0	13942	2640.870098173102	3
0	13947	2641.150584616807	2
0	13952	2641.152253458109	1
0	13956	2641.224304887	2
0	13960	2642.46924329627	1
0	13966	2643.526208465182	0
0	13973	2643.640364007165	1
0	13975	2646.235838841529	2
0	13976	2646.267215901827	1
0	13982	2646.569459377483	2
0	13983	2646.722045879067	1
0	13987	2648.26457481009	2
0	13989	2649.068543435691	3
0	13997	2650.854703644408	2
0	14003	2650.914573850434	3
0	14004	2651.456069911223	2
0	14011	2653.062569968905	1
0	14020	2654.706405207649	0
0	14026	2654.913863298883	1
0	14028	2655.212507861247	2
0	14029	2655.361136158916	1
0	14034	2655.374146999444	0
0	14063	2658.558633603028	1
0	14067	2659.010291454075	2
0	14068	2659.137182283463	1
0	14074	2659.216880653135	2
0	14075	2660.21664776352	1
0	14080	2660.254351721962	0
0	14086	2660.409285326006	1
0	14088	2660.541716381668	2
0	14090	2660.674390001331	3
0	14093	2661.148974808046	2
0	14100	2664.524622196642	1
0	14105	2665.294183838508	0
0	14123	2667.87269046181	1
0	14125	2668.224378274745	0
0	14131	2668.778517638493	1
0	14132	2669.276744479384	0
0	14136	2669.48774818065	1
0	14138	2670.319285000425	2
0	14140	2670.34521556236	3
0	14142	2670.405255524134	4
0	14144	2670.639304640699	5
0	14146	2672.255351687371	6
0	14148	2672.804114300173	7
0	14151	2674.993005261564	6
0	14156	2677.90453819282	5
0	14161	2679.101026829709	4
0	14168	2679.921987842197	5
0	14169	2680.915792036606	4
0	14174	2680.939930310866	3
0	14181	2681.870910865224	2
0	14187	2682.366381406074	3
0	14188	2683.422260496687	2
0	14194	2684.187808208159	1
0	14199	2684.823319864635	0
0	14203	2685.535999307253	1
0	14205	2686.258706385096	2
0	14209	2686.804224133305	3
0	14214	2687.452439935403	4
0	14216	2688.178290658287	5
0	14218	2688.832534833463	6
0	14219	2689.072170358975	5
0	14225	2690.299214103043	4
0	14231	2690.303856839417	5
0	14232	2690.482023366872	4
0	14237	2690.781366281995	3
0	14242	2690.958367360372	2
0	14250	2692.802075778589	3
0	14254	2693.414764778486	4
0	14255	2693.938951621952	3
0	14259	2694.81313484535	4
0	14261	2696.153705477094	5
0	14267	2697.082734818594	4
0	14272	2697.361362394513	3
0	14279	2697.796137449283	2
0	14283	2697.990340244321	3
0	14285	2699.094900064086	4
0	14287	2700.981630714339	5
0	14293	2701.770430153765	4
0	14299	2702.04188706254	3
0	14304	2702.051394237987	2
0	14314	2703.114068908707	3
0	14315	2703.519980978767	2
0	14320	2703.888666819855	1
0	14327	2705.91001127084	0
0	14348	2706.104634909364	1
0	14353	2707.829351928663	0
0	14363	2709.312082638283	1
0	14364	2709.442200170264	0
0	14381	2710.379029413809	1
0	14382	2711.0028170002	0
0	14389	2712.11583466076	1
0	14391	2712.349606919857	0
0	14408	2713.170822346464	1
0	14413	2714.219994648478	2
0	14415	2714.663255828383	3
0	14418	2715.390120358876	4
0	14419	2715.482519723594	3
0	14425	2715.982826970426	2
0	14432	2718.207665630193	1
0	14438	2718.693763007818	0
0	14445	2719.510392248011	1
0	14447	2719.879142247793	2
0	14449	2720.074642717689	3
0	14450	2720.629879892271	2
0	14458	2721.96071587548	3
0	14459	2722.310331296852	2
0	14465	2722.653668927842	3
0	14466	2722.659488479565	2
0	14474	2723.409894419073	1
0	14479	2723.451782588323	0
0	14510	2726.375944988362	1
0	14511	2726.816413030061	0
0	14517	2727.412737221198	1
0	14519	2727.988588177361	2
0	14523	2728.329721267044	3
0	14525	2728.894012765651	2
0	14530	2729.057870996248	1
0	14534	2729.691107230353	2
0	14536	2730.251020412327	3
0	14538	2730.773664869668	4
0	14541	2731.473082740564	3
0	14545	2731.702215510283	4
0	14551	2733.659512270082	5
0	14558	2736.913573050942	4
0	14564	2738.159100253709	3
0	14570	2738.34596914414	2
0	14576	2738.912875121799	3
0	14579	2740.296589245262	4
0	14582	2740.51672442771	5
0	14583	2741.473746914721	4
0	14588	2741.970122217185	3
0	14594	2742.382143220042	2
0	14599	2742.4108561035	1
0	14605	2743.666796270471	2
0	14606	2743.840374468475	1
0	14614	2745.374466024313	2
0	14616	2746.553248637761	3
0	14619	2748.182028386234	2
0	14627	2750.004019029523	3
0	14629	2751.096672717717	4
0	14633	2751.52929219854	5
0	14634	2752.838071396587	4
0	14639	2753.974852449398	3
0	14644	2754.052908112495	2
0	14648	2755.477138886412	3
0	14652	2756.812038382468	2
0	14658	2757.108548868168	3
0	14659	2757.680257792669	2
0	14665	2757.859363995072	3
0	14667	2758.162789444514	4
0	14669	2758.756714565738	5
0	14671	2759.665836771651	6
0	14675	2760.256081607134	7
0	14676	2760.976672845029	6
0	14680	2760.983165517232	7
0	14683	2763.062221617099	6
0	14695	2768.447224157748	7
0	14698	2770.527395723807	6
0	14706	2771.741266337395	5
0	14713	2772.313210774219	6
0	14716	2773.077024733327	5
0	14721	2774.792692856143	4
0	14726	2775.671812138443	3
0	14731	2775.943700633685	2
0	14735	2776.035738236935	3
0	14738	2776.708443099704	2
0	14743	2777.067946716495	1
0	14748	2777.259916865735	0
0	14758	2780.16673842941	1
0	14760	2780.599388857406	2
0	14761	2780.893050766521	1
0	14766	2780.911239475943	0
0	14784	2784.24207752022	1
0	14788	2785.21133355491	2
0	14790	2787.765060876885	3
0	14791	2788.924125506066	2
0	14797	2790.372217941117	3
0	14798	2790.425923410395	2
0	14803	2790.656028358675	1
0	14809	2790.876572001443	2
0	14812	2791.609239918247	1
0	14821	2792.45793704348	2
0	14824	2792.863778258968	1
0	14830	2792.881778686151	2
0	14832	2793.344382508294	3
0	14834	2793.387396427975	4
0	14835	2793.956422680964	3
0	14843	2797.601342728216	4
0	14844	2798.557199570594	3
0	14849	2798.558793658618	2
0	14854	2799.167705056304	1
0	14863	2801.0742412028	0
0	14867	2801.315533497663	1
0	14870	2801.728645451119	0
0	14874	2803.288358594025	1
0	14876	2803.319050618412	2
0	14879	2803.571263303571	1
0	14886	2805.428884859439	0
0	14890	2805.794870848982	1
0	14894	2806.788754585642	2
0	14896	2807.047377526007	3
0	14897	2807.088427126852	2
0	14903	2807.701821406495	1
0	14908	2807.707991474257	0
0	14920	2810.647027096982	1
0	14921	2810.753874700008	0
0	14927	2812.951617795819	1
0	14931	2815.402248227512	0
0	14948	2817.784616788109	1
0	14949	2818.701861308938	0
0	14953	2820.023224962161	1
0	14955	2820.548302818324	2
0	14959	2822.347170147542	3
0	14961	2822.507253721238	4
0	14965	2823.598523228104	5
0	14968	2824.930963659157	6
0	14971	2826.938322265816	5
0	14977	2827.138118171786	4
0	14983	2827.270820370272	3
0	14988	2827.467700150575	2
0	14993	2827.682478079556	1
0	15000	2828.426590279771	2
0	15001	2828.471147998402	1
0	15013	2829.559998849628	0
0	15038	2834.795206089099	1
0	15039	2834.837518051524	0
0	15059	2836.493951900895	1
0	15065	2837.918864840403	2
0	15068	2839.160812350971	3
0	15070	2839.308584405995	4
0	15071	2840.148807380706	3
0	15076	2840.328314421011	2
0	15081	2840.344498248786	1
0	15088	2841.161804846057	0
0	15104	2844.287207373384	1
0	15107	2845.96840565365	2
[...]
4	154846	28248.567168599587	5794.7144889577
4	154851	28248.591183010686	5786.9798611171
4	154861	28249.767465068517	5785.6667040361
4	154894	28253.237426186954	5787.4074591166
4	154899	28254.170427091001	5783.8766483937
4	154913	28259.932343228278	5785.4216612665
4	154938	28262.052482754594	5784.0832456492
4	154946	28263.290191611281	5784.5800076482
4	154952	28265.170153094697	5785.4795008717
4	154959	28267.411456163527	5787.4253881311
4	154970	28268.054695817466	5787.295268045
4	154976	28268.563009931148	5783.9957054211
4	154985	28270.07537677385	5783.0200881594
4	154995	28272.459139720188	5782.7473423177
4	155014	28275.734538199607	5781.1454669014
4	155119	28288.091011828078	5791.0744402366
4	155127	28289.042757918215	5791.8308547014
4	155223	28306.075924492848	5807.4385488307
4	155228	28306.71551773989	5807.0303975936
4	155237	28308.457935336388	5807.3582543202
4	155255	28311.063351896385	5808.7047890197
4	155281	28315.802953802607	5805.2819886481
4	155479	28363.25070727975	5851.3919526784
4	155518	28367.202403312532	5848.5741808718
4	155524	28367.652749548969	5846.2699079435
4	155529	28367.837660334732	5844.6481844211
4	155541	28374.466777734937	5844.145545226
4	155559	28375.549749658116	5844.7023720514
4	155564	28376.268178865824	5845.0677225065
4	155572	28378.551800148189	5842.3671945431
4	155586	28383.264083126656	5839.471184429
4	155607	28387.309628946341	5835.9864674939
4	155959	28469.518430677942	5915.9550193911
4	155967	28470.983415267275	5915.0163079782
4	155973	28471.567278631513	5914.099790656
4	155978	28471.651574094596	5911.4623864532
4	155988	28472.268842315805	5912.0647898698
4	155994	28473.363497254742	5898.5729610087
4	156003	28475.840554806882	5900.6481526924
4	156040	28480.485876431151	5904.5067520942
4	156163	28507.768401807077	5931.464602167
4	156168	28507.902322494063	5930.4172862029
4	156181	28510.14165488362	5928.2562986199
4	156235	28525.184004722877	5931.834121982
4	156240	28525.298852406894	5930.4054905191
4	156245	28525.424941166145	5917.0724334719
4	156250	28525.612810592765	5915.3558742764
4	156260	28527.760165091731	5915.980915396
4	156270	28529.25704858689	5916.5041800783
4	156280	28532.089662586804	5915.4305697192
4	156302	28534.977178433007	5914.1822268229
4	156310	28537.204161582394	5909.714156429
4	156320	28539.752423810784	5909.5211877493
4	156332	28543.112732718647	5911.7718566628
4	156349	28548.927277176093	5917.3005540179
4	156385	28550.812699704625	5913.732761212
4	156397	28552.272957927498	5914.4590723038
4	156413	28556.120139663517	5914.7552857886
4	156418	28556.553885078383	5912.0245789478
4	156427	28557.514219826394	5903.1587840281
4	156489	28570.484095684323	5906.8698504537
4	156498	28571.53928089078	5898.2803495569
4	156527	28577.589778433746	5903.7161519816
4	156577	28586.91329206787	5901.3273599684
4	156652	28600.111302755967	5910.5725453764
4	156730	28616.807974584286	5927.1847756396
4	156740	28618.122946961102	5927.82399763
4	156746	28618.596405824045	5912.1283928724
4	156755	28619.943206221658	5908.6609968907
4	156773	28623.290228969479	5905.9504612388
4	156783	28625.227984219367	5905.5539789843
4	156953	28658.269524792111	5936.1680668334
4	156962	28659.643082976008	5931.2138455324
4	156967	28660.074805944584	5926.7854942173
4	156983	28663.516553080376	5926.8992755143
4	156998	28663.7886603052	5923.7835262064
4	157003	28664.628733527999	5922.1537538523
4	157012	28666.317718016587	5913.8147535676
4	157025	28668.841784235186	5914.4014709119
4	157030	28670.157745104756	5915.5666922793
4	157048	28676.087813086692	5920.2212012936
4	157161	28698.08631128489	5941.2805935271
4	157167	28699.294380223942	5939.0257956427
4	157174	28700.012290563051	5933.9216165482
4	157188	28703.204287412638	5930.9184598203
4	157197	28704.141751319773	5925.7589595777
4	157204	28704.990775344112	5917.7269858502
4	157211	28705.00806989102	5915.0847294169
4	157231	28707.435300776858	5916.1894664131
4	157239	28708.472496675718	5915.9846305008
4	157251	28712.461242978364	5916.4094469473
4	157262	28714.971466177951	5907.8490428451
4	157277	28720.286294936784	5910.8414343348
4	157282	28720.587299437643	5903.7469026385
4	157288	28723.034662519617	5903.7096944111
4	157293	28723.941058095002	5903.5239384534
4	157304	28726.129379285185	5897.9730598289
4	157336	28730.24692883012	5899.2442065192
4	157348	28730.951303962581	5899.2389892797
4	157360	28731.846567871419	5899.769568765
4	157376	28735.2100333752	5896.2716757049
4	157393	28736.827700211409	5897.1344929273
4	157422	28741.430471963751	5898.8600187447
4	157427	28742.114572486737	5898.0782094714
4	157432	28742.458810988582	5897.4518507613
4	157440	28746.755062694158	5895.1268554338
4	157452	28748.048684336836	5896.3577924531
4	157478	28752.685066168535	5886.711071521
4	157483	28752.966120977066	5884.0669857556
4	157488	28753.446880474017	5876.6705031805
4	157496	28754.863670630503	5877.2247679189
4	157509	28758.384746731534	5879.6429096137
4	157545	28764.168728204603	5884.0903045655
4	157550	28764.635943360897	5881.1952784593
4	157563	28766.56885436935	5876.5433455086
4	157568	28766.674336596976	5872.5532573035
4	157573	28767.009913993881	5872.1719953153
4	157584	28771.030875378989	5869.0662059773
4	157598	28773.147967454408	5869.7123468572
4	157609	28774.859648840246	5871.1545796521
4	157616	28776.574058494662	5872.8437590187
4	157625	28778.254795076497	5871.9000666704
4	157641	28780.177445299838	5873.1117033959
4	157650	28782.71524699764	5873.9890695938
4	157662	28783.605116708579	5862.6050877945
4	157671	28784.032987358791	5851.7624064845
4	157684	28785.505344618929	5845.3776958348
4	157692	28786.479158121289	5838.9000115605
4	157697	28786.572297789056	5838.0940837156
4	157702	28787.323537189103	5830.4337163763
4	157708	28788.2145673112	5830.7021871294
4	157719	28791.968445222172	5834.4151741361
4	157744	28797.458850756295	5826.8037757029
4	157837	28811.799257312918	5836.7787813034
4	157846	28813.218078444445	5831.0424017601
4	157878	28816.435653422954	5821.8376551973
4	157884	28816.944408308177	5818.7756401543
4	157889	28817.113865557194	5811.4621802369
4	157900	28818.594961461619	5812.0975996163
4	157917	28820.491822942996	5813.6078429819
4	157930	28822.820234502844	5812.2193438479
4	158112	28862.738572868563	5846.8329922302
4	158117	28863.032829669452	5842.9755725716
4	158123	28863.290981412666	5834.3450072893
4	158130	28864.921882015281	5830.6353066969
4	158135	28865.074936805897	5830.4115407692
4	158144	28868.129178613728	5831.7187699472
4	158170	28870.71671943478	5834.2740177667
4	158175	28871.302945074969	5827.8496545097
4	158180	28873.747953405852	5825.2211746709
4	158191	28876.980085420374	5818.3581274456
4	158202	28877.360820362223	5816.2839241851
4	158215	28878.540358052837	5817.4110676694
4	158249	28881.946311040007	5812.142948257
4	158266	28886.067204248533	5814.9240870216
4	158353	28898.62394925888	5826.4258345059
4	158359	28899.247468379434	5821.5163777906
4	158364	28899.874504900644	5815.187636387
4	158369	28900.153016676612	5814.4798736245
4	158384	28906.490401740149	5816.6402603152
4	158402	28910.488611649595	5816.7985694622
4	158407	28912.413803637552	5812.9561955936
4	158414	28913.004045723439	5812.3303107635
4	158426	28914.288877059297	5813.29750686
4	158433	28916.865700189319	5809.7225357594
4	158470	28922.401718647194	5814.4130008132
4	158475	28922.493468840558	5812.4960605614
4	158496	28926.86756651945	5813.4346840059
4	158557	28936.137286085014	5819.8060932662
4	158573	28937.714660915841	5819.4783607434
4	158580	28938.825257395177	5818.8568971912
4	158593	28943.861311279462	5823.7849159886
4	158621	28951.530730489967	5824.1720898154
4	158644	28953.988548332753	5825.0565512737
4	158654	28955.860826227227	5821.6271666566
4	158691	28959.031328728982	5822.4109157256
4	158702	28960.446472082371	5812.9091076933
4	158723	28966.363877875118	5806.9264637775
4	158750	28969.74070133631	5809.6851437977
4	158768	28971.281131946328	5802.5069921451
4	158779	28973.878119488963	5802.438775539
4	158810	28978.645272860017	5806.8235686332
4	158827	28980.150144027895	5805.8991688304
4	158832	28981.006768406773	5793.896009373
4	158849	28988.249559536111	5800.2974073976
4	158926	29007.568675516437	5817.2458816901
4	158957	29011.775954857248	5819.1943894833
4	158985	29018.480781821943	5822.4041812425
4	158990	29019.141453562299	5822.6444685834
4	158996	29019.413739242758	5810.448358366
4	159005	29020.422658160874	5808.9144179626
4	159025	29022.738231508616	5807.132815387
4	159035	29024.350738960731	5807.0250550088
4	159051	29028.410513058931	5809.3186321611
4	159069	29030.259261503585	5810.5276554976
4	159083	29031.911195000159	5810.4115519689
4	159088	29032.448108621112	5805.0647938178
4	159105	29039.37279647209	5799.6270187823
4	159195	29052.714547157656	5808.6813183475
4	159200	29052.756029386304	5806.3233522235
4	159208	29055.518530529438	5807.6332745514
4	159216	29057.026692603918	5808.4429844339
4	159231	29058.034386843314	5804.5343731207
4	159252	29062.213405430414	5802.7622425511
4	159258	29062.826350759384	5796.640261872
4	159270	29068.542832766651	5798.0978053786
4	159282	29069.831017294345	5792.9513474408
4	159292	29071.763217821991	5789.6759678474
4	159312	29072.900348262416	5785.5435665911
4	159323	29075.085053310967	5786.4028095581
4	159335	29075.858050285203	5781.5834711772
4	159345	29077.564734482324	5780.383964215
4	159356	29078.523505672743	5778.3471793269
4	159361	29078.650517093232	5771.3933324438
4	159368	29079.472773823138	5765.0118965907
4	159421	29086.889699955161	5766.2231181218
4	159432	29088.02753976516	5766.2349186428
4	159442	29088.623497581074	5756.6748988155
4	159457	29090.491394608963	5755.6627482246
4	159486	29095.473057958441	5756.082242612
4	159495	29096.472350116656	5755.1515979404
4	159503	29096.852581617395	5754.3239586077
4	159525	29100.63869381899	5754.8786384454
4	159588	29116.143639541307	5761.588352901
4	159600	29118.732438869062	5763.4316067604
4	159613	29119.959794253205	5756.7178365827
4	159624	29121.121145298784	5757.5773561414
4	159629	29121.24041860746	5753.3400965937
4	159639	29124.433697041355	5749.9502012203
4	159653	29125.152435469845	5749.5877487574
4	160123	29217.905761437038	5834.7401189759
4	160130	29218.55446705379	5833.539466594
4	160160	29223.249814237625	5838.0155806366
4	160165	29223.416204314534	5836.6001409218
4	160170	29224.100973043849	5835.8679730736
4	160183	29228.509388839366	5832.8594184652
4	160233	29236.039855517446	5835.068169104
4	160240	29236.629956461907	5831.2372664406
4	160245	29237.675055136064	5828.4889364999
4	160254	29239.595481409061	5828.2120586908
4	160291	29242.828841393094	5829.0699711741
4	160296	29243.62152268781	5829.5289393732
4	160301	29243.733855821547	5820.1824937295
4	160308	29244.683800160748	5818.7060443785
4	160323	29246.636396714922	5819.3783607187
4	160336	29248.301791839968	5809.4542476515
4	160348	29249.914021270159	5797.3603043015
4	160358	29251.46590819768	5798.7858901361
4	160367	29252.400555427731	5798.3881795431
4	160382	29253.508302779345	5798.6467418391
4	160389	29254.127075462363	5796.289985819
4	160400	29254.417342467958	5792.1242752404
4	160405	29256.369988430539	5791.4066211227
4	160418	29258.301702432992	5793.2697400444
4	160448	29262.458670832867	5797.2098444379
4	160455	29262.81031771787	5794.4020840876
4	160465	29263.94365950071	5790.4183799098
4	160479	29268.157498127358	5791.0088603772
4	160484	29268.299156375061	5789.5688860657
4	160489	29268.570142402401	5789.2459702719
4	160496	29269.800668571398	5786.881744538
4	160520	29272.957716572972	5785.2102707951
4	160536	29276.860293389919	5787.787226697
4	160591	29286.684716887723	5791.8497967133
4	160596	29286.995964420933	5790.9524626667
4	160607	29287.765449752228	5791.1819939227
4	160616	29288.603577864287	5787.387277957
4	160631	29290.352546953043	5786.528008406
4	160644	29291.854304986108	5787.8030719109
4	160667	29294.442446322068	5786.055839471
4	160677	29295.227689794562	5781.8154986914
4	160691	29297.463671383172	5781.8740109614
4	160696	29297.757237815011	5780.3424795842
4	160701	29297.983146911911	5776.0163710727
4	160716	29301.523620526871	5776.2205544244
4	161012	29360.859897651837	5832.543544572
4	161019	29361.38721696288	5828.3697826997
4	161025	29361.921726797339	5828.2092425364
4	161030	29361.99582527517	5815.2380162165
4	161035	29363.785290861836	5815.7843970221
4	161045	29364.635128279934	5810.2873835169
4	161083	29369.639939198179	5815.2134389694
4	161088	29369.641120355682	5814.3790792516
4	161093	29370.686138691772	5812.848240074
4	161102	29371.794298235137	5803.1177531487
4	161112	29372.570575182033	5803.0890458728
4	161122	29374.344323843737	5803.3725775063
4	161168	29380.094038171866	5799.1934376858
4	161331	29412.507911964642	5826.092214437
4	161338	29413.018902568193	5824.6137212748
4	161359	29417.237598995748	5827.36746162
4	161364	29417.59543913543	5827.6323862903
4	161369	29418.66400991993	5822.4849415284
4	161383	29426.125371143431	5829.1070046804
4	161412	29431.141951830068	5833.6304224855
4	161432	29433.56194071029	5835.9102704285
4	161437	29433.61662165044	5835.7382078534
4	161447	29437.074838394636	5832.6038954604
4	161452	29437.257450564714	5831.4563860774
4	161460	29437.668290512572	5828.7394454776
4	161473	29439.837555013712	5828.9050901303
4	161482	29442.844182190865	5825.7680777922
4	161492	29443.629990097222	5823.970141373
4	161500	29445.496082871743	5820.3854525048
4	161527	29448.668982884004	5820.1881928655
4	161540	29449.148635626275	5819.9731309089
4	161545	29449.530086619591	5815.8130776244
4	161554	29451.097532768894	5812.4061655211
4	161584	29455.318883839191	5814.5977541758
4	161601	29457.520919991731	5814.997343175
4	161609	29459.010171531333	5814.2724129247
4	161622	29460.577592429757	5810.986898357
4	161635	29462.028459738853	5811.8749941782
4	161640	29462.332951285333	5808.3856512955
4	161650	29463.85180467219	5809.8551172009
4	161662	29466.1354556817	5809.2867961729
4	161674	29468.018940761856	5808.7749891721
4	161704	29472.698280169015	5800.6049779158
4	161722	29475.738092822565	5800.2408997583
4	161732	29476.523358251425	5790.7399108327
4	161758	29480.954510117121	5794.4219946032
4	161763	29481.226984939076	5790.5960542937
4	161776	29486.675968293486	5792.8914497273
4	161807	29491.282711865024	5793.969974214
4	161813	29493.316981801467	5795.2941531849
4	161818	29493.342297494539	5794.2542866426
4	161823	29494.495589876374	5795.0371976744
4	161831	29496.749298898071	5789.2028624047
4	161875	29500.328748377341	5773.0117178099
4	161900	29502.153900310693	5773.252343857
4	161913	29506.098177373289	5777.0999386422
4	162208	29572.107525051698	5831.1675303934
4	162213	29573.318556061569	5831.4759720242
4	162221	29573.676958166142	5831.6239416368
4	162234	29575.563962988794	5825.4756353749
4	162246	29577.441995880151	5822.5343815465
4	162257	29578.783392407216	5820.9519062975
4	162269	29580.110760391431	5821.4818668667
4	162290	29582.081101722949	5821.4753080922
4	162297	29583.819372981313	5820.2175695765
4	162311	29585.24385984345	5811.7449434928
4	162329	29587.544577826262	5808.1288839552
4	162335	29587.99191638421	5801.9014054746
4	162340	29588.139095513571	5800.4965548093
4	162347	29590.35611017734	5801.8525313447
4	162360	29593.708390560183	5804.2037647047
4	162370	29595.987171348508	5798.3319816902
4	162381	29597.580479319446	5789.4150044901
4	162427	29606.58354433265	5786.5290141054
4	162450	29609.540770274888	5789.1032562613
4	162460	29610.012846939601	5776.5582052941
4	162479	29613.652348219211	5778.7378863438
4	162496	29615.041185742855	5777.0449985778
4	162501	29615.362460467252	5775.7476327882
4	162508	29619.099454918163	5776.5262761985
4	162527	29621.579460333956	5768.1942683334
4	162539	29625.209382731837	5771.2770194223
4	162560	29627.110367654422	5771.222083187
4	162567	29627.460332316269	5769.077147498
4	162572	29627.798297058807	5767.8012397509
4	162578	29628.390369334219	5759.8518186917
4	162584	29629.092391316014	5757.7432597918
4	162590	29630.848937988267	5746.0122108692
4	162596	29632.817377500477	5747.6782832701
4	162605	29635.813467329323	5749.6206620641
4	162611	29635.970960880929	5749.6405202017
4	162616	29636.237117293958	5745.1038832295
4	162629	29637.644802407685	5729.5174568145
4	162649	29641.746843175633	5727.5959442499
4	162664	29642.161273303534	5727.9709859982
4	162677	29643.638333374017	5723.6086409155
4	162824	29671.77737724316	5746.1785097206
4	162835	29672.951395308957	5740.4657549334
4	162840	29674.617204660368	5740.4007623598
4	162845	29675.212114105412	5736.8201131465
4	162854	29677.162246451557	5737.1837608282
4	162859	29677.318457018192	5722.7213352254
4	162866	29677.695825468592	5722.5425893888
4	162871	29677.713145070498	5709.0453560282
4	162876	29677.830644720783	5698.6341876505
4	162893	29681.137341369837	5701.9057468516
4	162987	29692.996964065311	5708.8084530867
4	162994	29694.78121699682	5707.6753823303
4	162999	29695.089271539603	5707.4910769693
4	163005	29696.113862999211	5704.6032803825
4	163014	29697.75752874117	5705.8987933168
4	163030	29699.123957380109	5702.8378832766
4	163049	29703.513463539247	5704.7890403471
4	163071	29706.390371497928	5706.2099498407
4	163581	29822.214465384728	5821.8030694177
4	163586	29822.768243417396	5820.9367882088
4	163595	29826.087857802688	5824.0916053111
4	163600	29826.553623457932	5823.6910844366
4	163606	29827.258897419938	5822.5675701316
4	163611	29827.385462032408	5818.6689241089
4	163616	29827.618332685438	5818.3571201148
4	163624	29829.131517875875	5802.3632855106
4	163638	29830.821697169172	5803.3876359629
4	163645	29831.413465038981	5796.9099730975
4	163650	29834.080810269739	5798.7191767884
4	163655	29834.198265499823	5797.3233554818
4	163660	29834.342744746672	5787.9361642897
4	163669	29836.810472818219	5787.0675669532
4	163690	29837.847525520405	5783.7677034852
4	163711	29840.495198111294	5786.3712519276
4	163737	29842.481865802967	5787.825191376
4	163769	29846.115854412907	5790.5109130258
4	163776	29847.05566815563	5789.3314698146
4	163813	29854.17823654995	5786.0096565771
4	163869	29865.35091395201	5795.4413256408
4	163874	29865.925012126045	5790.9907732949
4	163880	29866.563711376383	5791.1018649045
4	163887	29869.819719847282	5788.5426641244
4	163906	29874.664741553573	5787.0547053428
4	163927	29880.904035868276	5791.5925929751
4	163985	29888.367116965515	5795.8258760149
4	163995	29890.704672416048	5797.1319720925
4	164013	29893.014210547833	5796.1139442003
4	164052	29900.8628088684	5802.0183727184
4	164061	29902.206582818923	5799.0122699249
4	164073	29903.691930007999	5797.9427779366
4	164082	29904.127526221862	5795.1702854188
4	164110	29909.100966284317	5799.5256057816
4	164127	29910.140646482524	5798.162833433
4	164132	29910.314977103618	5797.8559622591
4	164145	29913.759458846198	5795.7946845179
4	164171	29917.402869835547	5799.285789875
4	164177	29917.63431000009	5793.3649961081
4	164187	29919.313164483654	5788.9437624696
4	164198	29920.323492804988	5776.6143298463
4	164205	29924.329389074918	5767.6886086041
4	164217	29925.484261616285	5766.6182430513
4	164236	29929.760948988075	5770.413990274
4	164367	29952.893124268478	5790.9557594701
4	164373	29953.80364626336	5790.5392198812
4	164383	29955.301428183715	5791.263544578
4	164401	29956.812245637914	5792.338286378
4	164429	29959.18900420809	5786.5123622576
4	164434	29959.669955738823	5782.7805515642
4	164442	29961.883952199785	5784.9929865257
4	164453	29964.248919404702	5786.3554842985
4	164466	29966.108918001819	5782.7340447417
4	164486	29968.013170097753	5779.9931023435
4	164498	29970.603054237642	5779.945813273
4	164505	29974.962006120252	5771.7189312917
4	164510	29975.032006277013	5770.4164003102
4	164520	29976.326477416187	5771.3005125483
4	164534	29977.667263050664	5770.1950187287
4	164539	29977.929239528192	5768.7936945465
4	164544	29979.355599248441	5769.7698835483
4	164553	29980.161083622808	5761.5458419269
4	164574	29983.277147990159	5760.3523194537
4	164593	29984.202946819347	5757.9577034848
4	164598	29986.495958927982	5745.7378283109
4	164603	29988.798874629011	5739.6200109053
4	164616	29992.920230307648	5743.3530473903

