version 2
run First-n2-16-20191016-17:03:57-12392
attr configname First-n2
attr datetime 20191016-17:03:57
attr experiment First-n2
attr inifile omnetpp.ini
attr iterationvars ""
attr iterationvarsf ""
attr measurement ""
attr network org.omnetpp.queueing.Pizza
attr processid 12392
attr repetition 16
attr replication ""
attr resultdir results
attr runnumber 16
attr seedset 16
param **.PS.maxInventoriedPS 2
param **.U1.interArrivalTime exponential(2s)
param **.U2.interArrivalTime exponential(4s)
param **.PS.serviceTimeForInventoryU1 exponential(0.8s)
param **.PS.serviceTimeForInventoryU2 exponential(1.0s)
param **.PS.serviceTimeDirectU1 exponential(1.2s)
param **.PS.serviceTimeDirectU2 exponential(1.4s)
param **.PS.probabilityProducing 0.5
param **.CS.serviceTimeU1 exponential(0.8s)
param **.CS.serviceTimeU2 exponential(1.0s)

vector 0 Pizza.EntryQueueU1 queueLength:vector ETV
attr interpolationmode sample-hold
attr title "queue length, vector"
vector 1 Pizza.CS queueLength:vector ETV
attr interpolationmode sample-hold
attr title "queue length, vector"
vector 2 Pizza.EntryQueueU2 queueLength:vector ETV
attr interpolationmode sample-hold
attr title "queue length, vector"
vector 3 Pizza.sink lifeTime:vector ETV
attr interpolationmode none
attr title "lifetime of arrived jobs, vector"
attr unit s
vector 4 Pizza.sink lifeTimeU1:vector ETV
attr interpolationmode none
attr title "lifetime of arrived jobs, vector"
attr unit s
vector 5 Pizza.sink lifeTimeU2:vector ETV
attr interpolationmode none
attr title "lifetime of arrived jobs, vector"
attr unit s
0	0	0	0
0	51	8.758418346936	1
0	52	9.256358353143	0
0	80	11.435068074904	1
0	83	13.383727728661	0
0	97	14.560642099579	1
0	98	14.959943720007	0
0	120	19.105981451438	1
0	122	19.454043636328	2
0	123	19.612754943985	1
0	128	19.728323048563	0
0	135	20.287118800334	1
0	137	20.772355160759	2
0	139	20.793033094484	3
0	141	21.148421537558	2
0	148	21.674411859921	3
0	149	21.915759809445	2
0	155	22.198194619324	3
0	156	23.000687762185	2
0	160	23.192086063591	3
0	166	24.808251483144	4
0	168	25.042134749955	3
0	173	27.68143541558	2
0	180	30.888273825152	1
0	186	31.962607001472	2
0	187	32.002749010933	1
0	191	33.105991601843	2
0	194	33.600879064374	1
0	202	35.570571754827	2
0	203	35.987594716622	1
0	209	37.865777809558	2
0	213	38.105250123601	3
0	215	38.549444885353	4
0	216	40.703988059053	3
0	225	42.3932846137	2
0	232	43.661530566621	1
0	239	44.078841960762	0
0	252	48.346142886824	1
0	254	48.506541398172	2
0	255	48.641741890762	1
0	260	49.545876371692	0
0	277	52.031254246227	1
0	281	52.913507404366	2
0	284	53.332430667838	1
0	292	55.037222592789	2
0	295	55.935042913072	1
0	302	56.472233724206	2
0	303	56.559922687248	1
0	309	57.385914133264	0
0	320	58.922063180805	1
0	321	59.230897556387	0
0	331	60.890002037738	1
0	333	61.127004783135	2
0	336	61.473661430787	1
0	341	61.533960251921	0
0	345	64.684490670213	1
0	353	65.170048804915	0
0	369	67.364377197007	1
0	371	67.432383432834	2
0	376	68.333572270121	1
0	383	71.54951785516	0
0	387	71.967138716084	1
0	390	72.681544304166	0
0	394	73.565310567194	1
0	396	73.892260939953	2
0	400	74.332250931642	3
0	401	74.892159379617	2
0	405	75.177282896908	3
0	409	76.742836062211	2
0	414	77.556609238986	1
0	419	78.586505862481	0
0	423	78.977000139762	1
0	428	81.083947589745	2
0	430	81.471486335185	1
0	438	81.620684230912	0
0	450	82.807200741461	1
0	452	83.7340941089	0
0	470	86.381894911075	1
0	474	87.217453733091	2
0	475	87.263214931352	1
0	480	87.934428644315	0
0	496	90.718427661778	1
0	498	91.788671250202	0
0	509	92.418985626287	1
0	511	93.397065467642	0
0	518	93.492414045587	1
0	521	95.136389565797	0
0	536	96.974932260688	1
0	538	97.803178404108	2
0	546	99.871070501772	1
0	551	100.07114437458	0
0	564	101.168579984063	1
0	565	101.391783235586	0
0	578	103.894281944314	1
0	580	104.22266168687	2
0	581	105.367228548559	1
0	586	105.590203463286	0
0	590	105.863719939204	1
0	594	106.454303233238	2
0	597	107.419980871797	1
0	602	107.634946036663	0
0	619	110.79091611582	1
0	621	110.85971262236	2
0	623	110.91077490389	3
0	626	111.188761330144	4
0	628	111.338139633648	5
0	629	111.780910579682	4
0	635	111.785966865177	5
0	639	112.542429455335	4
0	644	112.708594418208	3
0	650	113.24861881322	2
0	656	113.54787031298	1
0	661	113.836727998512	0
0	676	116.105283001864	1
0	683	117.584026410078	2
0	687	118.212083812312	3
0	689	118.80465302173	4
0	691	118.890769631962	5
0	692	119.501782838142	4
0	698	120.089810576495	5
0	700	120.116845470159	6
0	702	120.17277776209	7
0	703	120.219627278293	6
0	708	121.400546537729	5
0	712	121.928718301218	6
0	714	121.939678651152	7
0	717	122.414722084257	6
0	721	122.588042291249	7
0	724	124.209907870115	6
0	732	126.213666871861	7
0	738	127.944821956441	8
0	739	128.077613753974	7
0	748	130.339217927362	8
0	750	130.710689975534	9
0	752	131.419428207732	8
0	757	131.801852321226	7
0	762	132.186396963255	6
0	766	133.150716877416	7
0	768	133.510234347899	8
0	773	135.096078467473	7
0	781	136.215832896414	6
0	787	136.799081252891	5
0	792	136.884575031072	4
0	798	138.295686754339	5
0	802	140.2617947619	6
0	805	141.159193738877	5
0	812	142.839497017208	4
0	818	143.413660068519	5
0	824	144.455315085383	6
0	827	145.527406838467	5
0	833	146.193809909978	6
0	834	146.292832921674	5
0	838	146.351012663787	6
0	844	148.442083716358	7
0	846	148.577445825152	8
0	847	148.740134095427	7
0	853	149.195065588512	6
0	858	149.254226392658	5
0	863	150.021436730051	4
0	869	152.247088953416	5
0	870	152.318080454779	4
0	875	152.639802260497	3
0	884	155.291992548199	2
0	890	156.187062858815	1
0	895	156.963776476779	0
0	909	157.592694683755	1
0	911	157.688545531637	2
0	912	157.964695012141	1
0	919	158.834852558992	0
0	923	160.750179896926	1
0	925	161.29901044035	2
0	927	161.364780611849	3
0	929	161.725039458836	4
0	931	162.813030753637	5
0	934	163.529588492326	4
0	938	164.554428205573	5
0	942	165.131521794754	6
0	943	167.614238028624	5
0	947	170.382395774589	6
0	949	170.443446279042	7
0	953	172.215924128824	8
0	957	175.048035900612	9
0	958	175.392470927646	8
0	963	175.894273108956	7
0	972	178.167302184122	6
0	976	178.474099384848	7
0	980	178.860744799596	6
0	985	178.985550494156	5
0	990	180.447127929963	4
0	997	182.019723696929	3
0	1004	182.097153144682	4
0	1006	182.674822561304	5
0	1007	182.756858024035	4
0	1012	182.907126702802	3
0	1018	183.481633998741	2
0	1025	186.163901398163	1
0	1030	188.215800847355	0
0	1061	195.868324613575	1
0	1062	197.061652865171	0
0	1076	198.581242070191	1
0	1082	200.759001903335	2
0	1083	201.786935479618	1
0	1089	202.12065442335	0
0	1093	202.449312617333	1
0	1099	204.101762911474	0
0	1105	204.104676803054	1
0	1107	204.159638918052	2
0	1109	204.603437043314	1
0	1114	204.80456495234	0
0	1136	208.45142945471	1
0	1137	208.855363816462	0
0	1171	216.316255392507	1
0	1172	216.365485085239	0
0	1200	220.885708703447	1
0	1202	221.036794318367	2
0	1205	221.757052496685	1
0	1214	222.513144677656	0
0	1241	229.051439827781	1
0	1242	230.40819646444	0
0	1256	231.713737506807	1
0	1261	233.02245141401	0
0	1274	234.145464692252	1
0	1277	234.837772054841	0
0	1284	235.833755687716	1
0	1289	237.997607970811	0
0	1306	240.250939837074	1
0	1309	240.90177844301	2
0	1310	241.578179428904	1
0	1316	241.991107289012	2
0	1318	241.998197457037	3
0	1319	242.668714928506	2
0	1325	243.000592422029	1
0	1331	245.2096008737	2
0	1333	245.95485095748	3
0	1335	246.521389064174	4
0	1338	247.090076242991	3
0	1344	248.037351637305	4
0	1346	248.605328691426	5
0	1348	249.664244245165	6
0	1353	250.545336269206	7
0	1354	251.091910466632	6
0	1359	251.756999273629	5
0	1365	252.093951744094	6
0	1367	254.01127367264	7
0	1369	254.554396507281	8
0	1371	254.746910759987	9
0	1373	254.834756188232	10
0	1375	255.025913933598	11
0	1377	255.619826710076	12
0	1378	257.491922624834	11
0	1383	257.899869603317	10
0	1389	258.68282145479	9
0	1394	258.846871409143	8
0	1399	260.938667585356	7
0	1406	262.526399978447	6
0	1411	264.063781726125	5
0	1423	266.706490472933	6
0	1424	266.972443536242	5
0	1429	267.610780096404	4
0	1433	268.393386573799	5
0	1437	270.27849675122	6
0	1439	271.078792873996	7
0	1444	271.558221474417	6
0	1448	273.996341086495	7
0	1450	274.384450456182	8
0	1454	274.494363918778	9
0	1455	274.573595009173	8
0	1459	274.584588981619	9
0	1463	275.576781076027	8
0	1468	275.754173324885	7
0	1472	276.634920693323	8
0	1474	278.777657781766	9
0	1479	281.266464670719	10
0	1480	281.433311722974	9
0	1485	281.709812890374	8
0	1489	282.653465196792	9
0	1491	283.207269301578	10
0	1497	284.978503423216	11
0	1498	287.803824113365	10
0	1503	288.390714019537	9
0	1508	288.927296473133	8
0	1514	289.403774859787	9
0	1515	289.799187134767	8
0	1519	290.246386944728	9
0	1523	290.294135913701	10
0	1524	290.59057642382	9
0	1532	293.583003849921	8
0	1538	293.740858906114	9
0	1541	295.039668225081	10
0	1542	295.704008558283	9
0	1549	298.088219517591	8
0	1556	298.356970563405	7
0	1561	298.419185803029	6
0	1565	298.450227296772	7
0	1567	299.753957769497	8
0	1571	300.053903442588	9
0	1573	300.433691965196	10
0	1575	300.473722378079	11
0	1576	300.76816487551	10
0	1586	302.253393904397	11
0	1588	302.613436024542	12
0	1590	302.830260078503	13
0	1591	302.842689412998	12
0	1598	303.063717210482	13
0	1600	303.09440622983	14
0	1601	303.379516918827	13
0	1606	303.710292764818	12
0	1613	303.902624380542	11
0	1617	303.986658933044	12
0	1619	304.123303452027	13
0	1621	305.035108451642	14
0	1626	305.496492094011	13
0	1633	307.877638711032	12
0	1639	310.563826470655	13
0	1641	310.653779937352	14
0	1642	310.763875117309	13
0	1651	311.382008429981	12
0	1656	311.398667899881	11
0	1662	311.894494379635	12
0	1664	311.900085854303	13
0	1665	312.04165465723	12
0	1669	312.145936161654	13
0	1671	312.19103786776	14
0	1675	312.927095203394	13
0	1680	313.005768565598	12
0	1687	314.800105050781	11
0	1693	315.354862884159	12
0	1696	316.877570186379	13
0	1697	317.078079775278	12
0	1704	317.839981024493	11
0	1708	318.685302934146	12
0	1711	318.74732074209	11
0	1718	319.761320359372	12
0	1720	321.092286830178	13
0	1722	321.383112634629	14
0	1723	323.09582925536	13
0	1729	323.436545516959	14
0	1730	324.041992601658	13
0	1738	325.081420069436	14
0	1742	325.964895826642	15
0	1743	326.304337469157	14
0	1747	326.768091478925	15
0	1751	327.700454498595	16
0	1752	329.007228340845	15
0	1756	330.942388854889	16
0	1759	332.955548239045	15
0	1765	334.31109628109	16
0	1766	334.335884135304	15
0	1773	341.93196854057	14
0	1781	343.43047302278	15
0	1783	343.866009951684	16
0	1785	344.349419735285	17
0	1787	346.131951377059	18
0	1788	346.133100056427	17
0	1792	346.199784844551	18
0	1797	348.468402787854	17
0	1804	349.438795273064	16
0	1809	350.54903509533	15
0	1815	351.029830735207	16
0	1817	351.133189414513	17
0	1818	351.203496591192	16
0	1822	352.168910644323	17
0	1824	356.096958149592	18
0	1827	356.541350378219	17
0	1833	357.445180600237	16
0	1839	358.033012287064	15
0	1844	359.008367698165	14
0	1848	359.699098539312	15
0	1850	360.248199896261	16
0	1854	360.351259132776	17
0	1855	360.580056829597	16
0	1859	361.211858639925	17
0	1862	361.585272625368	16
0	1866	361.793894789969	17
0	1870	363.429715905075	16
0	1877	364.504152439848	17
0	1878	365.285141148647	16
0	1883	365.398386971821	15
0	1889	366.935692160238	14
0	1894	367.122579539947	13
0	1901	367.949177230984	14
0	1903	367.974559403985	13
0	1909	369.257102439454	14
0	1918	372.742710062673	13
0	1925	373.375847049707	12
0	1929	373.802197491132	13
0	1931	374.104473895192	14
0	1935	374.378696663812	15
0	1936	374.567881123628	14
0	1940	374.632057449835	15
0	1943	376.390133955858	14
0	1947	376.839834471557	15
0	1950	379.123859158971	14
0	1954	380.211332876097	15
0	1957	380.444524664805	14
0	1961	380.912996576534	15
0	1965	381.77644612893	14
0	1971	382.110636892913	13
0	1976	382.218144749522	12
0	1981	382.581000418821	11
0	1987	382.942130526967	12
0	1989	383.102973701199	13
0	1991	383.218733348301	14
0	1994	385.129691473507	13
0	2003	386.817604885396	14
0	2004	386.825436056104	13
0	2010	386.91448345129	14
0	2012	387.233596724899	15
0	2013	387.320061848199	14
0	2019	387.661250719469	15
0	2021	387.874476877832	16
0	2024	388.921773201048	15
0	2029	390.118233726247	14
0	2034	390.224130385587	13
0	2038	390.386531076451	14
0	2041	390.61259245336	13
0	2047	391.467183658499	12
0	2052	391.717708144268	11
0	2056	392.088265175296	12
0	2059	392.269903373846	11
0	2065	394.743695091753	12
0	2067	395.803919848557	13
0	2068	395.893721311449	12
0	2074	396.469918122815	13
0	2075	396.949883467524	12
0	2083	397.527957278653	11
0	2088	397.79412710224	10
0	2093	398.148596810959	9
0	2101	399.67820218441	10
0	2102	400.034743861902	9
0	2108	401.383672993882	10
0	2109	401.55323932528	9
0	2115	401.908345088911	10
0	2116	402.6424543577	9
0	2120	403.229442315555	10
0	2125	404.285806836261	11
0	2126	404.443376661307	10
0	2133	404.594264510599	9
0	2139	405.223130173708	10
0	2143	407.004767019716	9
0	2148	408.873535805385	8
0	2154	409.615764064092	9
0	2156	409.897724843715	10
0	2157	411.05321254127	9
0	2163	413.753832668527	10
0	2168	416.044048825081	9
0	2174	418.026496289437	10
0	2178	419.303574351191	11
0	2179	420.266789889946	10
0	2183	421.470837560384	11
0	2185	421.754477712878	12
0	2187	421.775048566329	13
0	2190	422.240764337589	12
0	2196	423.580319256512	13
0	2199	424.113931485186	12
0	2203	424.323180115806	13
0	2207	424.883331743058	12
0	2218	425.754175859395	11
0	2223	428.023305786739	10
0	2229	430.614180352965	11
0	2235	431.919531958921	12
0	2237	432.143082848739	13
0	2241	432.362123297971	14
0	2242	433.344113541291	13
0	2247	434.034520924921	12
0	2252	434.37178067913	11
0	2256	434.381076803726	12
0	2262	435.849850909142	11
0	2269	436.370502892887	10
0	2274	437.772698842384	9
0	2278	438.160050794367	10
0	2283	440.664528835646	9
0	2293	441.482259373917	10
0	2294	442.838087015499	9
0	2298	443.959469439023	10
0	2303	444.555685148272	9
0	2307	444.656114663445	10
0	2312	446.619734208206	11
0	2313	447.410826682752	10
0	2319	447.502703295908	11
0	2321	448.139504561436	12
0	2322	449.846687863745	11
0	2326	450.64230662326	12
0	2328	451.000047026668	13
0	2332	451.563360171979	14
0	2336	452.560791160212	13
0	2341	452.670820412971	12
0	2346	453.397959138294	11
0	2350	453.709676133358	12
0	2354	454.994119227206	11
0	2360	455.416051255878	10
0	2366	455.675375251607	11
0	2367	455.75591697763	10
0	2376	456.692255533531	11
0	2377	458.228248060245	10
0	2383	458.68201303542	9
0	2388	459.015597199791	8
0	2397	461.186337239848	7
0	2402	464.388679041637	6
0	2409	464.899628634492	5
0	2416	466.407748860815	4
0	2420	466.771124908947	5
0	2422	466.847464834352	6
0	2426	467.164178442207	7
0	2432	470.128541809256	6
0	2438	471.476756597101	5
0	2444	472.29535984086	4
0	2449	472.371201571293	3
0	2453	472.952728557135	4
0	2455	473.039415779103	5
0	2464	475.857365521513	6
0	2465	476.825688924435	5
0	2472	477.200564786643	6
0	2474	477.291375172696	5
0	2479	477.422395597216	4
0	2484	478.24397381339	3
0	2488	478.462206048897	4
0	2490	478.822795109926	5
0	2495	481.114242722623	4
0	2499	481.993008443557	5
0	2504	482.938775191435	4
0	2512	484.703658454081	5
0	2513	485.006035675648	4
0	2519	485.997720382638	5
0	2525	487.576868356975	6
0	2526	487.656435094694	5
0	2531	488.759053527662	4
0	2535	489.080704581949	5
0	2539	491.638882901495	6
0	2545	491.723116921452	7
0	2547	491.839094855703	8
0	2550	492.590479660456	7
0	2555	495.000311195421	6
0	2563	497.028552436756	5
0	2569	497.106554320896	6
0	2571	498.070831916492	7
0	2572	498.338235650396	6
0	2577	501.381823936518	5
0	2581	501.38387608138	6
0	2586	501.727050893008	5
0	2592	502.138840614943	6
0	2596	503.056764777607	7
0	2597	505.028499830412	6
0	2602	508.077781060553	5
0	2611	510.24687764215	4
0	2617	511.383656100894	5
0	2619	511.747841981034	6
0	2620	512.772079741425	5
0	2625	513.325883639255	4
0	2629	513.493808769536	5
0	2634	514.280932794217	4
0	2641	514.844295631041	5
0	2642	516.260843739402	4
0	2647	516.499130606779	3
0	2655	518.203544401919	2
0	2661	518.574210166538	3
0	2663	518.887959804172	4
0	2664	519.810595695396	3
0	2674	523.708688918928	2
0	2681	525.225452287047	1
0	2687	526.842685369004	2
0	2688	527.309557208406	1
0	2697	528.178713693459	0
0	2703	528.47780503714	1
0	2706	528.804545992501	2
0	2709	529.74109187257	3
0	2711	530.582887755091	4
0	2712	530.926337384965	3
0	2718	531.647637282132	2
0	2723	531.96472519334	1
0	2728	532.207203954663	0
0	2732	532.935487507169	1
0	2736	533.621723361383	2
0	2738	534.276362541353	3
0	2741	534.670736658429	2
0	2745	534.92870684633	3
0	2749	537.325895432795	4
0	2752	538.479374919444	3
0	2756	538.832354525943	4
0	2759	541.360541057435	3
0	2765	542.092823445055	4
0	2766	542.134455904223	3
0	2772	542.351562625498	4
0	2773	542.376887211638	3
0	2778	543.95618471764	2
0	2783	545.22789526077	1
0	2789	545.385151429625	2
0	2790	545.386471299877	1
0	2795	545.781124404675	0
0	2825	548.853966260399	1
0	2826	549.047273097445	0
0	2835	550.010753818729	1
0	2841	553.795904288802	0
0	2847	554.070102725287	1
0	2848	554.70515361048	0
0	2873	558.546642892264	1
0	2875	560.770052060508	0
0	2897	563.432013454145	1
0	2902	565.646931977179	0
0	2911	566.455338334402	1
0	2916	567.512166986304	0
0	2932	569.255063895628	1
0	2933	569.510775358551	0
0	2939	569.696635260682	1
0	2940	569.913387187144	0
0	2944	570.549967029798	1
0	2946	570.820153379384	2
0	2953	573.777865711776	3
0	2954	574.264634013212	2
0	2960	574.577238183569	3
0	2963	574.881953795234	4
0	2965	575.123381691464	5
0	2966	575.129111248266	4
0	2971	575.777845743206	3
0	2976	576.921077494712	2
0	2981	578.763507973869	1
0	2985	579.564723757301	2
0	2987	580.067727429085	3
0	2990	580.206891104723	2
0	2996	580.775459939629	1
0	3001	580.990355769938	0
0	3027	585.386035975656	1
0	3028	585.647384121756	0
0	3045	587.93283393584	1
0	3048	588.6623279721	0
0	3064	589.548939835331	1
0	3065	590.009141431585	0
0	3074	594.125047260017	1
0	3076	594.727332556928	2
0	3077	594.781929426185	1
0	3081	595.270336234858	2
0	3084	596.36293100621	1
0	3088	596.488123657397	2
0	3091	597.366854498833	1
0	3095	597.643412333967	2
0	3099	598.498431989164	3
0	3100	598.950261800083	2
0	3104	599.495330285788	3
0	3107	600.133541394594	2
0	3112	600.756294311744	1
0	3118	601.210694561757	0
0	3129	601.68365467498	1
0	3131	602.337208433462	2
0	3133	602.37358613787	3
0	3134	602.75082030864	2
0	3138	604.544582981139	3
0	3141	607.92863317741	2
0	3145	607.950664653648	3
0	3147	608.239320179819	4
0	3151	609.046864727179	5
0	3153	609.900059421016	4
0	3158	611.008054454077	3
0	3162	611.450955973663	4
0	3164	612.540875377278	5
0	3168	612.590245956045	6
0	3170	612.659207642162	7
0	3177	615.224423739465	8
0	3179	615.731351334611	9
0	3180	616.15688965859	8
0	3185	617.475087374577	7
0	3189	617.984666471175	8
0	3192	619.790517901807	7
0	3196	620.631884859403	8
0	3198	620.775718106312	9
0	3201	623.100043673002	8
0	3205	623.221715162666	9
0	3212	624.144667318372	8
0	3217	626.977713375778	7
0	3226	628.27713776663	6
0	3233	629.48891678184	5
0	3239	630.952921307502	6
0	3241	631.438329143011	7
0	3242	631.458374911736	6
0	3249	634.746842918035	5
0	3253	634.90567221333	6
0	3256	635.245197993277	5
0	3260	635.398046212737	6
0	3265	637.992414373175	5
0	3270	640.812528022507	4
0	3277	642.450328236268	5
0	3282	644.171749885513	6
0	3283	644.177292478978	5
0	3288	644.875895849707	4
0	3294	644.979543004647	5
0	3298	645.318589705822	6
0	3300	645.57033375151	7
0	3301	645.947450778083	6
0	3306	646.520821542208	5
0	3312	646.7605868999	6
0	3314	647.793694056689	5
0	3320	648.254601979161	4
0	3325	648.5868409435	3
0	3331	649.675887727419	2
0	3336	649.6785891796	1
0	3341	650.130558655084	0
0	3345	650.394378132828	1
0	3348	651.897749023981	0
0	3352	652.650928236514	1
0	3356	653.913673477395	2
0	3358	654.677362475244	3
0	3359	655.107418184492	2
0	3364	655.405020764621	1
0	3368	656.111934484527	2
0	3372	659.399190265933	1
0	3380	661.167624941483	2
0	3381	661.276267200471	1
0	3387	661.655329860674	2
0	3391	662.921603531567	1
0	3396	663.243655513856	0
0	3404	664.323243153609	1
0	3405	664.501637223081	0
0	3441	669.845606054512	1
0	3443	670.372034319433	2
0	3444	670.406161947868	1
0	3449	670.798204447975	0
0	3458	672.269878609794	1
0	3459	672.808473360781	0
0	3465	672.993649429017	1
0	3466	673.024103608434	0
0	3482	674.00018988425	1
0	3487	675.316356733867	2
0	3488	675.708800754475	1
0	3493	676.166587433437	0
0	3502	676.577918227428	1
0	3503	677.517439733343	0
0	3539	684.7240367204	1
0	3544	687.532522384319	0
0	3610	701.258204495126	1
0	3611	701.664643827178	0
0	3628	704.777995274499	1
0	3630	705.329418550374	2
0	3631	705.670647276869	1
0	3637	706.189791586451	0
0	3646	709.052962228271	1
0	3651	709.211076489933	0
0	3655	709.779656166312	1
0	3661	711.158894078884	2
0	3665	713.430160419472	3
0	3667	713.775558829224	2
0	3672	713.907027505013	1
0	3680	715.185560910308	0
0	3692	716.580856196848	1
0	3694	716.631529059189	2
0	3696	717.245091504574	1
0	3701	717.538102155898	0
0	3705	717.558543402957	1
0	3710	718.302517827489	0
0	3716	719.220756206006	1
0	3719	719.59962196294	0
0	3725	720.927889763158	1
0	3727	721.340877828741	2
0	3731	721.738544821984	3
0	3736	722.462637662927	4
0	3738	723.359054415744	3
0	3745	723.803083836096	4
0	3749	724.928915860744	5
0	3751	725.031244126241	6
0	3753	725.75919358413	7
0	3755	725.881164301642	8
0	3756	727.019412662709	7
0	3763	727.39315160826	8
0	3764	727.449516934146	7
0	3770	727.811948549045	8
0	3772	728.459606269259	7
0	3777	728.707825685884	6
0	3783	728.857931764927	7
0	3785	729.373785304232	8
0	3786	729.595513435101	7
0	3790	729.661312288033	8
0	3792	729.705237209849	9
0	3797	731.131804056116	10
0	3798	732.276270823097	9
0	3803	732.447181904376	8
0	3810	734.950123630742	7
0	3816	737.724773370575	6
0	3821	737.888886331324	5
0	3827	740.057419433354	6
0	3830	741.827752927021	5
0	3835	742.440259601733	4
0	3840	744.639487143659	3
0	3845	746.614279616164	2
0	3852	747.540605051555	1
0	3858	748.624221065351	2
0	3862	750.915827867755	3
0	3864	751.805395240219	4
0	3870	752.556839209401	5
0	3871	753.456685162852	4
0	3875	753.653372725601	5
0	3878	755.472482867631	4
0	3882	757.521620136194	5
0	3885	758.339028298296	4
0	3889	758.84989487486	5
0	3892	759.402203898107	4
0	3901	763.071941400602	5
0	3905	764.400685213314	4
0	3911	764.473645324555	3
0	3919	765.703868844136	4
0	3921	765.929426489146	5
0	3922	766.16775460147	4
0	3927	767.222947439231	3
0	3934	768.552963857496	2
0	3942	768.924398491503	3
0	3944	769.107161581494	4
0	3945	769.450228743007	3
0	3952	772.62901131537	2
0	3956	772.660071448908	3
0	3961	774.102265548788	4
0	3963	774.677147401473	3
0	3968	774.972938940943	2
0	3974	775.082720824332	3
0	3975	775.132060390348	2
0	3979	775.937451724837	3
0	3981	776.144191458886	4
0	3983	777.136489740238	5
0	3985	777.933352041492	6
0	3987	778.38921150216	7
0	3989	778.418881042763	8
0	3993	778.991198062577	9
0	3995	779.212629255088	10
0	3997	780.2461891694	11
0	4001	780.449176185198	12
0	4003	780.749893504627	13
0	4004	781.18703413958	12
0	4013	782.267812529582	11
0	4018	783.489893870475	10
0	4022	784.372934799708	11
0	4024	784.526276922135	12
0	4026	784.751704909951	13
0	4028	784.990241742076	14
0	4031	785.394625655173	13
0	4036	790.530737652226	12
0	4040	792.126536797652	13
0	4042	792.216393325909	14
0	4049	794.316253952895	13
0	4053	794.955338452936	14
0	4055	796.040300507052	15
0	4059	797.890284028638	14
0	4065	798.701930815778	15
0	4067	798.776009686595	16
0	4068	798.835765807191	15
0	4072	799.172850524571	16
0	4078	799.889624462284	17
0	4079	800.033275817319	16
0	4084	800.586749841754	15
0	4090	801.303518379282	16
0	4092	803.122597647405	17
0	4093	803.293761252012	16
0	4099	804.89351890169	17
0	4104	807.969145994029	16
0	4109	808.672601606898	15
0	4115	808.836368810519	16
0	4116	809.126353527416	15
0	4121	809.505142712315	14
0	4130	811.838438927019	13
0	4137	812.110588282375	12
0	4143	812.930338051837	13
0	4144	813.35186415158	12
0	4148	813.918227584694	13
0	4152	815.843446230972	12
0	4157	816.356945271757	11
0	4162	816.492780349667	10
0	4169	816.810945145665	9
0	4175	819.19035620752	10
0	4177	820.02651950984	11
0	4179	820.988287962302	12
0	4180	822.974228140935	11
0	4188	824.522076610081	12
0	4191	824.908379048905	13
0	4193	825.056534229994	14
0	4195	825.476753949597	13
0	4200	826.213546946976	12
0	4205	826.22865885463	11
0	4211	826.711416115245	12
0	4212	827.072544362932	11
0	4216	827.148658612192	12
0	4219	827.946770210497	11
0	4225	831.825289951856	12
0	4227	831.970947948428	13
0	4228	832.058100268621	12
0	4234	832.611777864359	11
0	4239	833.175052197953	10
0	4243	833.421633254402	11
0	4245	833.684759606274	12
0	4248	834.512493685697	11
0	4253	835.218356286056	10
0	4259	836.007392427882	9
0	4268	837.278442337957	8
0	4273	839.396440001745	7
0	4279	840.035774515815	8
0	4285	841.02785465515	9
0	4287	843.970548627064	10
0	4289	845.872798247884	11
0	4295	847.309993343562	12
0	4296	847.751198721282	11
0	4301	847.785187553582	10
0	4306	847.894690428044	9
0	4312	848.253445673231	8
0	4317	848.614507477616	7
0	4322	849.99768900893	6
0	4327	850.675843645149	5
0	4331	851.28246970229	6
0	4338	852.655977964965	5
0	4345	855.880136471864	4
0	4350	856.247343546934	3
0	4356	858.347711886497	4
0	4358	859.459786758631	5
0	4360	860.219363676328	6
0	4364	860.776682452528	7
0	4365	860.813096083752	6
0	4370	861.948471171656	5
0	4375	863.101407203676	4
0	4379	863.839635385087	5
0	4381	864.928142524793	6
0	4384	866.411305019369	5
0	4390	868.508250883827	6
0	4394	869.172937741922	7
0	4395	869.312487886392	6
0	4399	869.420267950481	7
0	4407	871.515980168442	8
0	4408	871.959268091875	7
0	4416	875.04795445151	8
0	4424	876.395509477328	9
0	4426	876.469234597652	10
0	4427	876.692590232615	9
0	4432	877.842474954015	8
0	4436	879.349755028647	9
0	4439	880.250640980853	8
0	4443	880.26243930907	9
0	4447	881.415681043129	10
0	4451	881.515569916212	11
0	4453	881.582562767586	12
0	4460	883.490194555081	11
0	4464	884.848173949596	12
0	4466	885.333576007854	13
0	4468	885.45957346828	14
0	4471	887.345911753266	13
0	4476	888.917746017455	12
0	4480	889.869775376204	13
0	4484	890.095538095636	14
0	4485	890.277706696557	13
0	4490	891.261698762603	12
0	4495	892.47980219155	11
0	4499	892.48758655285	12
0	4503	893.079091692858	13
0	4505	893.80194348642	14
0	4507	894.533097108739	15
0	4510	896.369941872889	14
0	4515	897.191743530928	13
0	4519	897.291929248793	14
0	4523	897.9233708268	15
0	4528	899.695968860074	14
0	4533	900.593869186768	13
0	4539	900.711097310474	14
0	4540	900.766684709695	13
0	4544	900.920535110299	14
0	4546	901.582694180012	15
0	4548	901.68003037222	16
0	4550	902.239831677225	17
0	4555	903.218655240712	16
0	4563	905.443204743621	15
0	4568	906.088064324478	14
0	4574	908.64657928263	13
0	4579	909.239234656572	12
0	4583	909.6196722132	13
0	4587	909.784678127144	14
0	4592	912.01068723597	13
0	4597	912.269749519226	12
0	4602	913.36268267535	11
0	4608	913.919246105396	12
0	4611	914.554474476565	11
0	4617	916.407309234933	10
0	4622	916.408871621961	9
0	4627	917.853419187199	8
0	4631	918.95507386813	9
0	4634	919.684784003639	8
0	4638	920.039119446276	9
0	4640	921.872724945246	10
0	4643	923.150845645949	9
0	4651	928.230705763619	8
0	4656	928.235342495447	7
0	4663	929.050273170082	6
0	4669	930.75397159928	5
0	4677	931.17827598462	6
0	4679	931.240935354031	7
0	4681	932.082041015393	8
0	4684	932.766720967246	7
0	4690	933.342181589467	8
0	4693	933.946269031475	7
0	4700	934.237318291441	8
0	4702	934.478727337221	9
0	4705	935.359966984612	8
0	4711	935.946362335048	9
0	4712	936.46380167841	8
0	4717	937.605467761202	7
0	4721	937.690414394866	8
0	4723	938.510712624271	9
0	4725	940.657303775179	10
0	4730	941.886571153275	9
0	4734	943.037454266653	10
0	4738	943.860790294956	11
0	4739	944.002288775821	10
0	4749	946.195336626496	9
0	4755	946.651943269628	8
0	4760	946.983310596749	7
0	4767	947.373139649356	6
0	4774	948.340972466424	5
0	4781	950.867470434886	4
0	4785	951.999004107235	5
0	4787	953.222878670605	6
0	4790	954.275911127833	5
0	4794	954.768195696862	6
0	4797	955.877494314133	5
0	4801	956.00668184149	6
0	4804	959.431921332261	5
0	4810	960.06675926487	6
0	4818	962.552309034814	7
0	4820	963.081814435112	8
0	4822	963.461058371164	9
0	4823	963.777195809269	8
0	4828	964.187824941245	7
0	4833	964.188694003666	6
0	4837	964.264805480826	7
0	4841	964.418367098521	6
0	4848	966.800365600651	5
0	4855	967.861219500931	4
0	4860	968.493806769914	3
0	4865	969.320835183709	2
0	4874	970.266594998153	1
0	4879	971.183118029626	0
0	4887	972.331679088995	1
0	4888	972.597018024218	0
0	4894	973.654481546259	1
0	4895	973.834395220466	0
0	4899	974.996652026038	1
0	4905	977.252398994189	2
0	4909	979.547543634447	3
0	4912	980.249305248144	2
0	4919	981.020207066175	1
0	4924	981.754813374498	0
0	4928	982.413651315397	1
0	4930	982.562437584884	2
0	4933	984.319021337824	1
0	4937	984.387741461187	2
0	4940	984.693032401845	1
0	4948	987.205972793815	2
0	4950	987.916823182233	3
0	4953	988.505796087729	2
0	4960	988.975841934232	3
0	4961	989.335943122038	2
0	4966	989.570571689067	1
0	4971	990.110667997711	0
0	4989	994.864540174009	1
0	4991	995.084215145953	2
0	4993	997.764598361735	3
0	4994	997.798980351309	2
0	5000	998.879550204742	3
0	5003	1000.082587864158	4
0	5004	1000.306497406202	3
0	5009	1000.455799691158	2
0	5014	1002.205390505029	1
0	5018	1002.433544847796	2
0	5020	1003.808800153046	3
0	5025	1004.635673145064	2
0	5029	1005.058635821019	3
0	5034	1007.079673469292	2
0	5040	1008.549666834218	3
0	5044	1009.335364010037	2
0	5049	1009.472879520584	1
0	5054	1010.606256041818	0
0	5058	1010.875965501912	1
0	5060	1013.872477791742	2
0	5064	1014.704009267768	3
0	5066	1014.911973945293	2
0	5071	1015.728162121059	1
0	5075	1015.841998565398	2
0	5083	1017.330495411117	1
0	5089	1018.18364664775	2
0	5090	1018.34472058625	1
0	5098	1019.369837694487	0
0	5111	1019.711331559997	1
0	5112	1019.778445563082	0
0	5123	1020.354601993491	1
0	5126	1022.453254168932	0
0	5130	1022.581539035308	1
0	5134	1023.669228212934	2
0	5136	1024.7700268726	3
0	5140	1024.966312297521	4
0	5141	1025.648340988572	3
0	5146	1026.488359963456	2
0	5150	1028.302287693277	3
0	5154	1028.52783111019	4
0	5155	1028.736642084955	3
0	5162	1030.624064717834	2
0	5167	1030.787498150922	1
0	5174	1031.39757019337	0
0	5180	1034.554116298851	1
0	5182	1034.62523065454	2
0	5185	1035.397091833916	1
0	5192	1036.59259526679	0
0	5200	1036.705020727007	1
0	5202	1036.780874912	2
0	5203	1036.898113022616	1
0	5208	1037.035279876076	0
0	5212	1037.679140329812	1
0	5227	1043.291432273337	0
0	5244	1045.660970819729	1
0	5245	1045.875660185918	0
0	5263	1048.166404232893	1
0	5267	1049.005373437811	2
0	5271	1050.199246027187	3
0	5273	1051.397405166183	4
0	5277	1053.663265899846	3
0	5282	1053.979653062076	2
0	5288	1054.2738164335	3
0	5289	1054.535821408443	2
0	5293	1055.079626634874	3
0	5297	1055.530717827887	2
0	5302	1056.181537257335	1
0	5308	1057.590663622772	2
0	5310	1058.193516065944	3
0	5311	1058.844220670835	2
0	5316	1060.188861018126	1
0	5321	1060.490606088466	0
0	5325	1060.848528129056	1
0	5329	1061.123488642272	2
0	5332	1063.057413874268	1
0	5340	1064.219995430787	2
0	5341	1064.575521814287	1
0	5346	1065.243035149969	0
0	5350	1065.308767501695	1
0	5353	1065.354681472306	0
0	5408	1072.161813471675	1
0	5413	1073.245434081925	0
0	5419	1075.472396244124	1
0	5422	1076.188874786208	0
0	5426	1076.344190366856	1
0	5428	1076.771572995349	2
0	5431	1077.360691224755	1
0	5437	1079.139706290864	2
0	5439	1079.847672526465	3
0	5440	1080.606056707408	2
0	5446	1081.644633713343	1
0	5451	1082.232201177343	0
0	5455	1082.29205620435	1
0	5458	1084.374332567622	0
0	5464	1085.110421018308	1
0	5467	1085.898563307249	0
0	5481	1088.662316212731	1
0	5482	1088.795750428652	0
0	5489	1089.242385851549	1
0	5490	1090.047063563736	0
0	5496	1090.117624729878	1
0	5497	1090.845085040405	0
0	5520	1095.25317931124	1
0	5524	1096.64614060103	0
0	5530	1096.946953010306	1
0	5532	1097.363807962608	2
0	5533	1097.528696376807	1
0	5538	1097.706374280345	0
0	5542	1098.119926380018	1
0	5545	1098.772116410647	0
0	5551	1099.053487997891	1
0	5552	1099.069785819144	0
0	5556	1099.387762503097	1
0	5560	1099.703502144094	2
0	5561	1100.195453212413	1
0	5567	1101.63196010951	0
0	5575	1104.183519249958	1
0	5577	1104.336218357081	2
0	5580	1104.73280583844	1
0	5584	1104.803603963429	2
0	5587	1107.81616476978	1
0	5591	1107.942955993702	2
0	5593	1108.078333955976	3
0	5595	1108.286218040083	4
0	5598	1108.551955402998	3
0	5604	1109.928343668318	4
0	5605	1110.81245011068	3
0	5612	1112.530351250696	2
0	5616	1113.260521434665	3
0	5619	1115.152167162375	2
0	5628	1117.391647987376	1
0	5634	1118.795646761341	0
0	5647	1120.111390052198	1
0	5654	1124.355642973364	0
0	5672	1128.816854160924	1
0	5674	1129.816152019154	2
0	5675	1131.000653274681	1
0	5680	1131.188892122763	0
0	5694	1131.925373858689	1
0	5695	1132.321325960166	0
0	5701	1132.749798261464	1
0	5703	1133.184976205423	2
0	5705	1133.216626890233	3
0	5706	1133.642479322172	2
0	5712	1133.803714014449	1
0	5720	1135.446324597722	2
0	5721	1135.687603992359	1
0	5726	1137.784303054757	0
0	5730	1138.245693181209	1
0	5733	1139.13945981199	0
0	5737	1139.769598880246	1
0	5742	1141.472150445795	0
0	5748	1141.732165597191	1
0	5749	1142.430682754798	0
0	5753	1142.877327623077	1
0	5756	1145.489401528429	0
0	5764	1147.76007074234	1
0	5765	1148.138063594126	0
0	5771	1149.242663050474	1
0	5773	1149.952779058625	0
0	5781	1150.49136751467	1
0	5784	1150.734456318538	2
0	5786	1152.685812964966	1
0	5792	1154.08737779888	0
0	5806	1155.678975863982	1
0	5809	1156.189226630804	0
0	5815	1156.624664860613	1
0	5819	1157.64593482695	0
0	5838	1160.002794159748	1
0	5839	1160.975177853503	0
0	5845	1161.290951134679	1
0	5846	1161.647425052882	0
0	5852	1164.177456139643	1
0	5853	1164.660210510435	0
0	5861	1165.935840780575	1
0	5862	1166.318082629038	0
0	5870	1167.426303277267	1
0	5871	1167.949880647664	0
0	5893	1172.263100008012	1
0	5895	1173.226145225008	2
0	5896	1173.5179928941	1
0	5901	1173.543832271163	0
0	5910	1173.656200998594	1
0	5913	1175.498966042692	0
0	5917	1176.772720685574	1
0	5919	1177.12217981765	2
0	5922	1179.231889224625	1
0	5931	1180.409148146	0
0	5954	1185.145125284568	1
0	5955	1185.195098660302	0
0	5968	1186.10109292766	1
0	5970	1186.350194956844	0
0	5991	1188.704745921827	1
0	5993	1190.132446865764	0
0	6006	1191.266505918439	1
0	6007	1191.440279207513	0
0	6019	1192.52842955948	1
0	6020	1193.539754313076	0
0	6026	1193.601205227391	1
0	6027	1193.675104232905	0
0	6036	1195.533968949739	1
0	6038	1196.314072449497	2
0	6043	1197.399150257041	1
0	6049	1198.774907077026	2
0	6051	1199.155455146139	1
0	6057	1200.674270947993	0
0	6078	1203.265049687982	1
0	6082	1204.688795514412	2
0	6084	1204.755829432936	3
0	6085	1205.184010769626	2
0	6091	1205.581573700132	3
0	6094	1206.418466198711	2
0	6100	1207.484376300641	3
0	6102	1207.611018955603	4
0	6108	1208.624509826298	5
0	6109	1209.013491126119	4
0	6115	1209.15529534859	3
0	6120	1209.202163353582	2
0	6125	1209.33456177304	1
0	6131	1212.408799605896	0
0	6142	1213.02632374019	1
0	6143	1213.292095339094	0
0	6161	1214.892445232618	1
0	6162	1215.292885296322	0
0	6166	1215.373407095796	1
0	6168	1215.612965034864	2
0	6172	1216.045335641658	3
0	6177	1217.203618218395	4
0	6181	1218.209567069565	3
0	6187	1218.404030184088	2
0	6193	1218.821553827947	1
0	6199	1219.012585594506	2
0	6200	1219.14124329555	1
0	6206	1221.285693071639	0
0	6210	1221.669767026365	1
0	6212	1222.679676403477	2
0	6214	1223.536902071614	3
0	6216	1224.061538184192	4
0	6219	1226.158156064783	3
0	6224	1226.538856409535	2
0	6228	1228.625123009526	3
0	6230	1229.079206905519	4
0	6233	1229.597758777773	3
0	6238	1230.857701294725	2
0	6243	1231.311824700226	1
0	6247	1231.558587572202	2
0	6250	1233.090232468475	1
0	6259	1234.903263619007	0
0	6265	1234.975305873818	1
0	6266	1235.203696256699	0
0	6311	1242.401412828029	1
0	6312	1242.471960718439	0
0	6324	1244.11322390366	1
0	6327	1245.725876488419	0
0	6354	1251.320308912382	1
0	6355	1251.691892898776	0
0	6374	1255.562703562654	1
0	6378	1256.140043233769	0
0	6390	1256.619086369511	1
0	6391	1258.113347800346	0
0	6407	1259.496746584042	1
0	6410	1260.185037816224	0
0	6414	1261.104926497487	1
0	6418	1263.72180759753	2
0	6421	1264.017173962856	3
0	6424	1264.486748565137	4
0	6425	1264.541945392997	3
0	6431	1264.552979648964	4
0	6433	1265.338933805358	5
0	6436	1265.7928352025	6
0	6437	1266.85781897088	5
0	6442	1266.987392615127	4
0	6447	1267.453475059399	3
0	6451	1267.864083309863	4
0	6457	1270.779422610093	3
0	6463	1272.022395930122	2
0	6469	1272.073632106707	3
0	6470	1272.160363255223	2
0	6475	1272.747168089611	1
0	6482	1275.483419072294	0
0	6488	1275.75392768888	1
0	6490	1276.008880499759	2
0	6492	1276.262053851954	3
0	6494	1276.772297892964	4
0	6498	1277.762584909732	3
0	6506	1278.73850533714	4
0	6507	1279.310715651677	3
0	6512	1279.809742043024	2
0	6518	1280.371515832127	1
0	6524	1280.923056878752	2
0	6526	1281.633883590768	3
0	6531	1283.304351035737	2
0	6536	1286.121940155175	1
0	6541	1286.794803167118	0
0	6552	1287.819196404184	1
0	6553	1287.884206102764	0
0	6564	1288.344446928373	1
0	6569	1292.007043045471	0
0	6588	1293.9032250186	1
0	6591	1294.35421370748	0
0	6595	1298.400298432538	1
0	6597	1298.425953954265	2
0	6600	1299.222002224121	1
0	6605	1299.692505329423	0
0	6663	1311.526954065689	1
0	6664	1312.668526805059	0
0	6675	1313.465763605547	1
0	6678	1313.831605881449	2
0	6680	1314.024315424163	3
0	6682	1314.418349456254	4
0	6683	1314.937780381857	3
0	6688	1315.589443314156	2
0	6693	1316.297401753467	1
0	6697	1316.487037660502	2
0	6701	1317.950417750819	3
0	6702	1318.059421534945	2
0	6711	1321.200873024441	1
0	6718	1323.031742268124	0
0	6733	1325.156581179016	1
0	6739	1332.486064451495	2
0	6742	1332.825685626217	1
0	6747	1333.169395875088	0
0	6769	1336.042253203152	1
0	6771	1337.894060285828	2
0	6776	1339.020684815376	1
0	6784	1340.755252521594	2
0	6789	1344.795017472834	1
0	6794	1344.871775538791	0
0	6805	1345.728521245164	1
0	6806	1346.044581435398	0
0	6810	1346.819687592599	1
0	6812	1347.781507343018	2
0	6814	1347.904764287103	3
0	6818	1348.391142131818	4
0	6821	1350.130952866502	3
0	6825	1350.216197574618	4
0	6829	1351.657713421251	3
0	6833	1352.238887386512	4
0	6842	1355.095457647576	3
0	6849	1355.737111132138	2
0	6854	1356.472116740405	1
0	6858	1356.512570201678	2
0	6863	1357.747081890865	3
0	6865	1357.945262227711	4
0	6866	1358.895102198334	3
0	6873	1359.290852393989	2
0	6877	1359.586510961235	3
0	6881	1359.907135021992	4
0	6882	1360.070572299336	3
0	6890	1361.83722410516	2
0	6895	1362.498675557542	1
0	6899	1363.753655044181	2
0	6901	1364.926633719027	3
0	6906	1366.434569512539	4
0	6908	1368.447787455424	3
0	6915	1369.07677600367	2
0	6920	1369.142618777529	1
0	6926	1371.451540413068	0
0	6942	1373.474898041922	1
0	6943	1373.501211264677	0
0	6965	1375.871044095373	1
0	6970	1377.074186746838	0
0	6979	1380.29763127653	1
0	6983	1381.769636002567	2
0	6985	1382.369876219072	1
0	6992	1383.194764765666	0
0	7017	1385.596273035093	1
0	7018	1386.009786783227	0
0	7027	1386.97784389845	1
0	7034	1389.022861581821	2
0	7037	1390.85996124995	3
0	7038	1391.262407551953	2
0	7043	1392.15782910269	1
0	7048	1392.323085701645	0
0	7052	1392.622914446382	1
0	7055	1392.761435587144	0
0	7073	1395.646762852557	1
0	7075	1395.793415368252	2
0	7077	1396.375507540307	3
0	7078	1396.491217885571	2
0	7085	1398.147896754413	3
0	7086	1399.099778048603	2
0	7092	1402.518378121531	1
0	7098	1402.55672233143	2
0	7099	1403.1601056408	1
0	7104	1403.211699557723	0
0	7108	1404.059112615758	1
0	7115	1405.02054406891	0
0	7146	1409.522783860424	1
0	7147	1410.291972184856	0
0	7166	1413.752914466475	1
0	7168	1414.018105916309	2
0	7169	1414.981529158384	1
0	7176	1415.153791593969	2
0	7177	1415.379626157193	1
0	7183	1415.434885764833	0
0	7207	1418.525599453024	1
0	7209	1419.697804292429	2
0	7210	1420.414470814236	1
0	7215	1420.752779164041	0
0	7237	1424.386593518376	1
0	7239	1424.399666059367	2
0	7242	1425.137836062752	3
0	7243	1425.293827026317	2
0	7248	1425.48287063806	1
0	7254	1425.808455056981	2
0	7255	1426.037198623826	1
0	7261	1426.707085746965	2
0	7262	1427.031516097331	1
0	7267	1428.106275514382	0
0	7271	1428.210388811715	1
0	7277	1430.006051923514	2
0	7279	1430.248710711765	3
0	7280	1431.093688531743	2
0	7285	1432.345845852269	1
0	7291	1434.060046870527	2
0	7293	1435.107111340084	3
0	7295	1435.201416855204	4
0	7298	1435.791494971648	3
0	7303	1436.529650738264	2
0	7308	1437.234463128452	1
0	7312	1437.374956910685	2
0	7314	1437.438111540282	3
0	7318	1438.75420244124	4
0	7319	1438.762978185216	3
0	7325	1438.843589805303	4
0	7326	1439.319527299266	3
0	7331	1440.356212185383	2
0	7337	1441.798167723583	1
0	7342	1442.613633821413	0
0	7357	1444.049143642405	1
0	7359	1444.102185066161	2
0	7360	1445.636906914049	1
0	7365	1445.636931112597	0
0	7374	1446.610280115852	1
0	7375	1447.122556103241	0
0	7381	1448.498827566873	1
0	7383	1448.913255652571	2
0	7386	1450.404321999995	3
0	7392	1452.189682654054	2
0	7399	1452.624671971896	1
0	7404	1452.983970781655	0
0	7408	1453.042706219085	1
0	7410	1453.146068853631	2
0	7412	1453.645662928276	3
0	7414	1454.420648656463	4
0	7418	1454.869774346402	5
0	7420	1454.903962006697	6
0	7422	1455.60561852195	5
0	7427	1457.224905415992	4
0	7432	1458.047050516342	3
0	7439	1459.697321776383	4
0	7440	1459.72959971449	3
0	7446	1460.263080973221	4
0	7448	1460.707291721336	5
0	7449	1460.840295132968	4
0	7454	1461.694159163894	3
0	7458	1461.925647841871	4
0	7462	1463.483736601742	5
0	7466	1465.230844318645	6
0	7469	1466.186702116892	5
0	7473	1467.196938687458	6
0	7481	1468.798575457343	5
0	7486	1468.895067573576	4
0	7494	1469.96591872617	3
0	7499	1470.231469547777	2
0	7506	1472.943906703613	1
0	7512	1473.278186031131	2
0	7514	1474.28948957737	3
0	7515	1474.415243772544	2
0	7520	1474.811809461225	1
0	7529	1476.704578010973	0
0	7558	1480.536217328294	1
0	7560	1480.78139451748	2
0	7561	1481.377694643931	1
0	7567	1481.484979632303	0
0	7576	1482.353259914271	1
0	7578	1482.561458874978	2
0	7585	1484.294576507494	3
0	7586	1484.370248305165	2
0	7591	1484.434990844037	1
0	7599	1485.246051032265	2
0	7600	1485.291289032484	1
0	7606	1486.333386830429	2
0	7608	1486.476988374092	3
0	7614	1490.384597890022	4
0	7616	1490.440069495669	5
0	7617	1490.836955040941	4
0	7623	1491.810457312813	5
0	7625	1492.193200394666	6
0	7628	1492.913378395665	5
0	7633	1493.661871392578	4
0	7639	1493.969631208146	5
0	7641	1494.132395931427	6
0	7647	1494.749009170634	7
0	7649	1494.891965450883	6
0	7655	1494.966436075442	7
0	7658	1495.452539534817	8
0	7660	1495.703953119614	9
0	7661	1495.778909228461	8
0	7666	1495.833005676998	7
0	7670	1495.904958349284	8
0	7673	1496.784477804181	7
0	7677	1497.673157021844	8
0	7680	1497.960643043548	7
0	7688	1501.21679909932	8
0	7691	1501.464533192143	7
0	7697	1501.862152096551	6
0	7702	1501.924000405315	5
0	7712	1504.869947066575	4
0	7718	1504.875403673921	5
0	7721	1505.373389549845	6
0	7724	1505.710357145025	7
0	7726	1505.843365805026	8
0	7727	1506.826737242494	7
0	7732	1507.170859032002	6
0	7738	1509.495859164522	5
0	7743	1509.977602468101	4
0	7747	1511.818220097552	5
0	7755	1514.808748436293	4
0	7760	1515.880023244344	3
0	7765	1516.037844193474	2
0	7770	1518.518483764481	1
0	7776	1520.739625593453	2
0	7777	1521.464491726342	1
0	7781	1521.505411267809	2
0	7783	1522.406210105039	3
0	7788	1522.908554254781	2
0	7792	1525.97812587658	3
0	7796	1526.756804472043	4
0	7799	1527.282860380036	5
0	7800	1527.540839970052	4
0	7805	1528.564283571026	3
0	7812	1529.129052472774	4
0	7814	1529.314266102438	5
0	7815	1529.758345946988	4
0	7820	1530.185862828471	3
0	7824	1531.617323879743	4
0	7826	1531.968060560974	5
0	7831	1532.453198282611	6
0	7832	1532.790128659794	5
0	7839	1533.339301398661	4
0	7843	1533.48833067372	5
0	7847	1534.774901536777	6
0	7850	1535.135329301134	7
0	7852	1535.712800271943	8
0	7853	1536.763369257254	7
0	7860	1537.223208240896	6
0	7864	1537.360852883738	7
0	7868	1540.644105612748	8
0	7869	1540.943909680045	7
0	7873	1542.713536950963	8
0	7875	1543.770273516713	9
0	7878	1544.293967435574	8
0	7883	1545.723941135447	7
0	7888	1545.781008119423	6
0	7893	1546.129588825195	5
0	7897	1546.643912161096	6
0	7902	1547.396649874554	7
0	7903	1547.400235045965	6
0	7909	1547.744335604678	5
0	7916	1548.754303918633	4
0	7921	1549.10158548607	3
0	7928	1549.684418715256	2
0	7932	1550.205381835851	3
0	7935	1550.47855930698	2
0	7939	1550.674824417805	3
0	7942	1551.041582969084	2
0	7950	1552.078858753083	3
0	7954	1554.449097870985	4
0	7955	1554.567763680467	3
0	7959	1554.65702043948	4
0	7961	1556.53054283117	5
0	7966	1560.914296151912	4
0	7970	1561.281002230854	5
0	7974	1562.189437384207	6
0	7978	1563.570796199211	5
0	7983	1564.395072677482	4
0	7991	1565.885934598107	5
0	7992	1566.361017743928	4
0	8002	1569.121578908509	5
0	8004	1569.448448123303	6
0	8005	1569.681914222567	5
0	8012	1570.202517759025	6
0	8013	1570.656812199693	5
0	8018	1571.020440524825	4
0	8024	1571.747060231411	5
0	8026	1571.761627345055	6
0	8029	1571.985317157762	7
0	8030	1572.709693128329	6
0	8035	1573.556647134646	5
0	8043	1574.67410291223	6
0	8044	1574.9394789431	5
0	8048	1575.038128143296	6
0	8050	1575.088936219271	7
0	8053	1575.498202974478	6
0	8060	1577.753051653334	5
0	8067	1578.430425741833	6
0	8068	1579.09444109292	5
0	8073	1579.636905374581	4
0	8077	1580.153849238476	5
0	8080	1580.99135392691	4
0	8084	1581.723897896305	5
0	8090	1585.243540555487	4
0	8096	1587.158325175679	3
0	8102	1587.65181305626	4
0	8103	1587.751822100896	3
0	8107	1587.956800178264	4
0	8110	1588.082715031272	3
0	8118	1589.137450592855	2
0	8123	1589.141020927327	1
0	8133	1591.719069299878	2
0	8135	1591.727425785858	3
0	8140	1592.709037270258	2
0	8145	1593.467532782941	1
0	8150	1593.641179491646	0
0	8161	1595.439295142147	1
0	8163	1595.472447021445	2
0	8164	1595.968573845993	1
0	8168	1597.734235965169	2
0	8170	1598.772454343036	3
0	8179	1601.726553525111	2
0	8186	1603.732608707432	1
0	8190	1606.482048286656	2
0	8192	1607.340787425889	3
0	8196	1607.725434660514	2
0	8202	1608.038641608824	1
0	8207	1608.838026986696	0
0	8211	1610.149078257297	1
0	8214	1610.629970949164	0
0	8236	1611.901389672164	1
0	8239	1613.505853359751	0
0	8253	1614.505613701203	1
0	8260	1616.831205589712	2
0	8266	1619.791505668439	3
0	8267	1620.595857378514	2
0	8272	1620.779420039099	1
0	8278	1622.706455658621	0
0	8292	1626.66050175285	1
0	8293	1626.796609442082	0
0	8307	1627.953608298147	1
0	8309	1628.293150498743	2
0	8311	1629.543364399481	3
0	8313	1629.577102192372	4
0	8317	1630.116384454344	5
0	8321	1631.280981231784	4
0	8326	1631.282712149909	3
0	8335	1633.60272584828	4
0	8338	1634.342847779019	5
0	8339	1634.623031759212	4
0	8345	1635.313716182343	5
0	8348	1635.437760276901	4
0	8354	1639.217664854506	5
0	8355	1639.657627585215	4
0	8359	1639.877687674724	5
0	8361	1640.771964687939	6
0	8364	1641.587219206389	5
0	8370	1642.229290587765	6
0	8373	1642.883341291207	5
0	8382	1647.818136329693	4
0	8388	1651.428778959928	3
0	8393	1651.577849075042	2
0	8397	1652.34219359431	3
0	8400	1652.706934811663	2
0	8404	1654.856834723014	3
0	8409	1656.781385588259	4
0	8412	1657.525942456947	3
0	8417	1658.349192536188	2
0	8421	1658.768350454275	3
0	8425	1659.581508377246	4
0	8427	1659.720945975061	5
0	8428	1660.348120173987	4
0	8434	1661.116936620499	5
0	8435	1661.785277355564	4
0	8440	1662.635683318416	3
0	8450	1666.903197384051	4
0	8451	1666.955128773379	3
0	8456	1667.736444197745	2
0	8462	1669.372846057039	3
0	8465	1669.509017457733	2
0	8470	1671.175038635772	1
0	8476	1671.564701857986	2
0	8478	1671.941577084071	3
0	8480	1672.364098660198	4
0	8483	1673.45018092263	3
0	8487	1673.715547359887	4
0	8489	1674.422348489346	5
0	8491	1676.755359238161	6
0	8493	1677.435489912729	7
0	8497	1678.299876618499	8
0	8499	1679.651672095793	9
0	8502	1680.499070292605	8
0	8506	1680.616585295035	9
0	8511	1681.449524842567	8
0	8516	1682.10793853365	7
0	8521	1682.395247071568	6
0	8526	1683.298971464753	5
0	8532	1684.776542436969	6
0	8533	1684.918375021285	5
0	8541	1687.279512954463	4
0	8547	1687.866756253733	5
0	8549	1687.920198301573	6
0	8550	1687.991721921203	5
0	8555	1688.447194260185	4
0	8563	1689.935325458216	5
0	8567	1691.719935170768	6
0	8570	1693.254212632307	5
0	8576	1693.724255259286	6
0	8579	1693.910347240901	5
0	8583	1694.588413163529	6
0	8585	1696.197005478371	7
0	8590	1699.108438504946	6
0	8596	1699.479772561039	5
0	8606	1700.000334713631	6
0	8611	1700.702176551305	5
0	8616	1700.814592572823	4
0	8625	1703.931872892015	3
0	8629	1703.94038071585	4
0	8634	1705.163843959008	3
0	8639	1707.715456300932	2
0	8644	1708.680681502863	1
0	8649	1709.65592090701	0
0	8655	1710.037288390093	1
0	8657	1710.390179061418	2
0	8658	1710.434675728766	1
0	8664	1711.760519866951	2
0	8669	1712.500978926775	1
0	8673	1713.230932611407	2
0	8676	1715.430519005408	1
0	8681	1718.322808831459	0
0	8704	1721.395700149639	1
0	8706	1721.79950039717	2
0	8708	1722.76215875764	3
0	8713	1726.723490077569	2
0	8720	1727.268988681075	3
0	8722	1728.79412942603	4
0	8724	1729.374788371877	3
0	8730	1730.297396461895	2
0	8735	1731.188233867422	1
0	8739	1731.343108683183	2
0	8747	1739.806128926333	1
0	8752	1740.132807156314	0
0	8779	1743.158539165971	1
0	8780	1743.258645003135	0
0	8789	1744.852644289868	1
0	8794	1746.324753404234	0
0	8798	1746.345476228562	1
0	8804	1748.435299401167	0
0	8808	1748.983941702346	1
0	8812	1750.455812242933	2
0	8814	1750.710895222642	3
0	8816	1752.048967223994	2
0	8822	1752.292554629385	1
0	8827	1752.296008399845	0
0	8837	1754.594559051914	1
0	8839	1756.966583078068	2
0	8841	1758.547615062053	3
0	8843	1759.001199685524	4
0	8844	1759.418775046368	3
0	8849	1760.386683269554	2
0	8854	1760.566431389506	1
0	8859	1760.744088149087	0
0	8876	1764.317444161826	1
0	8877	1764.825082116725	0
0	8883	1765.484015552367	1
0	8885	1765.831449522251	0
0	8901	1769.463640030644	1
0	8902	1769.555827398376	0
0	8914	1770.13385529249	1
0	8915	1770.208614770628	0
0	8945	1772.615743993222	1
0	8946	1772.997062648056	0
0	8978	1776.468799004436	1
0	8980	1776.518866885368	2
0	8983	1777.221018285153	1
0	8988	1777.435440210892	0
0	9003	1779.212855307491	1
0	9007	1780.368727240486	2
0	9009	1780.780612301441	3
0	9010	1780.789570608421	2
0	9017	1781.470226906374	1
0	9023	1782.439260119791	2
0	9025	1783.334149621794	3
0	9026	1783.660929682053	2
0	9032	1785.002056537588	3
0	9036	1786.527623794136	4
0	9038	1787.502748108492	5
0	9039	1787.653228514699	4
0	9043	1787.764845318322	5
0	9047	1789.12661421817	6
0	9049	1789.942415803837	7
0	9051	1790.038618877096	8
0	9055	1790.682653451354	7
0	9061	1790.92427038337	6
0	9066	1791.015743994311	5
0	9072	1792.620989809965	4
0	9077	1792.662802021971	3
0	9082	1793.874852720397	2
0	9089	1795.873469534765	1
0	9093	1798.427541555993	2
0	9097	1799.540282669295	3
0	9098	1799.868682762475	2
0	9104	1800.79924381569	1
0	9109	1800.94216277068	0
0	9135	1803.638166396253	1
0	9137	1804.231200315334	2
0	9141	1805.33556780745	1
0	9147	1805.452832957339	2
0	9148	1805.535707009188	1
0	9152	1805.703238253062	2
0	9155	1806.187111419904	1
0	9159	1808.098510304658	2
0	9162	1808.709465699195	1
0	9167	1809.718143955258	0
0	9178	1811.176438024695	1
0	9181	1811.717542086813	0
0	9202	1815.709901178619	1
0	9203	1816.904897571439	0
0	9214	1817.431415552312	1
0	9218	1818.045354678111	0
0	9228	1819.846559440413	1
0	9234	1821.64554231833	2
0	9235	1822.193308572531	1
0	9243	1822.631223687511	0
0	9272	1827.229124214426	1
0	9276	1827.512763970001	0
0	9291	1829.099234491986	1
0	9293	1829.38375506136	2
0	9297	1829.805503444933	3
0	9303	1832.528551608144	4
0	9307	1836.12006497478	3
0	9312	1836.828549162585	2
0	9319	1837.276215402853	1
0	9325	1837.4117661291	2
0	9327	1837.766564489802	3
0	9328	1838.186129715342	2
0	9332	1838.460317945205	3
0	9334	1839.082425311381	4
0	9339	1840.596466611675	3
0	9344	1842.462294970798	2
0	9350	1844.549850929741	3
0	9355	1847.23994003915	2
0	9361	1847.792958614648	3
0	9364	1848.376747107053	2
0	9371	1849.449034442598	1
0	9377	1849.938511618988	2
0	9381	1851.287743143224	1
0	9387	1852.123733870881	0
0	9393	1852.480752484346	1
0	9398	1853.977344438112	0
0	9454	1870.12837010139	1
0	9460	1871.393328890425	2
0	9462	1872.438569564448	3
0	9465	1872.68750564117	2
0	9471	1872.896313819369	3
0	9477	1874.970131753755	2
0	9482	1875.213112406767	1
0	9488	1875.215902880141	2
0	9490	1876.45109982807	1
0	9495	1876.853437862004	0
0	9499	1876.853690354152	1
0	9502	1878.029677987954	0
0	9506	1878.955358115296	1
0	9514	1881.819013473111	0
0	9537	1886.451424046053	1
0	9538	1887.535318996727	0
0	9544	1888.153825001538	1
0	9545	1888.278787183992	0
0	9551	1888.808947651423	1
0	9553	1889.871184064586	2
0	9556	1891.210618795629	1
0	9560	1891.318510803778	2
0	9562	1891.602424477353	3
0	9565	1895.099675274552	2
0	9571	1895.718035033177	3
0	9574	1897.281922486608	2
0	9579	1899.477317705423	1
0	9586	1902.012266962615	0
0	9609	1908.466320393322	1
0	9612	1910.103952799771	2
0	9613	1910.145193371702	1
0	9620	1910.845141599574	0
0	9631	1911.163700470724	1
0	9634	1912.11549565841	0
0	9653	1914.66993024069	1
0	9655	1914.712682036346	2
0	9658	1914.959380280758	1
0	9664	1915.012608583325	2
0	9667	1915.510480501458	1
0	9673	1917.265934199097	0
0	9694	1920.251285807425	1
0	9695	1920.350260343762	0
0	9701	1920.386299994958	1
0	9704	1921.446076696616	0
0	9723	1923.099036645156	1
0	9727	1924.237041830997	0
0	9742	1928.14479050921	1
0	9744	1928.543731427968	2
0	9748	1929.431447144976	3
0	9753	1930.467025269314	2
0	9758	1930.599829707775	1
0	9765	1930.667607758539	0
0	9769	1930.820637930378	1
0	9772	1931.662239638166	0
0	9778	1932.425343052257	1
0	9779	1932.997180295879	0
0	9790	1933.191563205321	1
0	9791	1933.37357246551	0
0	9801	1936.682463166445	1
0	9805	1939.062611576057	2
0	9809	1939.476335970723	3
0	9810	1939.993156912865	2
0	9814	1940.260735425399	3
0	9816	1940.358332737688	4
0	9822	1942.269883948245	5
0	9824	1942.624871611128	6
0	9829	1943.08897072553	5
0	9835	1943.784021932183	4
0	9843	1944.300683104161	3
0	9849	1944.478791396029	2
0	9854	1946.929736881685	1
0	9862	1948.381973141274	2
0	9863	1949.194790383456	1
0	9867	1950.875491949778	2
0	9869	1951.58250723583	3
0	9871	1951.77120993945	4
0	9874	1952.227607660796	3
0	9878	1952.418555581499	4
0	9880	1953.811182069804	5
0	9882	1953.891961926379	6
0	9890	1955.939207873862	5
0	9895	1956.688612565281	4
0	9902	1957.87461285516	5
0	9903	1958.316153383774	4
0	9908	1958.381528239678	3
0	9915	1959.601572374379	4
0	9917	1959.905545955873	5
0	9918	1960.202651204021	4
0	9925	1961.38634462611	5
0	9927	1961.964734029031	4
0	9932	1962.045803367078	3
0	9938	1962.115835604678	4
0	9939	1962.217471058079	3
0	9945	1963.617337117641	2
0	9951	1963.781196699974	1
0	9956	1965.090853558367	0
0	9968	1966.112511037463	1
0	9969	1966.457698358901	0
0	9998	1968.978275855798	1
0	9999	1969.644751709147	0
0	10008	1971.207057371375	1
0	10010	1971.26662472145	2
0	10011	1971.771400578096	1
0	10019	1972.783607994095	0
0	10031	1974.051424161894	1
0	10033	1974.479936495835	2
0	10034	1974.681595455704	1
0	10039	1976.007165130975	0
0	10055	1978.637364097843	1
0	10056	1978.906515604867	0
0	10083	1985.237206133234	1
0	10087	1986.786747544578	2
0	10090	1987.085565814706	1
0	10098	1987.715099111881	2
0	10100	1987.786747420979	3
0	10102	1988.2932767703	4
0	10103	1988.811486743749	3
0	10108	1988.931541462809	2
0	10116	1990.794206675688	3
0	10118	1990.883872824277	4
0	10119	1991.196047585689	3
0	10124	1992.078360310987	2
0	10128	1992.096856856768	3
0	10131	1993.213239765692	2
0	10142	1995.612940463893	1
0	10146	1996.586448206301	2
0	10148	1996.662211763375	3
0	10150	1996.905633234854	4
0	10155	1999.36401411588	3
0	10159	2000.646830539743	4
0	10161	2000.660932904915	5
0	10163	2001.470346363558	6
0	10169	2004.430084138004	5
0	10173	2004.766144042558	6
0	10175	2005.745812546317	7
0	10177	2006.215447790265	8
0	10181	2006.966476677133	9
0	10184	2009.478753109774	8
0	10188	2009.527399434691	9
0	10192	2010.406478229767	10
0	10193	2010.689648638016	9
0	10197	2010.763661066911	10
0	10204	2013.3849959555	11
0	10206	2013.444237527446	12
0	10208	2013.697061343597	13
0	10209	2013.994092370545	12
0	10214	2016.119833713207	11
0	10218	2016.479482291481	12
0	10221	2017.498036293242	11
0	10225	2018.392076421755	12
0	10227	2018.498733645365	13
0	10229	2018.525749010183	14
0	10233	2021.394394345492	15
0	10235	2021.543445819817	16
0	10236	2021.936451537583	15
0	10240	2022.391388275093	16
0	10245	2023.79024225801	15
0	10250	2025.326815728804	14
0	10256	2025.627444829334	15
0	10259	2026.714308611765	14
0	10265	2027.812556758723	13
0	10271	2028.521450777055	12
0	10276	2029.152885474069	11
0	10285	2030.846460917998	10
0	10291	2031.225646241347	11
0	10295	2032.254952079249	12
0	10296	2032.950274582792	11
0	10300	2032.99786449737	12
0	10304	2033.764612987949	13
0	10308	2035.290750283651	14
0	10310	2035.76830898626	15
0	10313	2036.463165836138	14
0	10317	2037.30732968743	15
0	10321	2037.742875613335	16
0	10323	2038.219334894358	17
0	10325	2038.405977242159	18
0	10328	2039.256791716731	17
0	10335	2039.863524066048	16
0	10343	2040.916536808174	17
0	10344	2041.680222478761	16
0	10348	2043.047568439715	17
0	10350	2043.768030382837	18
0	10352	2044.532610858674	19
0	10357	2045.62899518888	18
0	10361	2045.89965294251	19
0	10365	2046.970605214142	20
0	10366	2047.046199423331	19
0	10370	2048.141740003946	20
0	10372	2048.719097043595	21
0	10374	2049.250701308476	22
0	10376	2049.280586841812	23
0	10379	2049.799670845235	22
0	10384	2050.679111151361	21
0	10388	2051.205066415175	22
0	10390	2051.30195882023	23
0	10394	2052.281366020303	22
0	10399	2052.568960709785	21
0	10408	2054.156301927575	20
0	10413	2056.420237158478	19
0	10417	2056.981205006612	20
0	10419	2057.611492833081	21
0	10421	2058.727388354237	22
0	10423	2059.850432185234	23
0	10425	2059.931085774703	24
0	10428	2061.38268318041	23
0	10433	2063.045076219051	22
0	10437	2064.350203598257	23
0	10448	2068.279599525892	22
0	10453	2068.585423238533	21
0	10457	2070.809842892428	22
0	10459	2071.057164154289	23
0	10462	2073.791358932303	22
0	10466	2075.738703414071	23
0	10468	2075.941727077526	24
0	10473	2076.152805830652	23
0	10482	2076.673602995653	24
0	10484	2077.002033372836	25
0	10485	2077.468864262363	24
0	10490	2077.600020315423	23
0	10496	2079.247350914702	24
0	10497	2079.339944795585	23
0	10502	2079.621916978198	22
0	10508	2080.715540549616	23
0	10510	2081.242741649353	24
0	10513	2081.467078311386	23
0	10517	2081.576729104036	24
0	10519	2081.70600350206	25
0	10524	2083.942264970889	24
0	10528	2084.061425602991	25
0	10530	2085.083542616177	26
0	10532	2085.681007683924	27
0	10537	2087.317528795888	26
0	10543	2089.984940938136	27
0	10544	2090.184487536806	26
0	10549	2090.284919403712	25
0	10553	2090.985117857202	26
0	10556	2094.400361357604	25
0	10563	2097.806505152814	26
0	10564	2098.322563845016	25
0	10570	2098.638666213693	24
0	10575	2099.704011624144	23
0	10580	2100.8791514222	22
0	10588	2101.377401410289	23
0	10590	2102.006054704532	24
0	10591	2102.622482905845	23
0	10596	2104.583038860445	22
0	10601	2105.161863915965	21
0	10605	2105.1649431909	22
0	10607	2106.001646547305	23
0	10610	2107.063297690767	22
0	10614	2108.06096308938	23
0	10617	2108.201909204847	22
0	10623	2109.727684973374	21
0	10629	2109.787565880018	22
0	10631	2110.143457136007	21
0	10637	2110.866702030591	22
0	10639	2111.094046611277	23
0	10642	2111.367689991035	22
0	10647	2112.381907197556	21
0	10652	2113.492783467809	20
0	10656	2114.148781106636	21
0	10658	2114.693198961184	22
0	10660	2114.841861533415	23
0	10662	2114.921638843327	24
0	10665	2116.620498676179	23
0	10670	2117.385133095704	22
0	10675	2118.345673127106	21
0	10684	2119.903130298208	20
0	10689	2120.906694753345	19
0	10694	2123.248541367008	18
0	10701	2124.518662825967	17
0	10705	2124.586369523019	18
0	10709	2125.145012769822	19
0	10713	2125.364055442764	20
0	10715	2125.672694605344	21
0	10717	2126.328338796289	22
0	10719	2128.397982000688	23
0	10722	2129.107962985054	22
0	10726	2130.601159857658	23
0	10728	2131.505509451041	24
0	10730	2131.637165475627	25
0	10734	2132.245753382446	26
0	10735	2132.506150966236	25
0	10739	2133.939804186737	26
0	10743	2134.105021449676	27
0	10745	2134.995501495952	28
0	10746	2136.378800098772	27
0	10751	2137.647438602562	26
0	10756	2137.712002494928	25
0	10761	2138.442141790503	24
0	10766	2138.522333202591	23
0	10770	2139.120605549269	24
0	10773	2140.870203928803	23
0	10780	2145.654915315282	22
0	10785	2147.41579222674	21
0	10791	2148.253249955115	22
0	10792	2148.313407958498	21
0	10797	2148.596893254199	20
0	10802	2151.740051815993	19
0	10812	2153.59447283029	18
0	10817	2154.369432911028	17
0	10821	2154.611864533446	18
0	10823	2155.50988534682	19
0	10830	2156.725371380943	18
0	10835	2158.898877465944	17
0	10844	2160.842713176235	16
0	10853	2164.201051073481	15
0	10861	2165.722044466774	14
0	10866	2169.107202751674	13
0	10871	2169.845434320957	12
0	10877	2171.267746272804	13
0	10885	2171.559678389139	14
0	10889	2172.130742527948	13
0	10894	2173.355445610647	12
0	10898	2173.662097360247	13
0	10900	2174.72909653093	14
0	10902	2175.977975431751	15
0	10906	2176.583307431642	14
0	10911	2176.828425470338	13
0	10916	2178.440757255724	12
0	10922	2181.600215771845	11
0	10927	2182.066112297951	10
0	10932	2182.413452464495	9
0	10940	2183.257896974612	10
0	10943	2184.080299583837	9
0	10948	2184.865759659792	8
0	10952	2185.076318372275	9
0	10958	2188.546444894609	10
0	10959	2189.862380373594	9
0	10963	2190.081213391211	10
0	10965	2190.256232293709	11
0	10969	2192.659703692769	12
0	10970	2192.72425587174	11
0	10978	2193.210093948113	12
0	10979	2193.45098154224	11
0	10985	2194.807828267822	12
0	10986	2195.798372602448	11
0	10993	2195.865702163233	10
0	11003	2197.177880121382	11
0	11004	2197.363083934471	10
0	11010	2197.738849739743	11
0	11012	2199.183081753788	12
0	11015	2200.493623392826	11
0	11021	2201.217160797481	12
0	11023	2201.824385712532	11
0	11032	2202.55652235137	10
0	11042	2205.191632986003	11
0	11043	2205.205368568926	10
0	11049	2205.577442898845	9
0	11055	2205.736786893049	10
0	11056	2206.274949149215	9
0	11061	2207.669857821442	8
0	11068	2209.550624682389	7
0	11072	2209.561951875849	8
0	11075	2210.642032079449	7
0	11081	2211.808927336775	8
0	11083	2212.172835640724	9
0	11085	2212.830762898612	10
0	11086	2212.89427876387	9
0	11093	2215.124498818389	8
0	11097	2215.397735855402	9
0	11101	2216.413453796494	10
0	11105	2216.924873058907	11
0	11106	2217.217973196449	10
0	11111	2219.118844481909	9
0	11115	2219.522819478373	10
0	11119	2220.339626854083	11
0	11123	2221.273735806856	12
0	11124	2221.431432237836	11
0	11132	2223.535311214909	12
0	11135	2223.985983580739	11
0	11143	2224.923526984793	10
0	11150	2225.143241730086	9
0	11154	2225.144885654493	10
0	11156	2226.048281040462	11
0	11160	2227.74856590448	12
0	11162	2231.737293765631	13
0	11166	2232.502837946278	14
0	11172	2233.702179238355	15
0	11174	2234.078879332199	16
0	11175	2234.103890747896	15
0	11180	2235.100574715241	14
0	11185	2236.069849314212	13
0	11191	2236.235887381284	12
0	11197	2236.324128942708	11
0	11202	2236.757468027677	10
0	11206	2237.312728440918	11
0	11211	2239.083267662244	10
0	11215	2239.287601231886	11
0	11223	2241.426763420569	12
0	11230	2244.01517635704	11
0	11236	2244.634146424323	12
0	11237	2245.417786646738	11
0	11242	2247.763639222129	10
0	11247	2249.0558254735	9
0	11252	2249.793430844261	8
0	11256	2250.317459461338	9
0	11258	2250.830138163223	10
0	11261	2251.641160455452	9
0	11265	2252.306470663018	10
0	11273	2253.813773475602	11
0	11274	2253.951316588079	10
0	11282	2254.705726461325	9
0	11290	2254.957423447075	8
0	11295	2255.176728237907	7
0	11303	2255.68101481004	8
0	11304	2256.102588871761	7
0	11309	2257.771371132994	6
0	11313	2257.912381958136	7
0	11315	2258.206911100195	8
0	11321	2259.576540736071	9
0	11323	2259.853804154918	10
0	11325	2259.975302220987	11
0	11327	2260.079199063771	12
0	11329	2260.26372563257	13
0	11330	2260.373361365747	12
0	11336	2261.810823222152	13
0	11339	2263.551500725261	14
0	11340	2263.89034085146	13
0	11345	2264.136476048126	12
0	11351	2266.579045385424	11
0	11357	2267.064535793805	10
0	11364	2268.040528708515	9
0	11369	2268.603407571673	8
0	11374	2269.212076668849	7
0	11378	2269.389664331963	8
0	11383	2271.669035217005	7
0	11390	2274.705146731065	6
0	11395	2275.662592558178	5
0	11400	2276.102234865614	4
0	11404	2276.816069849702	5
0	11408	2277.159218093581	6
0	11412	2277.41083423708	7
0	11413	2278.523386964183	6
0	11419	2279.468091866697	7
0	11421	2279.889369662132	8
0	11423	2281.23077639592	7
0	11431	2282.481370071206	8
0	11433	2283.084386330096	7
0	11439	2283.156446460587	8
0	11440	2283.202328362001	7
0	11446	2283.494710637383	8
0	11447	2283.909727981332	7
0	11453	2284.594602455383	6
0	11458	2284.628867134658	5
0	11462	2284.942302014227	6
0	11465	2285.078792419226	5
0	11470	2286.180442586848	4
0	11475	2286.396680539355	3
0	11480	2287.395622741444	2
0	11485	2288.939335620747	1
0	11492	2289.974805284338	2
0	11494	2290.115696742064	3
0	11496	2290.458572963328	4
0	11498	2291.341357958386	3
0	11504	2291.404432461965	4
0	11505	2291.683093010295	3
0	11511	2292.48340112686	4
0	11513	2292.958566298527	5
0	11514	2293.892252985336	4
0	11519	2294.558659029012	3
0	11525	2296.686132212179	4
0	11526	2296.75433309692	3
0	11531	2297.099717700208	2
0	11535	2298.661408188455	3
0	11537	2298.999155727776	4
0	11540	2299.139829618576	3
0	11544	2300.178096984633	4
0	11547	2301.373898121708	3
0	11554	2302.714203212593	2
0	11560	2304.34756469902	3
0	11561	2304.452576075366	2
0	11566	2305.03399522091	1
0	11571	2305.957747856415	0
0	11602	2309.049712975345	1
0	11603	2309.170110658104	0
0	11611	2310.467196813003	1
0	11612	2310.773153917965	0
0	11630	2312.931381830646	1
0	11635	2313.584085006193	2
0	11636	2313.927572665029	1
0	11643	2314.440526130685	0
0	11650	2315.759117876681	1
0	11652	2316.314864135377	2
0	11653	2317.195400859153	1
0	11658	2318.323695526663	0
0	11681	2321.283053806137	1
0	11683	2322.565533247729	2
0	11684	2323.933042614764	1
0	11690	2326.93212640329	2
0	11691	2327.608834209684	1
0	11696	2328.453456497435	0
0	11714	2330.272374046649	1
0	11717	2331.744500829667	2
0	11719	2331.907720662489	3
0	11720	2332.692097375459	2
0	11726	2333.063116577338	3
0	11727	2333.11453395082	2
0	11731	2333.165668069383	3
0	11735	2333.853994770278	4
0	11738	2334.294973323733	3
0	11742	2334.620007831145	4
0	11744	2334.790381740962	5
0	11746	2335.283883076303	6
0	11748	2336.189513036035	7
0	11753	2339.050518132855	6
0	11763	2341.601627424948	7
0	11764	2342.102673956076	6
0	11768	2342.787651471671	7
0	11770	2343.059415435504	8
0	11773	2343.854929690208	7
0	11781	2346.992084122478	8
0	11782	2347.186995037728	7
0	11788	2347.251789157578	6
0	11796	2349.244603314901	5
0	11801	2349.671204803166	4
0	11806	2349.961521484487	3
0	11812	2351.721290258771	4
0	11813	2352.709379321637	3
0	11817	2353.216934122266	4
0	11821	2354.447005684255	5
0	11823	2355.428620567079	6
0	11824	2355.679131018958	5
0	11828	2355.877513018935	6
0	11830	2356.026726167189	7
0	11834	2356.548702738282	8
0	11838	2358.439645873134	7
0	11843	2359.446870432557	6
0	11850	2361.580772780269	5
0	11855	2362.802893737956	4
0	11860	2363.532053164414	3
0	11864	2363.545516812719	4
0	11866	2364.406621942173	5
0	11868	2366.581616898628	6
0	11872	2367.340636141899	5
0	11879	2367.76282873375	6
0	11881	2367.914133965385	7
0	11884	2369.100214195313	6
0	11889	2369.228764942983	5
0	11895	2371.005418874187	4
0	11900	2371.490006157931	3
0	11905	2371.800948972961	2
0	11914	2375.639250334583	1
0	11918	2376.670497733136	2
0	11926	2379.59780446234	3
0	11927	2380.188803209721	2
0	11931	2380.995398636561	3
0	11933	2382.281936702825	4
0	11935	2382.52173714923	5
0	11939	2382.822332144211	6
0	11941	2384.463725436225	7
0	11942	2384.544122308728	6
0	11947	2385.483455823913	5
0	11954	2388.628325999783	4
0	11959	2391.14183030409	3
0	11965	2391.91120635921	4
0	11966	2392.265757717381	3
0	11974	2394.538884605638	4
0	11978	2394.921581094033	5
0	11981	2395.474163985668	4
0	11985	2395.828228120078	5
0	11988	2396.057269478009	4
0	11993	2398.266139334277	3
0	11997	2398.453734137396	4
0	11999	2399.437134973472	5
0	12001	2399.699878389269	6
0	12004	2399.930312773104	5
0	12010	2400.649332813877	4
0	12015	2401.022520006438	3
0	12020	2402.481441380908	2
0	12024	2402.714957558086	3
0	12030	2403.422958290562	2
0	12035	2403.917702220714	1
0	12039	2404.346525330516	2
0	12042	2404.939158788079	1
0	12048	2405.284799205824	2
0	12051	2405.401979525014	3
0	12052	2405.574500593816	2
0	12057	2406.456109259249	1
0	12063	2408.983347244484	0
0	12083	2413.262276319521	1
0	12084	2414.868917169547	0
0	12088	2416.474334452725	1
0	12090	2416.505320064432	2
0	12092	2416.528195559787	3
0	12096	2416.915706714602	4
0	12097	2416.98319270125	3
0	12104	2417.949464183135	2
0	12113	2419.952406571713	3
0	12115	2420.801391292625	2
0	12120	2421.047689125011	1
0	12126	2422.234564662162	2
0	12128	2422.5634197314	1
0	12135	2423.558258606947	0
0	12166	2430.698079617861	1
0	12168	2430.74405161699	2
0	12170	2431.022383679089	3
0	12171	2431.514156129187	2
0	12177	2431.74136726642	1
0	12182	2433.065495562632	0
0	12186	2433.372160283099	1
0	12190	2436.340523856051	2
0	12194	2437.245624132634	3
0	12197	2438.477454844344	2
0	12202	2439.433124514006	1
0	12209	2440.146555747596	0
0	12218	2443.188481963854	1
0	12219	2443.909974314443	0
0	12235	2446.80233218552	1
0	12236	2447.54362963365	0
0	12265	2453.04620832822	1
0	12268	2453.999281994597	0
0	12274	2454.119794505525	1
0	12275	2454.189889978296	0
0	12290	2455.276398090747	1
0	12293	2456.632352993394	0
0	12316	2458.102838510674	1
0	12317	2458.463730427736	0
0	12323	2459.032175040637	1
0	12325	2459.26949493787	0
0	12331	2459.682449394371	1
0	12333	2459.964002424715	2
0	12335	2460.306796392594	3
0	12339	2461.077633773348	4
0	12342	2461.226216717859	3
0	12348	2462.013164918109	4
0	12349	2462.101602845346	3
0	12354	2463.320270928408	2
0	12358	2464.035385309291	3
0	12362	2464.62656443083	2
0	12369	2465.477625778263	1
0	12374	2465.537887875644	0
0	12395	2468.539913801695	1
0	12397	2469.275257502966	2
0	12400	2470.73853243101	1
0	12407	2471.63098904017	0
0	12416	2471.786112191703	1
0	12418	2472.069566949514	2
0	12424	2473.226556691031	3
0	12426	2473.257625726821	4
0	12427	2473.913454322054	3
0	12431	2473.949775468442	4
0	12436	2476.317777645411	3
0	12442	2477.227048021639	2
0	12447	2477.44065579859	1
0	12451	2477.739483419799	2
0	12453	2477.898586672087	3
0	12455	2478.976855393575	4
0	12457	2480.166717439853	5
0	12461	2482.723038064544	6
0	12464	2483.28716681777	5
0	12468	2483.504256423042	6
0	12474	2486.24206426171	5
0	12479	2486.324906259329	4
0	12487	2487.705060394848	5
0	12489	2487.778139777427	6
0	12491	2488.822871086985	5
0	12495	2488.913490933771	6
0	12501	2489.866944467752	7
0	12502	2490.213519111377	6
0	12506	2491.148406106482	7
0	12510	2492.158419682243	6
0	12515	2492.587692875181	5
0	12522	2493.249615024645	6
0	12524	2494.026951058009	7
0	12525	2495.244871992361	6
0	12530	2495.557094547108	5
0	12534	2495.559271552259	6
0	12537	2496.621523533499	5
0	12542	2497.026284959245	4
0	12549	2498.733704220933	3
0	12555	2500.612611141619	4
0	12557	2501.383057899528	5
0	12559	2503.226561474032	6
0	12562	2504.417705336865	5
0	12566	2505.255179052684	6
0	12571	2506.683342296781	5
0	12577	2507.042064633164	6
0	12578	2507.678986136893	5
0	12585	2508.977637450101	4
0	12591	2511.703665480179	5
0	12593	2511.770210004018	6
0	12597	2512.265101225727	5
0	12603	2512.835237935975	4
0	12609	2513.010968543055	5
0	12610	2513.145586500708	4
0	12614	2513.671689255194	5
0	12618	2514.143044500669	6
0	12621	2514.618657326329	5
0	12627	2516.58075047706	4
0	12632	2516.785250704866	3
0	12636	2517.137895846642	4
0	12640	2517.476993405781	5
0	12641	2517.834535567428	4
0	12646	2520.828944376999	3
0	12654	2525.830871062522	4
0	12655	2526.380553206644	3
0	12663	2527.932845744963	4
0	12666	2529.579582924873	3
0	12675	2530.774619965573	4
0	12676	2531.16189249948	3
0	12683	2532.280755119268	4
0	12685	2532.343734206756	5
0	12688	2532.908567587674	4
0	12693	2532.986502306161	3
0	12698	2533.603758532592	2
0	12703	2534.463859461188	1
0	12709	2536.311409674595	2
0	12712	2536.871383802514	1
0	12721	2537.528421879464	0
0	12738	2541.377426721221	1
0	12739	2541.392330677841	0
0	12777	2548.982659935294	1
0	12780	2550.287892405288	0
0	12786	2550.450033554993	1
0	12787	2551.793015691781	0
0	12804	2553.851145838069	1
0	12808	2554.080941170691	2
0	12811	2555.313888050804	1
0	12817	2555.486775449579	2
0	12818	2555.824481584329	1
0	12824	2556.957924287969	0
0	12837	2558.63361654873	1
0	12838	2558.973474929952	0
0	12844	2560.169929705599	1
0	12845	2560.312935404125	0
0	12851	2560.541424062097	1
0	12853	2561.446094415461	0
0	12863	2562.698868440315	1
0	12866	2564.745664770532	0
0	12893	2567.473141455498	1
0	12894	2568.865033824934	0
0	12947	2575.268351950074	1
0	12948	2576.397280860352	0
0	12954	2577.566904297738	1
0	12955	2577.74715811915	0
0	12969	2581.558481550103	1
0	12974	2583.579879991007	0
0	12980	2583.720727078349	1
0	12983	2584.247839512566	0
0	12994	2585.127420268118	1
0	12996	2585.223111414854	2
0	12997	2585.601311121039	1
0	13001	2585.996670986099	2
0	13003	2586.493407386103	3
0	13006	2586.850828683464	2
0	13014	2587.722121727687	3
0	13016	2588.862660532966	2
0	13021	2588.982463098465	1
0	13028	2589.910691941027	0
0	13032	2589.918621451128	1
0	13037	2592.311054738271	0
0	13044	2592.988685917506	1
0	13045	2593.065157496297	0
0	13051	2593.109452012068	1
0	13053	2594.504094465312	0
0	13081	2599.854021484147	1
0	13082	2599.918643290515	0
0	13110	2607.22344965943	1
0	13112	2608.579678774948	2
0	13115	2609.370780846709	1
0	13123	2610.345470977146	0
0	13136	2611.118486541977	1
0	13137	2611.346644526681	0
0	13153	2614.892448986817	1
0	13154	2615.040628800844	0
0	13167	2619.451909864016	1
0	13168	2619.89868623883	0
0	13180	2621.271646772581	1
0	13181	2621.649870737072	0
0	13209	2627.553983161668	1
0	13210	2628.215897534778	0
0	13219	2628.720672905706	1
0	13221	2628.974036569162	2
0	13224	2629.732777006681	1
0	13232	2630.202735155981	0
0	13247	2632.261240554984	1
0	13249	2632.451970225024	0
0	13267	2633.342510506592	1
0	13270	2634.737299612808	2
0	13272	2634.826281009738	3
0	13273	2634.920885127774	2
0	13280	2635.732045245035	3
0	13281	2635.90559038767	2
0	13286	2636.204370631784	1
0	13295	2637.799223524816	2
0	13296	2638.357856499303	1
0	13303	2641.407392433223	0
0	13307	2641.608305524118	1
0	13310	2642.303799804851	0
0	13316	2643.532168375459	1
0	13317	2645.714523355885	0
0	13338	2648.132127805019	1
0	13342	2650.021217574408	0
0	13371	2653.346385577548	1
0	13374	2653.689304081955	0
0	13393	2655.71298849705	1
0	13400	2658.563052336709	2
0	13401	2659.056531968985	1
0	13410	2659.355237757895	0
0	13455	2672.287242707969	1
0	13459	2672.501769511557	2
0	13461	2676.008812443863	3
0	13464	2676.919669022602	2
0	13470	2677.074293168146	3
0	13474	2678.330071066194	4
0	13476	2678.755180360655	5
0	13478	2678.917311981263	6
0	13480	2679.944709215689	7
0	13482	2680.005957101211	8
0	13483	2680.563757330277	7
0	13489	2681.334467189784	6
0	13495	2681.514870235825	7
0	13497	2681.798552901997	8
0	13499	2684.88483158393	9
0	13500	2684.932655603723	8
0	13506	2686.403409295778	9
0	13508	2687.123541689119	8
0	13514	2687.73275018696	7
0	13520	2688.214237233218	8
0	13521	2688.318001241035	7
0	13525	2688.338514995531	8
0	13527	2689.113848325679	9
0	13530	2689.476851156527	8
0	13535	2691.571696448403	7
0	13540	2692.249842594811	6
0	13544	2692.589183751986	7
0	13548	2693.516944461443	8
0	13551	2696.100700068425	7
0	13556	2697.030150597316	6
0	13563	2697.525133349926	5
0	13569	2698.039388785516	6
0	13570	2698.256945921249	5
0	13574	2698.285281006673	6
0	13576	2698.763616714566	7
0	13578	2698.870604747342	8
0	13580	2699.463134449174	9
0	13585	2700.196798458826	8
0	13589	2700.999404768474	9
0	13591	2701.17043217992	10
0	13595	2702.208965288144	11
0	13601	2702.924690780316	10
0	13609	2705.61154521003	11
0	13610	2706.776473756449	10
0	13615	2706.915937726764	9
0	13620	2707.413219915573	8
0	13625	2707.862696111956	7
0	13630	2708.873986567088	6
0	13635	2709.748589971506	5
0	13641	2711.0190617266	6
0	13642	2713.047992840487	5
0	13647	2713.690469525083	4
0	13651	2713.758117853765	5
0	13654	2714.84935246944	4
0	13658	2715.422783148317	5
0	13660	2715.565581841399	6
0	13662	2715.738970178659	7
0	13664	2716.176534619145	8
0	13669	2719.913633742956	9
0	13672	2722.348168652393	8
0	13677	2722.377332656042	7
0	13682	2722.51641890584	6
0	13688	2722.751231712718	7
0	13690	2723.231004069059	8
0	13691	2724.452005156363	7
0	13695	2724.8948542225	8
0	13697	2724.993311529248	9
0	13700	2725.705326548443	8
0	13704	2725.839909887215	9
0	13706	2725.843955984211	10
0	13710	2726.530973764988	11
0	13711	2726.962914640782	10
0	13715	2727.016554552977	11
0	13721	2728.044238551724	10
0	13727	2728.724742952538	11
0	13729	2728.981179227937	12
0	13730	2729.723868167043	11
0	13736	2732.909569059417	12
0	13738	2733.971626624435	13
0	13741	2734.521580110462	12
0	13745	2734.66704246257	13
0	13747	2735.423842771869	14
0	13750	2735.545152117298	13
0	13754	2735.546635476536	14
0	13757	2736.206469154477	13
0	13762	2737.439929034164	12
0	13766	2737.539392316023	13
0	13771	2738.319153635137	12
0	13776	2739.812825231896	11
0	13785	2746.02079074125	10
0	13791	2747.059076474505	9
0	13797	2748.51284953951	10
0	13799	2748.583777623446	11
0	13801	2748.691001461623	12
0	13802	2748.944650701343	11
0	13806	2749.117281569293	12
0	13809	2749.334273624637	11
0	13813	2750.752218061128	12
0	13816	2751.57475316531	11
0	13821	2755.011336497541	10
0	13826	2756.332544059305	9
0	13831	2756.723934180781	8
0	13837	2757.054871779273	9
0	13839	2757.989956451945	8
0	13846	2758.478109789489	9
0	13847	2758.626535400733	8
0	13853	2759.155940724295	9
0	13854	2759.290204813087	8
0	13860	2761.20966714543	9
0	13863	2761.575979628345	10
0	13864	2762.304296695792	9
0	13869	2763.218299101726	8
0	13875	2764.461071491301	9
0	13877	2764.78889821616	10
0	13878	2764.923724956499	9
0	13883	2765.3183912009	8
0	13888	2765.801445489814	7
0	13892	2766.021421925892	8
0	13894	2766.24655153378	9
0	13896	2767.199569089168	10
0	13900	2767.428338048052	11
0	13902	2767.447230773556	12
0	13906	2767.846130906942	13
0	13908	2767.914050848027	14
0	13909	2767.949605782321	13
0	13915	2768.299437522045	14
0	13918	2770.151996337235	13
0	13923	2770.283884446493	12
0	13927	2770.47634448144	13
0	13929	2771.512152103638	14
0	13933	2771.918026031925	15
0	13937	2773.066526600001	16
0	13938	2773.223534033676	15
0	13942	2774.721732416868	16
0	13945	2775.402631981357	15
0	13950	2779.033343733917	14
0	13956	2779.264007937716	15
0	13957	2779.405335190381	14
0	13962	2779.911823939916	13
0	13966	2780.327493221933	14
0	13972	2781.351898111688	15
0	13974	2781.883485190826	16
0	13977	2782.255208587785	15
0	13985	2783.666976387782	16
0	13987	2784.01218620605	15
0	13992	2785.11561608603	14
0	13998	2785.318937967562	15
0	13999	2785.467267414454	14
0	14003	2786.8902890162	15
0	14005	2787.000975736035	16
0	14007	2787.02038146554	17
0	14012	2788.864277482973	16
0	14017	2789.611807376332	15
0	14025	2792.268287145666	14
0	14030	2792.511217588095	13
0	14035	2793.604967296946	12
0	14041	2796.601910922696	11
0	14047	2796.602355318551	12
0	14048	2797.575363163242	11
0	14053	2798.822812306394	10
0	14057	2800.279206524058	11
0	14059	2800.652706035421	12
0	14061	2802.540825854069	13
0	14064	2803.331936193887	12
0	14069	2804.120839158924	11
0	14074	2806.886346378126	10
0	14078	2807.597061955226	11
0	14080	2809.238720128621	12
0	14084	2810.635206885008	13
0	14089	2813.348804851232	12
0	14095	2814.156092988912	13
0	14097	2815.513760145093	14
0	14098	2816.133042043598	13
0	14103	2816.478892090717	12
0	14107	2817.357556113141	13
0	14112	2818.221246985605	12
0	14121	2820.866127021796	11
0	14126	2823.278014758231	10
0	14132	2824.428873547083	9
0	14137	2825.317720420127	8
0	14143	2827.034900061026	9
0	14144	2827.986909179997	8
0	14150	2828.262975733758	9
0	14151	2828.628139932478	8
0	14157	2831.130804075859	9
0	14158	2831.502525118347	8
0	14166	2833.332799871317	9
0	14168	2833.949020202218	10
0	14169	2834.992111152097	9
0	14176	2836.84628836796	8
0	14181	2837.301923314976	7
0	14186	2837.637881957198	6
0	14193	2838.204780150063	5
0	14200	2838.991150063327	6
0	14201	2838.997761019186	5
0	14207	2839.02802202248	6
0	14209	2839.444506272221	5
0	14214	2839.505148119444	4
0	14218	2839.937875454978	5
0	14220	2840.683032148247	6
0	14223	2841.433951152701	5
0	14230	2841.671484059003	4
0	14236	2842.771141803346	5
0	14240	2843.550323391569	6
0	14242	2843.757591782247	7
0	14243	2844.330160371525	6
0	14249	2844.819404718089	7
0	14251	2845.975592209717	8
[...]
5	141882	27455.375751875164	8078.1082921723
5	141896	27459.170864620944	8079.2124038679
5	141956	27473.617603185236	8093.1030353446
5	141961	27474.239202336129	8084.4212704443
5	141970	27477.299213990673	8085.9118283791
5	142061	27498.445757167016	8106.0882427987
5	142067	27499.661150639426	8102.7335508897
5	142075	27500.008522819016	8101.6782885733
5	142087	27501.765211932965	8100.9990258282
5	142095	27503.695261412086	8097.9031425639
5	142122	27509.101657456485	8097.7000095451
5	142138	27510.867106947454	8086.3396800894
5	142144	27511.184976363232	8086.2045843409
5	142149	27511.743167855324	8080.6033173903
5	142156	27513.885912805238	8076.4750751406
5	142170	27515.342311567253	8071.297723141
5	142180	27516.144268668506	8065.7893059099
5	142187	27517.354906180253	8063.4306973214
5	142195	27520.616863967282	8063.2726939848
5	142200	27520.785416259984	8063.0368175517
5	142206	27522.70873490675	8064.9399399414
5	142211	27522.918985162362	8051.98506908
5	142222	27525.617335280795	8051.9026186113
5	142260	27529.763094470689	8052.7475643095
5	142306	27536.080587745943	8046.5681651219
5	142350	27542.395481123322	8049.5345794364
5	142369	27544.51294884873	8046.7251434593
5	142377	27545.273748410974	8045.5227466042
5	142382	27546.130094959149	8044.139096349
5	142387	27547.115794572395	8043.3661119338
5	142396	27548.760012892672	8043.3426852524
5	142427	27552.307769492388	8046.7087507486
5	142772	27622.100938201784	8112.0406243649
5	142833	27636.775169244794	8123.6981377091
5	142843	27637.636588778692	8123.9306307304
5	142849	27639.066541906412	8123.7249977945
5	142854	27639.195067700203	8123.7800632688
5	142859	27641.290575477519	8118.5189412937
5	142868	27643.006024260832	8115.2013643378
5	142926	27651.884635529634	8113.4076558527
5	142955	27657.322682943844	8116.8590876195
5	142965	27659.067204995689	8117.5955661752
5	142975	27660.874883392733	8118.3807610475
5	142980	27661.074159208282	8117.4521689331
5	142985	27661.210576090986	8113.2989390485
5	142994	27663.460141768248	8112.4524012414
5	143033	27670.401841538352	8118.1811620349
5	143057	27674.332800014113	8117.0430853602
5	143065	27677.157512594543	8114.2981305138
5	143078	27680.342884129389	8114.330268339
5	143085	27680.848291315468	8109.9834637998
5	143133	27693.634162219865	8113.9695964464
5	143140	27694.453279307338	8114.4491140497
5	143148	27694.872762143165	8106.1418102723
5	143153	27695.23655033149	8100.7788496134
5	143158	27695.365576328326	8099.1947062088
5	143163	27696.588265942167	8094.6215735889
5	143174	27701.808211363465	8095.1770806483
5	143278	27728.466408112668	8121.3113545707
5	143283	27728.528544911673	8119.0667264858
5	143296	27730.578632323302	8117.0679293495
5	143306	27731.053102278687	8107.6787074406
5	143324	27736.254681573023	8111.7826874371
5	143386	27745.442982349863	8118.9807971682
5	143392	27745.587373189803	8116.5567298312
5	143403	27750.086397292936	8117.8166062425
5	143420	27751.504527925919	8118.4600221024
5	143440	27753.950742595723	8109.4420938425
5	143448	27756.603772370192	8107.7442216714
5	143458	27756.94603784492	8105.7908401677
5	143463	27757.43861903745	8105.4057521178
5	143471	27758.869689382492	8102.9364844845
5	143481	27760.187713703238	8102.5766689021
5	143493	27761.955586567864	8094.9386551831
5	143546	27769.341837572585	8100.9863524415
5	143556	27771.840994321905	8100.3898165998
5	143581	27773.51904596705	8099.5119997608
5	143604	27780.007000842046	8100.7844573847
5	143696	27796.562569141594	8112.5671125341
5	143707	27797.179468114928	8113.0677019633
5	143712	27797.217143197771	8111.1755691861
5	143727	27804.142028867973	8115.5418153156
5	143759	27808.294168688029	8114.7466035516
5	143764	27808.303974959911	8112.7167503757
5	143770	27809.238619852802	8112.7920817208
5	143782	27813.188019680741	8115.5632667809
5	144393	27933.193905721283	8231.535012016
5	144398	27934.493721130885	8230.6291905349
5	144406	27936.130953698196	8231.801024194
5	144422	27937.60881042888	8233.1083756168
5	144435	27939.166192938639	8227.6316048021
5	144448	27942.801570269237	8226.5253642758
5	144458	27945.168214636004	8217.0203684097
5	144463	27945.336556039367	8217.0588480311
5	144476	27948.710475832293	8220.2617986208
5	144590	27969.199876992302	8235.7465655967
5	144597	27969.720131797039	8234.8977725614
5	144609	27971.629666688061	8234.6178875277
5	144632	27976.977417269927	8239.7313484771
5	144658	27981.059301858912	8238.1906035118
5	144679	27986.14788953493	8224.8584590383
5	144688	27987.529591847392	8215.4796649651
5	144705	27989.623810743698	8215.7010145655
5	144744	27995.084035112503	8220.4755251671
5	144852	28018.410176982111	8242.3938141127
5	144857	28018.550451210257	8242.3404602088
5	144865	28019.789033801065	8241.1097102954
5	144875	28020.862038272511	8240.6368875237
5	144880	28020.923378061023	8235.5897798781
5	144896	28024.113097598904	8237.9818374239
5	144916	28025.411256625128	8238.7333767095
5	144972	28035.330541328991	8240.2704616778
5	144977	28035.550311795116	8234.7422626076
5	144988	28036.436913709907	8232.7127468142
5	145008	28038.152351289333	8229.0953808407
5	145057	28043.398993800801	8234.2192070234
5	145064	28043.565356359656	8233.5019456852
5	145090	28046.34931013201	8236.1097309883
5	145098	28047.372025196442	8235.5882502691
5	145116	28048.377097217168	8231.2195262828
5	145121	28050.124717186905	8226.2833680268
5	145127	28051.109420224686	8212.9867529527
5	145136	28052.147470112615	8210.3090544301
5	145158	28059.638929112922	8202.7917491059
5	145163	28059.64867932903	8202.6875037459
5	145177	28064.079071099417	8204.4231299382
5	145242	28074.951270948869	8201.8976279592
5	145251	28076.663612574323	8199.6843583455
5	145270	28079.054818049711	8182.7198434934
5	145313	28086.449355275204	8188.0510290164
5	145617	28148.638217365469	8246.1166090174
5	145630	28150.554103652817	8239.8600331974
5	145654	28151.685424097615	8221.9653689874
5	145661	28152.694459109741	8221.9643203981
5	146389	28295.003231159163	8352.4137612512
5	146394	28295.027503244022	8348.562640934
5	146411	28300.420529774563	8340.9542211901
5	146481	28310.577596264441	8350.8663241399
5	146492	28312.463054175452	8350.6234958839
5	146499	28313.17097829811	8351.1243067125
5	146504	28314.593417753661	8347.7793718424
5	146512	28315.530812457348	8345.686681506
5	146517	28315.638062211403	8345.4793009028
5	146533	28322.420776200103	8341.3689642653
5	146777	28368.774352186503	8386.462806081
5	146782	28369.367804433052	8376.3301770281
5	146789	28369.639413248003	8373.6844511642
5	146795	28372.228520916343	8368.0627539769
5	146808	28375.398212280201	8368.4029232587
5	146867	28382.777758240412	8374.3970009311
5	146876	28385.027209836471	8376.3553993945
5	146881	28385.602640483329	8374.6874731494
5	146886	28385.691127945887	8373.6528181059
5	146906	28392.371443010795	8379.9664484565
5	147022	28419.271466076735	8401.5974694721
5	147048	28426.656019660143	8405.0322021932
5	147073	28429.862693014087	8401.7817651427
5	147080	28431.592587484005	8402.6486285903
5	147095	28437.88473444064	8404.2694990475
5	147158	28447.198699402267	8412.9526916199
5	147163	28447.912178392635	8408.4166525757
5	147173	28450.032432432991	8407.7210311298
5	147205	28455.433348370272	8409.2661516203
5	147409	28495.712039437869	8441.425061869
5	147420	28497.620621228907	8443.0944113588
5	147425	28497.772470244302	8440.6140819983
5	147433	28499.569974321315	8439.9159514692
5	147453	28505.474527385303	8445.6225392056
5	147555	28525.042491992471	8463.1771571906
5	147564	28525.846577582344	8462.4776205875
5	147570	28527.802835379743	8459.0778042564
5	147577	28528.039232598047	8441.4251193294
5	147589	28532.28546793372	8439.7681243198
5	147607	28533.120579572084	8437.2406915928
5	147612	28533.573336311176	8434.0478276883
5	147618	28534.401367860239	8428.8670610267
5	147625	28535.081428131186	8428.7794480769
5	147630	28535.110430548541	8427.4827656665
5	147636	28535.64518862973	8424.3377788647
5	147641	28535.702266840054	8419.0403029501
5	147648	28536.668639425046	8416.7554288165
5	147653	28541.292110682187	8420.1699636679
5	147660	28542.948875829577	8417.7041907194
5	147675	28544.653541399072	8415.5409620659
5	147690	28547.992562738393	8413.4558138292
5	147699	28550.488869573351	8412.9284036885
5	147716	28551.866059607534	8413.1457623579
5	147723	28552.948471978796	8411.4684564631
5	147730	28553.720670052028	8404.5921255019
5	147736	28555.256435758261	8403.9559746245
5	147741	28555.665620007196	8402.6623053994
5	147748	28556.00743029201	8401.3294680651
5	147762	28557.981594458785	8401.8796057513
5	147774	28559.477611166149	8396.8360031913
5	147807	28565.7863399745	8401.6919181647
5	147815	28567.312934100403	8401.3249327871
5	147820	28567.705071106282	8397.152397222
5	147828	28570.064565731587	8396.4844804645
5	147833	28570.571394814733	8394.2809340805
5	147838	28574.444126207924	8396.3561116614
5	147861	28579.067778365338	8397.2333251244
5	147957	28595.374120021777	8408.204869908
5	147966	28596.969941290545	8409.7602435991
5	148005	28602.984965401721	8411.5887231669
5	148035	28607.403086126041	8406.8496470919
5	148042	28609.673709204408	8406.531720666
5	148047	28610.083176191812	8395.0670429482
5	148062	28614.354398630718	8398.1056919195
5	148072	28614.657473440849	8394.9018198153
5	148078	28614.892324355729	8391.7311297592
5	148089	28617.381799488053	8393.8142253975
5	148134	28624.995915387868	8399.9668387485
5	148144	28626.001726923749	8396.3341386039
5	148157	28630.73660303704	8378.4911433863
5	148162	28631.056205198665	8378.5343760056
5	148167	28631.503876980743	8371.9233088751
5	148178	28633.68722855531	8369.0682859783
5	148290	28649.649287001316	8384.0004818761
5	148299	28649.957955164639	8376.2328757493
5	148333	28658.597592144247	8381.7315505333
5	148339	28659.029840473294	8379.5150782237
5	148344	28659.126346182634	8379.3243489098
5	148350	28659.448735979556	8375.6593170163
5	148357	28661.153852110642	8376.9728329144
5	148405	28668.847677236966	8384.4369000132
5	148418	28670.883037833512	8384.8485532713
5	148435	28672.826259354524	8383.0933016156
5	148464	28677.214021986156	8382.1286148319
5	148471	28678.749124047607	8381.7419322646
5	148494	28680.2958508094	8378.8282406994
5	148675	28714.546907008694	8412.2372273347
5	148687	28715.781283550851	8405.300829903
5	148706	28717.928245465675	8405.9016253155
5	148712	28719.747249744714	8407.3304940307
5	148719	28720.753230496854	8408.0029902703
5	148729	28722.384655731413	8405.7351786213
5	148737	28726.561391290334	8403.6269358242
5	148745	28727.68042304356	8402.0488708158
5	148755	28729.832658343586	8402.2012218956
5	148764	28730.950174452915	8401.2689015155
5	148772	28731.365871489643	8401.1177687831
5	148778	28731.911859231886	8401.0521224816
5	148790	28734.309894737703	8400.3796614335
5	148800	28734.539011607007	8399.201060043
5	148805	28734.567683411341	8395.1391100011
5	148813	28736.63472118582	8380.437439265
5	148823	28738.454600322989	8381.0134935741
5	148830	28739.2208137745	8367.0774765158
5	148854	28746.350913045921	8372.1091528918
5	148871	28749.656542625562	8365.8298178442
5	148876	28750.072725967676	8366.0111006664
5	148888	28755.087067866225	8370.1747429807
5	148899	28755.65755754403	8369.3677059181
5	148918	28761.050095600961	8371.2552966347
5	148947	28764.006981833672	8369.2213309019
5	148959	28765.755832375512	8368.6758122445
5	148972	28769.229195260654	8370.0146932959
5	148998	28777.419229115646	8375.9287527377
5	149003	28777.697154416093	8373.4855294274
5	149014	28781.553813469895	8374.1363611925
5	149035	28784.19752624203	8376.6963324528
5	149591	28899.856310342809	8488.5919522528
5	149604	28903.410203437459	8490.212063541
5	149615	28905.08084100409	8488.7795808258
5	149624	28906.400313521088	8487.6224701042
5	149635	28907.391542671605	8488.281744895
5	149644	28908.497812543043	8483.694804091
5	149676	28910.199443158604	8482.1541054318
5	149681	28910.297734301034	8482.1197589216
5	149690	28914.25440926304	8485.7190853974
5	149697	28914.488200922325	8484.0815460248
5	149705	28917.111324879624	8485.9632520292
5	149720	28917.82903915179	8486.0496213377
5	149742	28920.564703846458	8488.0267811407
5	149757	28923.096429612961	8478.7841491293
5	149765	28926.160057623261	8481.4853085211
5	149782	28928.258299963052	8481.5042106765
5	149797	28929.027377461026	8481.7466486965
5	149806	28932.618820337678	8484.6689137124
5	149811	28934.332770591774	8484.9321991794
5	149818	28936.595926958692	8484.0388519971
5	149827	28937.358498391837	8480.8428484151
5	149840	28938.590843987937	8480.1373555705
5	149847	28939.228792187545	8477.4737748802
5	149853	28939.953070896032	8477.2430995352
5	149863	28942.136895293964	8477.2986703122
5	149883	28943.882861336093	8478.1908535157
5	149899	28948.400988788982	8481.1641660367
5	149923	28950.44716055748	8483.1132936137
5	149932	28953.011561557066	8482.0364186416
5	149937	28953.112519131488	8479.2366024764
5	149944	28953.653622074249	8478.4233072181
5	149958	28956.269685422702	8476.9020505779
5	150018	28970.394429312017	8488.6145850106
5	150023	28970.92189143246	8481.7025689368
5	150031	28972.961483125153	8481.1627579098
5	150041	28973.787958331292	8480.5060826215
5	150052	28978.969524061385	8480.9164783537
5	150072	28981.145028589242	8481.0059920263
5	150079	28981.656931481639	8475.7098481253
5	150092	28984.508764751731	8475.0513521678
5	150291	29021.839699912769	8512.1273579472
5	150299	29023.632078365667	8510.166715555
5	150304	29024.256231727337	8507.1077293519
5	150309	29024.68235336258	8504.3922367534
5	150316	29026.085713202378	8497.4611088383
5	150330	29029.748336246407	8499.9851957416
5	150336	29030.267187457632	8495.6485988722
5	150341	29030.411292508638	8479.1662046588
5	150350	29031.929830539083	8478.4205057878
5	150367	29034.873798517412	8474.6602540516
5	150404	29040.349671667881	8476.2883755302
5	151147	29195.730172942901	8629.6629205851
5	151152	29195.836033694669	8620.0092427087
5	151159	29199.144578929903	8622.0577619589
5	151164	29199.630334428124	8621.4644669741
5	151171	29200.330206939031	8621.6216987275
5	151185	29204.430315843267	8622.067627284
5	151208	29212.031261016368	8628.8878043844
5	151238	29220.350157352826	8636.0719168225
5	151243	29221.619465365294	8635.7913568309
5	151253	29225.221617380744	8637.7305198493
5	151303	29231.297898792847	8637.5745716898
5	151308	29231.45307657297	8636.7173786764
5	151313	29233.193405265547	8635.0286053982
5	151324	29234.250780848659	8635.2871652342
5	151432	29253.050302853508	8651.8454769193
5	151440	29255.724807999454	8651.1482393175
5	151486	29262.382138022626	8657.6580031199
5	151509	29267.069943345676	8660.1274492757
5	151558	29285.003121684263	8676.1861787425
5	151565	29286.03758531052	8676.5250176154
5	151575	29287.234464080022	8674.3111322639
5	151586	29289.907124522875	8673.9963055316
5	151771	29328.145565788787	8707.5083432973
5	151793	29332.740860752276	8705.010140428
5	151804	29333.707560671738	8705.7536234006
5	151809	29334.608724932972	8705.5385970578
5	151815	29334.998398878639	8697.6663806815
5	151820	29335.13251286533	8697.7492451965
5	151826	29336.9464204821	8697.9444251729
5	151831	29337.565523885272	8697.8437560551
5	151836	29338.057487191422	8689.6853851527
5	151849	29342.054342240646	8693.3164989619
5	151902	29350.014613917016	8699.2771489816
5	151915	29350.760564026612	8694.9897989301
5	152066	29378.692782572271	8722.7853735729
5	152071	29378.805503263359	8713.2876102664
5	152077	29379.43462730929	8713.1153277437
5	152082	29379.999682907971	8709.9587175181
5	152095	29383.603794087653	8713.5149717778
5	152239	29410.078612484568	8736.7530982635
5	152247	29412.046456459882	8738.0371803268
5	152255	29413.926976103199	8727.321516372
5	152265	29415.146040115965	8728.1629710801
5	152273	29417.35761656511	8725.8467076471
5	152297	29426.199364014104	8731.2711461516
5	152369	29433.601166481928	8737.4253500043
5	152417	29443.525189689472	8745.8487189184
5	152440	29448.625822347225	8746.3690854002
5	152504	29457.910561071121	8745.9010704591
5	152517	29461.597726721115	8747.1939752288
5	152545	29467.037234020367	8750.8375169024
5	152566	29470.340358865619	8747.1788459664
5	152575	29472.415037740856	8744.9470443275
5	153275	29619.184695713607	8890.4458432366
5	153280	29619.964729349656	8885.7172108631
5	153293	29622.468487941791	8883.6253822937
5	153312	29623.836134827538	8882.5610892645
5	153320	29626.438224161547	8884.0069055116
5	153325	29627.477558221581	8884.3896651382
5	153340	29631.091040400776	8878.9594277559
5	153373	29637.807482679328	8883.5760945264
5	153388	29640.208966738425	8885.7543244328
5	153421	29646.352528850309	8888.1889637771
5	153428	29648.69216690134	8880.3311042923
5	153470	29653.553538819402	8883.5888927659
5	153482	29655.06186227926	8882.3883574759
5	153491	29657.658794176666	8876.8480514285
5	153501	29659.383273043683	8873.4525107922
5	153512	29661.267905989666	8873.570061126
5	153570	29668.260951783902	8880.0224896455
5	153581	29670.418055729908	8872.641126618
5	153588	29672.280449176934	8873.7687304766
5	153593	29672.743676093863	8869.0855933879
5	153604	29677.192499959741	8863.6858468682
5	153638	29681.428071429683	8858.2909226226
5	153646	29682.999548633626	8859.0735658631
5	153658	29685.997687623414	8860.7236990741
5	153665	29686.361464266812	8852.4125109656
5	153685	29688.282090688984	8853.9164245469
5	153691	29690.70534196914	8850.2102904825
5	153696	29690.768763957635	8848.2273277026
5	153712	29695.076565015669	8847.4133282684
5	153747	29700.437435659973	8847.0788148537
5	153752	29700.439483401942	8839.1601965546
5	153764	29702.849813076267	8841.2397945151
5	153790	29708.724075792492	8843.2210042891
5	153818	29715.951959149314	8839.2586936202
5	153824	29716.432384558107	8828.6615308187
5	153838	29720.321369004828	8831.8861500813
5	153917	29740.312042525458	8851.7184222421
5	153931	29743.465875870998	8850.6740288119
5	153943	29747.930931118535	8848.2146460017
5	153966	29752.887350519362	8844.1555220195
5	153979	29755.509615967377	8844.8043956005
5	154006	29758.836250156541	8844.7809809971
5	154017	29760.614368597318	8845.5968584355
5	154029	29762.732720434642	8845.3415927942
5	154047	29765.505790528431	8843.090593783
5	154057	29766.576024287179	8842.5660429758
5	154072	29769.70541241434	8842.7893219788
5	154083	29771.278722669176	8841.1274935501
5	154090	29771.495806189986	8841.0207436873
5	154106	29774.439412327553	8842.2681958612
5	154111	29777.359457583942	8842.689522233
5	154116	29778.111857557368	8839.160474777
5	154129	29784.519828602255	8842.5602497473
5	154157	29788.4683179804	8846.2603928998
5	154167	29791.826947507261	8842.8402529516
5	154174	29792.287056820318	8836.2247299792
5	154192	29796.008691697353	8838.5796311253
5	154213	29799.784594572768	8834.2171184504
5	154242	29803.898860252169	8827.8694137994
5	154263	29808.165439588192	8828.8227410615
5	154272	29810.785486022123	8825.0887995487
5	154325	29819.492733642719	8831.6939870599
5	154330	29819.652102214707	8829.1739646485
5	154341	29821.555776521582	8829.1948003974
5	154353	29822.407585169274	8829.7594246518
5	154358	29822.852188328978	8829.9634314517
5	154363	29823.699382792335	8830.133581665
5	154372	29825.827504965132	8830.8846149245
5	154446	29837.847388498868	8841.0935645843
5	154474	29844.443215144648	8834.4336216324
5	154482	29846.193880331003	8835.2800806451
5	154502	29850.663236998389	8838.252647654
5	154517	29852.293236796084	8833.9984902417
5	154535	29853.673900992132	8835.1654665908
5	154540	29853.895662731017	8835.1658951642
5	154547	29856.079106232854	8832.9022332063
5	154555	29857.794550667107	8829.6292405628
5	154560	29857.974634901693	8825.5953494137
5	154577	29860.43833394095	8824.0093587052
5	154611	29861.854541803381	8821.9134480725
5	154622	29864.133501104663	8819.9155570735
5	154657	29874.324139785731	8827.2772710544
5	154675	29879.773401996059	8831.3128833
5	154680	29880.149013413155	8829.9941073179
5	154690	29883.534929693286	8829.8515371098
5	154706	29886.320736352449	8826.9606683891
5	154711	29886.445144108916	8819.6415600836
5	154716	29887.758162829908	8820.6611341662
5	154721	29888.78010233748	8814.9313882862
5	154729	29888.993967228855	8812.2382583923
5	154748	29898.583445265835	8812.3859385069

