version 2
run First-n2-11-20191016-14:52:54-6556
attr configname First-n2
attr datetime 20191016-14:52:54
attr experiment First-n2
attr inifile omnetpp.ini
attr iterationvars ""
attr iterationvarsf ""
attr measurement ""
attr network org.omnetpp.queueing.Pizza
attr processid 6556
attr repetition 11
attr replication ""
attr resultdir results
attr runnumber 11
attr seedset 11
param **.PS.maxInventoriedPS 2
param **.U1.interArrivalTime exponential(2s)
param **.U2.interArrivalTime exponential(4s)
param **.PS.serviceTimeForInventoryU1 exponential(0.8s)
param **.PS.serviceTimeForInventoryU2 exponential(1.0s)
param **.PS.serviceTimeDirectU1 exponential(1.2s)
param **.PS.serviceTimeDirectU2 exponential(1.4s)
param **.PS.probabilityProducing 0.5
param **.CS.serviceTimeU1 exponential(0.8s)
param **.CS.serviceTimeU2 exponential(1.0s)

vector 0 Pizza.EntryQueueU1 queueLength:vector ETV
attr interpolationmode sample-hold
attr title "queue length, vector"
vector 1 Pizza.CS queueLength:vector ETV
attr interpolationmode sample-hold
attr title "queue length, vector"
vector 2 Pizza.EntryQueueU2 queueLength:vector ETV
attr interpolationmode sample-hold
attr title "queue length, vector"
vector 3 Pizza.sink lifeTime:vector ETV
attr interpolationmode none
attr title "lifetime of arrived jobs, vector"
attr unit s
vector 4 Pizza.sink lifeTimeU2:vector ETV
attr interpolationmode none
attr title "lifetime of arrived jobs, vector"
attr unit s
0	0	0	0
0	7	0.397559776347	1
0	9	0.82918977245	2
0	12	1.924040615244	1
0	21	3.410677649658	2
0	23	3.605489874977	3
0	25	4.534659223345	2
0	31	5.118339758079	1
0	36	5.262681591808	0
0	48	7.410359181033	1
0	50	7.754101433183	2
0	52	7.805043269295	3
0	57	10.650790573663	4
0	58	11.353524261599	3
0	64	11.418585714274	4
0	67	11.593961249551	5
0	68	12.949629504879	4
0	73	13.68174939978	3
0	81	14.088598425325	4
0	84	14.905176484363	3
0	91	16.030526090288	4
0	93	16.173717466475	5
0	94	16.728764250077	4
0	100	17.781355794133	5
0	102	19.03198151627	6
0	103	19.11111582502	5
0	108	19.441172923335	4
0	115	21.511267976515	3
0	120	21.569344144332	2
0	125	21.599458063523	1
0	133	23.747075290676	0
0	144	27.667957067392	1
0	148	28.127782064363	0
0	177	31.13723538183	1
0	181	32.628837567921	0
0	235	45.286819657119	1
0	236	45.468510862875	0
0	243	46.273099560308	1
0	244	46.546020617309	0
0	262	53.281867788119	1
0	264	53.330898581542	2
0	269	54.341401799561	1
0	274	55.942099362547	0
0	294	57.96414812237	1
0	295	59.069259671648	0
0	299	59.678110502106	1
0	301	60.444110790611	2
0	305	61.034563194544	3
0	309	62.051780645272	2
0	314	62.128473750105	1
0	319	62.413978297608	0
0	341	65.925657210835	1
0	344	66.651080545842	2
0	345	66.939523425045	1
0	350	67.431024151093	0
0	369	72.85414761609	1
0	371	73.188993827841	2
0	375	75.025814068662	1
0	381	75.281349649428	2
0	383	76.056470779086	3
0	386	78.104206021315	2
0	391	79.428109234414	1
0	398	81.445171234631	2
0	400	82.01222280984	1
0	406	82.021859493494	2
0	407	82.176944203576	1
0	413	83.112661781516	2
0	415	84.462901954008	3
0	416	84.751298160223	2
0	421	86.143212847629	1
0	425	86.273043224945	2
0	430	88.07056700288	1
0	435	88.308300242014	0
0	459	91.065773829391	1
0	460	92.299484469942	0
0	467	93.154286102316	1
0	468	93.391884080019	0
0	482	95.469147807732	1
0	483	95.706756309372	0
0	495	96.225184428388	1
0	496	97.208909521994	0
0	505	98.085536876994	1
0	509	101.276311932033	0
0	541	113.15153532307	1
0	542	113.235631197562	0
0	564	120.874239826865	1
0	566	121.276431997462	2
0	567	121.437192069354	1
0	571	121.650996037319	2
0	573	122.361748276399	3
0	577	122.750829019896	4
0	579	123.321983427682	5
0	581	124.156523365422	6
0	582	124.581512749923	5
0	587	124.949571924397	4
0	594	125.435523916861	3
0	600	126.944105500481	4
0	603	127.640050417531	3
0	608	127.900148651463	2
0	612	128.385433449659	3
0	618	129.531884960163	4
0	619	129.640527220908	3
0	623	131.299948212212	4
0	625	131.528469984888	5
0	630	132.872206239371	4
0	634	133.042900405649	5
0	636	133.346002258265	6
0	643	135.408060568361	5
0	648	135.841550979361	4
0	654	136.73938326349	5
0	656	137.048537679059	6
0	658	137.379866365726	7
0	661	138.539830665679	6
0	667	139.333522790259	7
0	669	139.839796760421	8
0	672	140.931041554355	7
0	678	142.53096205608	8
0	682	142.854828231491	7
0	688	143.316028986696	8
0	690	143.737336694996	7
0	696	144.166672088214	6
0	703	144.641465294148	5
0	709	144.801585381401	6
0	711	144.976273941958	5
0	716	145.20494162344	4
0	723	149.165861762029	3
0	730	150.616626332935	2
0	734	150.809568464164	3
0	738	151.495612959062	4
0	739	152.794458993591	3
0	743	153.266332211734	4
0	747	154.428663810948	5
0	751	155.005010101531	6
0	755	155.807404875003	7
0	756	156.043749444337	6
0	761	156.594166018345	5
0	766	157.432907624671	4
0	771	161.906993421139	3
0	775	161.936861722405	4
0	781	163.93654688927	3
0	787	164.026988444978	4
0	790	165.391654712287	5
0	791	165.779736041576	4
0	797	166.136211810156	5
0	798	167.242251139644	4
0	805	168.007749458131	5
0	807	169.868527767593	4
0	812	170.199351959779	3
0	817	170.807192210657	2
0	823	171.938135731729	3
0	825	172.160432558254	4
0	826	172.583492020485	3
0	833	174.374321791208	2
0	841	175.550224091017	1
0	848	178.526871501514	0
0	852	179.33679469339	1
0	854	179.722059443261	2
0	856	179.844212506319	3
0	858	180.319461232595	4
0	861	181.667122341167	3
0	865	182.145821448308	4
0	867	182.453544188778	5
0	870	183.690835885038	4
0	874	185.916368968397	5
0	876	186.385537208713	6
0	880	189.044263537103	5
0	885	189.298116449041	4
0	890	191.797048709449	3
0	894	192.253606499528	4
0	896	192.441470447933	5
0	899	193.836640899474	4
0	903	194.030478666752	5
0	905	194.671797198786	6
0	907	194.936875809294	7
0	910	195.194549626737	6
0	915	196.061405413225	5
0	923	197.329195105418	4
0	928	197.944204512376	3
0	934	198.428179387199	4
0	940	199.468921057865	3
0	945	199.965474776919	2
0	951	200.627372863593	3
0	953	201.52986609716	2
0	961	203.415223796891	1
0	967	203.662281323543	0
0	978	204.053155320546	1
0	982	205.339476144526	0
0	988	205.810445709438	1
0	990	205.842127429611	2
0	991	206.013803894959	1
0	998	207.714266222876	2
0	999	207.723491937245	1
0	1004	208.07071483252	0
0	1008	208.409929209886	1
0	1010	208.471953653009	2
0	1016	211.864259871263	3
0	1018	212.16332785324	4
0	1019	212.940952476838	3
0	1024	213.251117874531	2
0	1033	214.012306418065	1
0	1039	214.804117403086	0
0	1050	215.603572752258	1
0	1053	217.722843003489	2
0	1055	218.034012061403	3
0	1056	218.457500650209	2
0	1061	218.562663316468	1
0	1067	219.126044827409	0
0	1071	219.568649475195	1
0	1074	220.714643446401	0
0	1078	220.85092562351	1
0	1080	220.934285089071	2
0	1084	221.094310853825	3
0	1087	221.747765311583	2
0	1091	222.891680927081	3
0	1093	224.126596075858	4
0	1099	225.253400326274	5
0	1105	228.731486786386	4
0	1110	228.996325911647	3
0	1118	230.706153504188	4
0	1119	232.554789805547	3
0	1123	233.965789561586	4
0	1126	235.845863505954	3
0	1132	236.454715876966	4
0	1133	236.486253507713	3
0	1138	237.542872525944	2
0	1142	238.380426052623	3
0	1144	238.611902066463	4
0	1146	238.761399065365	5
0	1151	240.991105003992	4
0	1158	241.901735356353	5
0	1161	243.185561853405	6
0	1162	243.373253577696	5
0	1169	243.70991842518	6
0	1170	243.784681735289	5
0	1177	244.572804279828	6
0	1178	244.904410252107	5
0	1185	245.322595998686	4
0	1191	245.770546106121	5
0	1193	246.113747048271	6
0	1194	246.238613846458	5
0	1198	248.081844958535	6
0	1202	248.692009265118	7
0	1207	248.933429126626	6
0	1212	250.073300653636	5
0	1217	250.497569545517	4
0	1221	251.968026859654	5
0	1225	252.162512872653	6
0	1227	253.503646351273	7
0	1231	255.469380149003	8
0	1236	257.85656479101	7
0	1241	260.504785405419	6
0	1246	260.889044794907	5
0	1250	261.177011187232	6
0	1255	262.11560762754	5
0	1262	262.937769085053	4
0	1267	264.347371828782	3
0	1273	265.662386732143	4
0	1275	265.750687958807	5
0	1277	265.983143650327	6
0	1279	267.407097725111	5
0	1285	268.794727389047	4
0	1294	269.8729247536	3
0	1299	269.922605339156	2
0	1305	270.131643028287	3
0	1307	270.615319871283	4
0	1308	271.25502964351	3
0	1313	272.532369355792	2
0	1318	273.817012602435	1
0	1322	274.038960170441	2
0	1326	275.923552180979	3
0	1328	276.151990686853	4
0	1330	276.219638522664	5
0	1332	276.647428706309	6
0	1334	277.138833378857	7
0	1336	278.36472709936	8
0	1341	282.335516727081	7
0	1349	282.90976966564	8
0	1350	282.932972399532	7
0	1355	283.653191109838	6
0	1360	283.886083098261	5
0	1366	284.915912107617	6
0	1367	285.083949771736	5
0	1372	287.512018274881	4
0	1377	288.819000953566	3
0	1387	290.942775435696	4
0	1388	291.568493663425	3
0	1392	291.889735268186	4
0	1394	292.398738205497	5
0	1398	293.426789570252	4
0	1404	293.57111587752	5
0	1405	293.971133486931	4
0	1410	294.654203443368	3
0	1415	295.801456554114	2
0	1419	297.798220563193	3
0	1422	299.051144488877	2
0	1426	299.27779801583	3
0	1430	300.621579162056	2
0	1435	301.530960421105	1
0	1439	302.217535001925	2
0	1441	303.305221290187	3
0	1445	304.581335253781	4
0	1447	305.322513607578	5
0	1450	306.398253328761	4
0	1455	308.370295109889	3
0	1463	310.924256879214	4
0	1465	311.214153084225	5
0	1469	311.446748375117	4
0	1474	311.674183382419	3
0	1481	311.869392340358	4
0	1483	312.289239728613	5
0	1484	313.90121583377	4
0	1490	315.333224812857	3
0	1496	315.440580646017	4
0	1497	315.680783009183	3
0	1502	317.814903309526	2
0	1508	318.091444791998	3
0	1509	318.681048559502	2
0	1513	318.682819822108	3
0	1518	320.702539507934	2
0	1524	322.044399895481	1
0	1529	322.1493887209	0
0	1560	324.770575358137	1
0	1566	326.495248993724	2
0	1567	326.675209863702	1
0	1573	326.777880501788	2
0	1574	327.124313932251	1
0	1581	329.168728558938	0
0	1596	332.652635302849	1
0	1598	333.774656631219	2
0	1600	335.17001845804	3
0	1605	337.2622131604	2
0	1610	337.777645742179	1
0	1615	337.809950362185	0
0	1621	339.057150684404	1
0	1623	339.503177921727	2
0	1624	339.64488317047	1
0	1628	340.399381089909	2
0	1630	340.476719938722	3
0	1634	340.757603535642	4
0	1635	341.673682205662	3
0	1641	341.864230793657	4
0	1642	342.720027676446	3
0	1648	343.037129014418	4
0	1650	343.732262703418	5
0	1651	344.104122629819	4
0	1658	345.985898281643	3
0	1666	347.429800231026	4
0	1669	347.606648850807	3
0	1677	348.419936995875	2
0	1683	348.542418053311	3
0	1685	349.107518709147	2
0	1691	349.766934608431	3
0	1692	349.851526526464	2
0	1697	353.178190800033	1
0	1704	354.035031982847	2
0	1705	354.357626339609	1
0	1709	354.375455029855	2
0	1711	354.876074911245	3
0	1715	355.325900948662	4
0	1723	356.186425082887	3
0	1728	356.249708302672	2
0	1737	358.511387869428	3
0	1740	360.161726381565	2
0	1748	361.891754673443	1
0	1755	362.284927405057	0
0	1763	368.509350983804	1
0	1764	368.629576255013	0
0	1768	368.800433712357	1
0	1771	369.917425494151	0
0	1775	370.358287386325	1
0	1778	371.309322604316	0
0	1786	372.136290447395	1
0	1787	372.343052895031	0
0	1793	372.680517267665	1
0	1798	374.363727753507	0
0	1809	375.191718106925	1
0	1811	375.860799562045	0
0	1847	383.963082051104	1
0	1850	384.683445843403	0
0	1864	386.131277708542	1
0	1865	386.163568745821	0
0	1873	386.474145105806	1
0	1874	387.508912005097	0
0	1899	391.848226347063	1
0	1902	393.162706588535	2
0	1906	393.79384492073	1
0	1911	394.565713313595	0
0	1954	401.596851584816	1
0	1956	405.237019807976	0
0	1963	405.760841070358	1
0	1966	406.723149393214	0
0	1972	406.857769855929	1
0	1973	406.939124477703	0
0	1986	407.632325445091	1
0	1987	407.681362212754	0
0	2000	409.327072111632	1
0	2001	410.384201279861	0
0	2016	413.375706365589	1
0	2019	413.749155655954	2
0	2020	413.760620639337	1
0	2030	415.241887664307	0
0	2034	415.677589864759	1
0	2037	418.598084653791	0
0	2041	419.243834481085	1
0	2043	419.332545807839	2
0	2045	419.590727379591	3
0	2047	419.599044245751	4
0	2052	422.741915256792	3
0	2056	423.682495462073	4
0	2064	425.349811163939	5
0	2065	425.540178267918	4
0	2071	426.042106754466	5
0	2076	427.254470245462	4
0	2083	431.033353745284	5
0	2086	431.522264618053	6
0	2088	431.690950854702	7
0	2090	432.045708952805	8
0	2091	432.72954391676	7
0	2097	433.215306930253	6
0	2102	433.530086712774	5
0	2107	433.855936299395	4
0	2113	435.771530967969	5
0	2114	436.467866689473	4
0	2118	436.879724737988	5
0	2123	438.981411501585	4
0	2129	439.493808074436	5
0	2131	440.472474597308	4
0	2137	440.550198996241	5
0	2138	440.609159330636	4
0	2145	441.688775615234	3
0	2150	443.282270350668	2
0	2156	444.423455052967	3
0	2157	444.521550793077	2
0	2165	445.959308588917	1
0	2170	446.052403178309	0
0	2181	447.969949667292	1
0	2184	448.614254186107	0
0	2192	450.276314363771	1
0	2194	450.496377345907	0
0	2200	451.126013035452	1
0	2205	454.769216519018	2
0	2207	456.09976719606	3
0	2208	457.239842484827	2
0	2213	458.013449083037	1
0	2219	458.16611480599	2
0	2221	458.617824945022	3
0	2222	459.196427871864	2
0	2226	459.514001963471	3
0	2229	460.291071739235	2
0	2235	461.260613335889	3
0	2237	461.355529742795	4
0	2241	461.893801407499	5
0	2243	462.135082228911	6
0	2244	462.66103825005	5
0	2249	465.17894895261	4
0	2257	466.576569846744	5
0	2258	466.940114269399	4
0	2264	467.436929095043	5
0	2266	469.230262363901	4
0	2271	469.730403012905	3
0	2275	469.730852235743	4
0	2277	470.619476049317	5
0	2281	471.460195720235	6
0	2282	471.525818900979	5
0	2287	473.75512176581	4
0	2295	476.951014707921	5
0	2297	478.073497699966	6
0	2300	478.310012133384	5
0	2304	480.405390717009	6
0	2308	481.560674960326	7
0	2309	482.459956282422	6
0	2317	485.140897256144	7
0	2319	485.168111645232	8
0	2320	485.220582604608	7
0	2325	487.15199529019	6
0	2329	487.553170222099	7
0	2333	487.901712157179	6
0	2338	488.861517110217	5
0	2345	489.639305006281	4
0	2350	490.741844791286	3
0	2356	490.819652676459	4
0	2360	492.595473456823	5
0	2363	493.48906327379	4
0	2375	497.341463279897	5
0	2376	498.46137769799	4
0	2382	498.823378283354	5
0	2385	499.404125710659	4
0	2389	499.880707942038	5
0	2396	503.975494288295	4
0	2403	505.822369483768	5
0	2404	506.704349786535	4
0	2410	507.214801666145	5
0	2411	507.224659069389	4
0	2415	507.286615904588	5
0	2420	509.09030093508	6
0	2421	509.667943022662	5
0	2426	509.961730402326	4
0	2430	510.430521519459	5
0	2434	511.658952889925	4
0	2440	512.054673665287	5
0	2441	512.689622558596	4
0	2446	513.981610807735	3
0	2453	514.700206294163	2
0	2457	514.906783273558	3
0	2461	515.984156074167	2
0	2469	517.719219594685	3
0	2470	518.079268539207	2
0	2475	519.465305964874	1
0	2481	519.928033276627	2
0	2483	520.05750163833	3
0	2487	520.594786500871	2
0	2492	520.78901334903	1
0	2496	520.812342836666	2
0	2498	522.619117513521	3
0	2501	522.748090212177	2
0	2506	522.963684305555	1
0	2512	523.709640205418	2
0	2514	523.924356066395	3
0	2515	524.260132346012	2
0	2520	525.282621230228	1
0	2525	526.357943240148	0
0	2546	527.361647001957	1
0	2547	527.675280044283	0
0	2551	527.833811814044	1
0	2558	530.553535470199	0
0	2564	530.779881187021	1
0	2566	531.514393477597	0
0	2580	531.822135919669	1
0	2582	532.156817566577	2
0	2584	532.27591733499	3
0	2591	537.987489432107	2
0	2598	538.180601725763	1
0	2604	538.907718134901	2
0	2605	538.987285567707	1
0	2613	540.385567814119	0
0	2622	541.03066547592	1
0	2624	541.655721129902	2
0	2629	543.285907564175	1
0	2633	543.37585526662	2
0	2635	544.133464514835	3
0	2638	545.998324174389	2
0	2646	546.877439074522	3
0	2653	548.814666525718	2
0	2660	551.118746539157	1
0	2665	551.871639463396	0
0	2671	553.089283508968	1
0	2675	554.458831626342	2
0	2677	555.510076139825	3
0	2679	556.289720614798	2
0	2686	557.121258542057	1
0	2690	559.04523391423	2
0	2692	559.21117481849	3
0	2694	559.298843426174	4
0	2698	560.171208850989	5
0	2701	560.431223814526	6
0	2704	561.999895602253	7
0	2705	562.014383771269	6
0	2711	562.263124309826	5
0	2718	563.087648797766	6
0	2721	564.690935031968	5
0	2727	564.77524730782	6
0	2728	564.786298438504	5
0	2733	564.881119106773	4
0	2737	565.118679277443	5
0	2740	568.250157624173	4
0	2744	569.685034150066	5
0	2747	571.242856029044	4
0	2752	572.898618455554	3
0	2761	573.823793072068	2
0	2765	574.085067268756	3
0	2767	577.133299250484	4
0	2770	577.233161526898	3
0	2776	578.745586445952	2
0	2781	579.051310295783	1
0	2787	580.327299398563	0
0	2804	581.293442478644	1
0	2805	581.347947034113	0
0	2809	581.870437699021	1
0	2811	582.740444314155	2
0	2813	582.843617514928	3
0	2817	584.931455172542	4
0	2822	587.178008157431	3
0	2826	587.600417859192	4
0	2829	587.969368506893	3
0	2835	588.655495050351	4
0	2836	588.734050944406	3
0	2842	589.294211168888	4
0	2843	589.51923600992	3
0	2849	590.857700696652	4
0	2856	594.248584140894	5
0	2857	594.908027113925	4
0	2862	595.593042565478	3
0	2868	596.291640902915	4
0	2869	596.37278849719	3
0	2881	598.76583473606	2
0	2887	598.952726159583	3
0	2889	599.409261140699	4
0	2890	599.558804611584	3
0	2897	601.344369528785	4
0	2898	601.426682928796	3
0	2905	601.765161024519	2
0	2911	602.517270355347	3
0	2912	602.716156327451	2
0	2916	603.254759075856	3
0	2921	604.222975410428	2
0	2928	605.114430851624	3
0	2929	605.546978963407	2
0	2934	605.66148145002	1
0	2938	606.190793170855	2
0	2940	607.126796240386	3
0	2945	608.362929557864	2
0	2951	608.965271409695	3
0	2953	609.209169798776	4
0	2954	609.421747772367	3
0	2964	612.691186781571	4
0	2965	615.059652489298	3
0	2969	616.628206055343	4
0	2972	617.228114330168	3
0	2976	617.51963607941	4
0	2979	618.329643218925	3
0	2986	620.870799464983	2
0	2991	621.321647163545	1
0	2998	622.290656259417	0
0	3021	626.901938144116	1
0	3022	627.029160156232	0
0	3044	630.8138707828	1
0	3049	631.936999845585	0
0	3055	631.967317061735	1
0	3056	632.028875733396	0
0	3075	634.668447963775	1
0	3080	635.721523647403	2
0	3081	636.104258748764	1
0	3086	637.019963479547	0
0	3098	637.544227387291	1
0	3100	637.842633293502	2
0	3102	637.942789036822	3
0	3103	638.011101721785	2
0	3109	639.440033203919	3
0	3110	639.486850833677	2
0	3114	640.20719510007	3
0	3116	640.343303515995	4
0	3119	641.567807357957	3
0	3127	642.764832924777	4
0	3132	643.77191812001	5
0	3134	644.087151960632	6
0	3136	644.609634443042	5
0	3141	645.446972203556	4
0	3146	646.130214343986	3
0	3151	646.326758657906	2
0	3155	646.719890799704	3
0	3158	648.24072901893	2
0	3162	649.215982643146	3
0	3164	650.026715981407	4
0	3169	650.9692695661	3
0	3177	652.522958832726	2
0	3186	653.887266556697	3
0	3189	654.571956926007	2
0	3196	654.746731533007	3
0	3198	654.785972250802	4
0	3199	656.050936659813	3
0	3209	658.635174284992	2
0	3215	658.659800471707	3
0	3216	659.371462383059	2
0	3223	660.133035705359	3
0	3225	660.17346547189	4
0	3226	660.453495507276	3
0	3231	661.475635294866	2
0	3238	666.131587041422	1
0	3242	667.155526613279	2
0	3245	667.406940654001	1
0	3253	668.052992947631	2
0	3254	668.553639520777	1
0	3260	670.311053980083	0
0	3266	671.222026106002	1
0	3267	671.25777637188	0
0	3295	677.120572331878	1
0	3296	677.490537567738	0
0	3342	686.575193596437	1
0	3345	686.739998936754	0
0	3362	689.898777386755	1
0	3363	691.402391646955	0
0	3380	694.052382694726	1
0	3381	694.46122155772	0
0	3387	694.774297295179	1
0	3388	696.413840865504	0
0	3394	696.417021222018	1
0	3395	696.490438199803	0
0	3399	697.081078122745	1
0	3404	698.281346204967	0
0	3418	698.588021102061	1
0	3424	699.651677852487	2
0	3425	699.986638805349	1
0	3432	702.885199694632	0
0	3481	711.475727701543	1
0	3484	712.496339874087	0
0	3493	712.698874783958	1
0	3497	714.078159755332	2
0	3499	715.009200171944	3
0	3504	718.148492295086	4
0	3506	718.257175940891	5
0	3507	718.548394883406	4
0	3515	719.202998447686	5
0	3517	719.332058692449	6
0	3519	719.931585534362	7
0	3521	720.454544120577	8
0	3522	721.058094153137	7
0	3532	722.009330328321	8
0	3533	724.043122837551	7
0	3539	725.426766380714	6
0	3544	725.78966387627	5
0	3550	726.12740319239	6
0	3552	727.110891212958	7
0	3553	727.61147697468	6
0	3560	729.206967418433	5
0	3565	730.980099071869	4
0	3572	731.697437294572	3
0	3581	735.193328445211	2
0	3587	735.556283138435	3
0	3589	735.599450103457	4
0	3591	735.93445526727	5
0	3593	735.948783387641	6
0	3594	736.102029459453	5
0	3604	738.560843132717	6
0	3605	738.636165975842	5
0	3611	740.236883269372	6
0	3614	741.894049064487	5
0	3619	742.59792000798	4
0	3624	743.990786551832	3
0	3628	744.284558343256	4
0	3631	746.048056053761	3
0	3635	747.083653107956	4
0	3640	748.148494593276	3
0	3645	748.375652014306	2
0	3650	748.937989130014	1
0	3654	749.021613015442	2
0	3656	749.831638299604	3
0	3661	753.140885490972	2
0	3667	753.960443799977	1
0	3672	754.323151158099	0
0	3681	757.361253284877	1
0	3682	757.368434790625	0
0	3693	757.644397850642	1
0	3695	757.666271360266	2
0	3697	757.888283098148	3
0	3698	758.230237781833	2
0	3702	759.446393088938	3
0	3709	762.176036019468	4
0	3710	762.202086376589	3
0	3715	763.126123796314	2
0	3720	764.758030203278	1
0	3724	764.784339318949	2
0	3729	767.714464507778	1
0	3733	767.725296713947	2
0	3736	771.376935666306	1
0	3740	773.238462338921	2
0	3747	774.712531557872	3
0	3750	775.36876937184	2
0	3755	775.503297431839	1
0	3761	777.164836752377	2
0	3763	780.948350880368	3
0	3764	781.61517224212	2
0	3768	781.939615060865	3
0	3770	783.062503543945	4
0	3776	783.419449376221	5
0	3777	783.970201069809	4
0	3781	786.940533778676	5
0	3783	787.324342916958	6
0	3790	790.94866312198	5
0	3795	791.97893410398	4
0	3803	792.445311884761	5
0	3808	794.280122022821	6
0	3809	794.318691352206	5
0	3814	794.849902288318	4
0	3819	795.757623458689	3
0	3823	796.662895567098	4
0	3828	797.478837414919	3
0	3833	797.913486812892	2
0	3838	798.140921733564	1
0	3842	798.693126951327	2
0	3844	799.013042388157	3
0	3851	799.723163074624	2
0	3857	800.5793201104	3
0	3860	800.763111985854	4
0	3861	802.247739539978	3
0	3866	802.366018826159	2
0	3874	803.280855882165	3
0	3877	803.439041452654	4
0	3878	803.775403075994	3
0	3883	804.199614125577	2
0	3887	804.419917822166	3
0	3890	805.503397568403	2
0	3896	806.245181319574	3
0	3897	806.487095760408	2
0	3902	808.108370409117	1
0	3906	809.276693592839	2
0	3909	810.631898506863	1
0	3915	811.612074372856	0
0	3938	813.827404512077	1
0	3939	814.268130475701	0
0	3955	816.169623316148	1
0	3959	817.634641422646	2
0	3961	818.340431978962	3
0	3965	819.145614713812	4
0	3969	819.784603480699	5
0	3970	820.024190475038	4
0	3974	821.647839536684	5
0	3978	822.740390644711	4
0	3986	824.433387609996	3
0	3991	825.425003437702	2
0	3996	825.63346578596	1
0	4000	826.556338885333	2
0	4002	827.019175730135	3
0	4005	827.607078401276	2
0	4009	829.42422815357	3
0	4012	831.326446474444	2
0	4017	831.50546615194	1
0	4023	831.623426465498	2
0	4024	831.655784075044	1
0	4032	833.383151558114	0
0	4038	833.793800420329	1
0	4039	834.321468509213	0
0	4045	836.785146863043	1
0	4046	837.529112938291	0
0	4076	841.166835631164	1
0	4078	842.159113260101	2
0	4080	842.224685256809	3
0	4081	842.555106516594	2
0	4086	843.233064399945	1
0	4093	844.655686483953	0
0	4097	846.320415045142	1
0	4101	846.618793427394	2
0	4104	847.57130541812	1
0	4111	849.841153859229	0
0	4115	850.000950105978	1
0	4117	850.105108359783	2
0	4119	851.344571699591	3
0	4122	853.022891930605	2
0	4128	854.993089059794	1
0	4133	855.290784464427	0
0	4146	856.882237169508	1
0	4148	858.043051291358	0
0	4167	859.595996442445	1
0	4169	859.676876563586	2
0	4173	860.757642802821	1
0	4179	861.473262069386	0
0	4207	866.475701345068	1
0	4209	866.737545186057	2
0	4211	867.585291712396	3
0	4213	867.613176206924	4
0	4214	867.675523623443	3
0	4221	868.119954275557	4
0	4223	868.28672060695	5
0	4224	868.510086257681	4
0	4229	869.177617542073	3
0	4235	869.407282160364	2
0	4242	871.278591480048	3
0	4243	871.84956558004	2
0	4247	872.787699224769	3
0	4250	874.361959891345	2
0	4255	874.432105470498	1
0	4259	875.252169050817	2
0	4263	879.335936981074	3
0	4265	879.615002560158	4
0	4269	880.771874383989	3
0	4274	880.922379966073	2
0	4278	881.360411037969	3
0	4282	881.493887624766	4
0	4284	881.665909232945	5
0	4287	882.4010966498	4
0	4292	884.414529743195	3
0	4297	885.039318492381	2
0	4303	886.160783856137	3
0	4305	886.317012454237	4
0	4306	886.368117706985	3
0	4311	888.783758302227	2
0	4315	889.113985714694	3
0	4321	889.888706396563	4
0	4323	890.626826371563	5
0	4324	890.906323715155	4
0	4328	891.590847424762	5
0	4330	893.185546186722	6
0	4333	893.685439425446	5
0	4342	897.650686516831	4
0	4347	898.667547478801	3
0	4353	901.460164296305	4
0	4354	901.715451400172	3
0	4358	901.937470540726	4
0	4360	902.878539746367	5
0	4364	903.930885435875	6
0	4366	904.175899662001	5
0	4374	905.438187511348	6
0	4375	906.717436897034	5
0	4380	909.60859601567	4
0	4386	911.014921981032	3
0	4392	911.279024943377	2
0	4397	911.440556394401	1
0	4401	912.026668374805	2
0	4403	912.402974852907	3
0	4406	913.026728945939	2
0	4412	915.435859909281	3
0	4419	917.169114440602	2
0	4428	918.810390321392	1
0	4433	918.815497542295	0
0	4439	919.377837061751	1
0	4440	919.965829099044	0
0	4446	921.94955281458	1
0	4447	922.295518987287	0
0	4451	922.513420446466	1
0	4454	923.07633768747	0
0	4460	923.861335881713	1
0	4461	923.996293020158	0
0	4497	928.801468090113	1
0	4498	928.848084358612	0
0	4508	929.143577087204	1
0	4512	930.266688047204	2
0	4515	933.053253913537	1
0	4520	933.993820799637	0
0	4543	935.607607904338	1
0	4546	936.395350057699	0
0	4557	939.132168134981	1
0	4558	939.506383131457	0
0	4582	944.463526287256	1
0	4583	944.496127995476	0
0	4597	947.001676242238	1
0	4599	947.105688894773	2
0	4601	949.166020362784	1
0	4606	949.181897508814	0
0	4630	951.226652865885	1
0	4635	952.674421470323	0
0	4647	953.605737548418	1
0	4648	954.011388080729	0
0	4669	956.847028946094	1
0	4672	959.662504396752	0
0	4678	959.666504867109	1
0	4679	959.718207509101	0
0	4698	960.967733145283	1
0	4701	961.205849225358	0
0	4707	961.745350911632	1
0	4708	961.92917469954	0
0	4712	962.888607964438	1
0	4716	964.927377843931	0
0	4730	966.071899327754	1
0	4733	966.800753241485	2
0	4735	967.168843045017	1
0	4740	967.225946041504	0
0	4751	967.712711198943	1
0	4753	968.131564159729	0
0	4761	969.023027942167	1
0	4762	969.336087558245	0
0	4766	970.261417847572	1
0	4773	972.799266352938	0
0	4788	974.646201800031	1
0	4789	974.956323061957	0
0	4795	975.483750655208	1
0	4797	975.945034604245	2
0	4798	976.371329211404	1
0	4803	976.527273174821	0
0	4807	977.146282316943	1
0	4810	978.132827906979	0
0	4814	978.79824145783	1
0	4816	979.142986825104	2
0	4819	979.880874018549	1
0	4825	981.853798508568	2
0	4826	982.615512817766	1
0	4833	984.084850225474	0
0	4855	986.002467469126	1
0	4857	986.745016144012	0
0	4863	986.763369422797	1
0	4867	987.735210797561	0
0	4878	989.183518586414	1
0	4880	989.858784032095	2
0	4881	990.026232254051	1
0	4886	990.124652702132	0
0	4890	990.174669251639	1
0	4892	990.765742499605	2
0	4894	991.113025343343	3
0	4902	993.813860598395	4
0	4904	995.106240702015	5
0	4907	995.478564956271	4
0	4912	995.772333775782	3
0	4916	996.218438601077	4
0	4919	996.554159331645	3
0	4926	997.306791654294	2
0	4932	998.542812591863	1
0	4937	998.685521212662	0
0	4941	1000.149105503093	1
0	4945	1000.553623647528	2
0	4947	1000.923881642166	3
0	4951	1003.837725366723	4
0	4953	1004.628518212158	5
0	4955	1005.060185495169	6
0	4956	1005.50765273434	5
0	4960	1006.132533927331	6
0	4963	1006.548338668941	5
0	4967	1007.560751409012	6
0	4969	1008.255690292461	7
0	4975	1010.997965754402	8
0	4977	1011.489316882469	9
0	4983	1013.688626244203	8
0	4988	1016.957051210884	7
0	4992	1017.211225333096	8
0	4997	1018.765224314206	7
0	5003	1019.170135915897	8
0	5005	1021.54119940136	7
0	5010	1021.663142400647	6
0	5015	1022.01143034741	5
0	5019	1022.570341958345	6
0	5024	1023.43734944256	5
0	5030	1024.584042587998	4
0	5036	1026.394071509639	3
0	5045	1030.890124699572	2
0	5050	1033.071920513937	1
0	5054	1033.970073266932	2
0	5057	1035.42137641718	1
0	5063	1035.881246603558	2
0	5066	1037.335960819124	1
0	5074	1038.020868075065	2
0	5081	1040.062054406522	3
0	5082	1040.171727097892	2
0	5087	1040.231473482064	1
0	5094	1040.666807301617	0
0	5123	1048.675343181414	1
0	5124	1048.786712720176	0
0	5128	1049.292196646522	1
0	5131	1049.986692176627	0
0	5137	1050.737303963645	1
0	5140	1051.985597318217	2
0	5142	1052.580844192511	1
0	5148	1053.492983365753	2
0	5149	1053.812754412145	1
0	5153	1054.313084244336	2
0	5156	1054.502284806781	1
0	5162	1056.324138379785	0
0	5175	1057.318797398768	1
0	5176	1057.481394878095	0
0	5180	1057.819323977755	1
0	5184	1058.702542480664	0
0	5195	1059.224871362629	1
0	5202	1060.630659737053	0
0	5208	1061.206917267331	1
0	5209	1061.300583573834	0
0	5221	1063.130684356483	1
0	5223	1064.414612716899	0
0	5237	1066.481229944678	1
0	5238	1066.547633974793	0
0	5270	1072.732836682341	1
0	5271	1072.927383101197	0
0	5280	1073.239216289588	1
0	5282	1073.760355746867	2
0	5284	1074.13982456815	3
0	5287	1075.427918190433	2
0	5297	1077.481678554218	3
0	5298	1077.847986328391	2
0	5313	1081.804979631416	1
0	5318	1082.716191567137	0
0	5324	1083.713956052173	1
0	5325	1084.020995883196	0
0	5341	1084.766844867859	1
0	5343	1085.504160486213	0
0	5356	1087.400690785687	1
0	5358	1088.620290427909	2
0	5359	1089.645115651464	1
0	5365	1090.023410857494	0
0	5373	1090.922424225044	1
0	5374	1091.416662466509	0
0	5378	1091.464335925119	1
0	5381	1092.7760808479	0
0	5385	1093.124619597226	1
0	5388	1093.464898296935	0
0	5409	1095.404360973766	1
0	5411	1096.905992579229	2
0	5412	1097.340553730422	1
0	5417	1098.14686040141	0
0	5428	1098.323303371371	1
0	5431	1098.844733246212	0
0	5435	1099.196038629058	1
0	5438	1100.455820936023	0
0	5451	1102.54703720492	1
0	5453	1102.798288035441	2
0	5457	1103.526280623043	3
0	5459	1103.667840234996	4
0	5460	1104.499503396773	3
0	5466	1106.29475946372	2
0	5471	1106.823928754813	1
0	5477	1106.905723590889	2
0	5481	1108.100079039682	3
0	5484	1108.675479406846	2
0	5489	1109.230600382522	1
0	5493	1109.382556512132	2
0	5499	1111.950379168552	3
0	5503	1112.993307128543	4
0	5505	1113.509828229141	5
0	5506	1113.866536882306	4
0	5512	1114.257859618386	5
0	5515	1115.235415976712	4
0	5521	1116.069541924903	5
0	5524	1116.307021335309	4
0	5530	1117.888773509346	5
0	5534	1119.998707169632	4
0	5539	1120.73775711793	3
0	5543	1121.954961019585	4
0	5547	1123.341759039105	5
0	5548	1123.373911370273	4
0	5552	1123.461261107224	5
0	5561	1126.05983987655	4
0	5566	1126.330691332492	3
0	5574	1126.663170224341	4
0	5576	1128.318343572572	3
0	5583	1130.145235850002	2
0	5587	1131.347520345249	3
0	5590	1132.036997702018	2
0	5595	1132.102593686888	1
0	5600	1132.938212387809	0
0	5617	1135.997921304308	1
0	5618	1136.439610324873	0
0	5624	1136.786318307971	1
0	5625	1137.50335909254	0
0	5635	1137.869535412672	1
0	5637	1137.876869101699	2
0	5639	1138.057034541073	3
0	5640	1138.126677844995	2
0	5647	1139.006753210967	1
0	5652	1139.924227026211	0
0	5656	1140.887420250692	1
0	5660	1142.484999628195	0
0	5699	1146.296093030166	1
0	5702	1146.627615704046	0
0	5724	1150.765119544093	1
0	5727	1151.712732883463	0
0	5742	1156.564878775036	1
0	5748	1157.962215887987	2
0	5751	1158.327024211985	3
0	5752	1158.494184846355	2
0	5758	1158.532680068235	3
0	5759	1158.636056763448	2
0	5765	1159.150418401455	1
0	5775	1160.818268682316	0
0	5781	1161.164121363538	1
0	5782	1161.165165618719	0
0	5794	1161.982702077163	1
0	5797	1163.817970623395	2
0	5802	1164.921214574758	1
0	5807	1165.706018598373	0
0	5832	1169.1033061391	1
0	5833	1169.259307362105	0
0	5840	1170.434806118057	1
0	5841	1170.757769906	0
0	5847	1170.841922576035	1
0	5849	1171.357252630853	0
0	5856	1172.413376788382	1
0	5858	1172.517762117835	2
0	5859	1172.920520257279	1
0	5864	1173.206488891641	0
0	5875	1175.936225303674	1
0	5878	1176.319102779403	0
0	5884	1176.779021316424	1
0	5888	1177.883691247977	2
0	5890	1178.439426201371	3
0	5891	1178.901554803887	2
0	5899	1180.32375785496	1
0	5905	1180.635557662875	2
0	5907	1181.458595160585	1
0	5914	1182.313372829277	0
0	5932	1185.655012727667	1
0	5934	1186.674788779432	2
0	5937	1187.291525298144	1
0	5942	1187.523213926276	0
0	5966	1191.871084783156	1
0	5969	1192.307758198603	0
0	5982	1194.973424447405	1
0	5984	1195.703928184484	0
0	5999	1198.400376367187	1
0	6001	1199.106950789514	2
0	6002	1199.132275673222	1
0	6007	1199.857814763174	0
0	6023	1200.75427868334	1
0	6025	1200.802353087146	2
0	6027	1202.158263716394	1
0	6033	1202.384486380681	2
0	6040	1205.247544711733	1
0	6045	1205.361197799711	0
0	6051	1205.421467914239	1
0	6053	1205.683062941426	0
0	6057	1205.737109614335	1
0	6063	1208.886484785337	2
0	6064	1209.447168486379	1
0	6069	1213.238414119269	0
0	6073	1215.083592439181	1
0	6076	1215.842684495936	0
0	6080	1216.223212406774	1
0	6087	1218.765482167376	0
0	6110	1220.831962999168	1
0	6116	1222.521253423282	0
0	6122	1222.859439760725	1
0	6123	1223.393474954833	0
0	6129	1224.3141034458	1
0	6131	1224.326848650407	2
0	6133	1225.687124432403	3
0	6136	1226.791514076867	2
0	6140	1228.046482178625	3
0	6144	1229.82272683666	4
0	6146	1230.503279017672	5
0	6148	1231.057772350627	4
0	6153	1231.930451098817	3
0	6157	1231.954680984384	4
0	6160	1232.981663276113	3
0	6165	1233.295854982927	2
0	6170	1234.089013179075	1
0	6174	1234.291022272263	2
0	6177	1234.575333794612	1
0	6182	1234.844371114765	0
0	6190	1236.561976491218	1
0	6192	1236.873139613	2
0	6194	1237.196167680913	1
0	6201	1238.148015968852	0
0	6212	1239.157652849067	1
0	6213	1239.377736918678	0
0	6225	1242.127492231115	1
0	6227	1242.280883758448	0
0	6233	1242.456077401667	1
0	6234	1242.770667837362	0
0	6238	1243.233697854008	1
0	6240	1243.539427063896	2
0	6245	1244.387672243958	1
0	6250	1244.530888872795	0
0	6266	1248.592045901615	1
0	6269	1250.113146038687	2
0	6270	1250.178488321761	1
0	6275	1250.285673523621	0
0	6282	1250.874854791511	1
0	6284	1251.22072802805	2
0	6286	1251.400895621831	3
0	6287	1251.421153642915	2
0	6292	1251.64784844418	1
0	6297	1253.148202283486	0
0	6314	1255.375952835637	1
0	6317	1255.722414859216	0
0	6321	1255.799814795257	1
0	6327	1256.598823139721	2
0	6329	1256.637617613308	3
0	6334	1258.205358699025	2
0	6339	1259.017349875274	1
0	6345	1259.620672642768	2
0	6347	1259.892110585967	3
0	6349	1260.31464816569	2
0	6355	1261.00072303439	1
0	6360	1263.114281854732	0
0	6364	1264.418874829282	1
0	6369	1268.439258668564	2
0	6370	1270.470384568953	1
0	6379	1272.507919461818	0
0	6405	1276.120568945462	1
0	6406	1276.844115624038	0
0	6431	1283.570454908971	1
0	6432	1285.259682294751	0
0	6450	1287.348755176816	1
0	6452	1288.345950286756	2
0	6453	1288.412524373615	1
0	6459	1289.278883980481	0
0	6473	1292.492432439632	1
0	6475	1292.875058176072	2
0	6476	1293.857008722893	1
0	6484	1294.789860492563	2
0	6485	1295.322242110992	1
0	6490	1295.340166818878	0
0	6529	1304.635046700437	1
0	6534	1305.189840479584	0
0	6540	1305.386602725471	1
0	6542	1307.081568285372	0
0	6548	1307.370442108842	1
0	6551	1308.181420384948	0
0	6562	1309.829444580921	1
0	6567	1313.540469366894	0
0	6578	1314.419374515729	1
0	6581	1317.936949718754	0
0	6635	1328.843719109102	1
0	6641	1330.465057951101	2
0	6643	1330.687095433025	3
0	6644	1330.863146001822	2
0	6649	1331.371472519283	1
0	6655	1332.082221050019	2
0	6659	1332.520708034438	1
0	6667	1333.517777014445	0
0	6681	1335.165529508099	1
0	6685	1335.984482385655	0
0	6695	1337.913247405612	1
0	6696	1337.913277191529	0
0	6703	1338.407802171415	1
0	6704	1340.556766733169	0
0	6727	1342.645139453801	1
0	6731	1343.895221482272	0
0	6737	1344.094700393385	1
0	6741	1344.511430108987	0
0	6750	1344.686377260572	1
0	6751	1344.955014590891	0
0	6757	1345.307401750481	1
0	6762	1346.166131682664	2
0	6763	1346.204858201078	1
0	6768	1346.342358011305	0
0	6774	1347.736790946901	1
0	6776	1348.071265623335	2
0	6777	1348.202546163776	1
0	6781	1348.561666328675	2
0	6785	1350.679294423237	1
0	6790	1351.145197484287	0
0	6794	1352.54769086134	1
0	6796	1352.701052858802	2
0	6799	1353.663135799748	1
0	6804	1354.923376321401	0
0	6808	1355.052353281972	1
0	6815	1357.215137495195	0
0	6838	1359.432397204452	1
0	6840	1361.116413029018	0
0	6849	1361.440398611857	1
0	6851	1362.061486696131	0
0	6865	1363.021377789985	1
0	6867	1364.032458759971	2
0	6870	1368.914703725496	1
0	6876	1369.860657972784	0
0	6890	1371.380222610668	1
0	6892	1371.830143369725	2
0	6899	1374.870496145087	1
0	6904	1376.274509067591	0
0	6916	1377.872032355142	1
0	6919	1378.599715159151	0
0	6925	1378.60240042856	1
0	6926	1378.958811590816	0
0	6942	1379.138882162154	1
0	6947	1380.405399378197	0
0	6960	1382.720443863497	1
0	6963	1385.444000577928	0
0	6977	1386.760140550961	1
0	6979	1387.056969587081	2
0	6981	1389.947477445059	3
0	6983	1390.127741585464	4
0	6985	1390.676637563149	5
0	6989	1391.996585104245	6
0	6991	1392.272275510102	7
0	6993	1392.890288359367	8
0	6995	1394.291928922325	9
0	6999	1394.910977183441	10
0	7003	1395.122838215794	11
0	7006	1396.166145132298	12
0	7008	1396.779505295846	13
0	7010	1396.814819963385	14
0	7012	1397.615963752732	15
0	7013	1397.897589569454	14
0	7020	1398.903219439284	13
0	7025	1399.104765781681	12
0	7030	1399.559247535985	11
0	7037	1400.363845812832	10
0	7042	1400.690170013214	9
0	7046	1401.290359865113	10
0	7058	1405.645984302306	11
0	7061	1405.89083678022	10
0	7067	1406.187575644393	9
0	7072	1406.497600154572	8
0	7077	1406.890590833062	7
0	7083	1407.375959590555	8
0	7086	1408.87265481773	7
0	7092	1409.175173306544	8
0	7093	1409.493753276478	7
0	7099	1410.819370297244	6
0	7104	1410.970347855754	5
0	7110	1411.323634592386	6
0	7112	1411.815153513459	5
0	7118	1412.118566536558	6
0	7119	1413.025455009243	5
0	7126	1414.730631739669	4
0	7136	1416.168257871689	5
0	7138	1416.542900862309	6
0	7141	1417.69453398087	5
0	7146	1418.044662929274	4
0	7151	1419.080962683956	3
0	7156	1420.302194691132	2
0	7163	1421.328617304934	1
0	7169	1422.132271257393	0
0	7198	1424.901537618344	1
0	7199	1425.483942115647	0
0	7205	1426.087148555418	1
0	7206	1426.157066600503	0
0	7212	1427.497538417152	1
0	7214	1428.027361988772	2
0	7219	1429.335245072607	1
0	7224	1429.346989757931	0
0	7235	1431.741824650513	1
0	7237	1431.765023117886	2
0	7239	1433.284154337891	1
0	7244	1433.753429156551	0
0	7266	1437.806106350747	1
0	7269	1438.005194338135	0
0	7287	1439.856053735399	1
0	7289	1440.687084821835	2
0	7292	1442.378621508088	1
0	7301	1443.860105896563	2
0	7303	1444.199401154447	1
0	7309	1444.428035289303	2
0	7313	1444.855161877389	3
0	7314	1445.375143395571	2
0	7319	1446.708824927819	1
0	7325	1448.032278394046	0
0	7356	1451.981564794156	1
0	7359	1453.390723056332	0
0	7369	1454.263415087794	1
0	7371	1455.369120440078	2
0	7373	1455.482541561135	3
0	7381	1456.728043164425	4
0	7383	1457.306477408776	5
0	7385	1457.579068403077	6
0	7389	1457.796146287861	7
0	7391	1458.410163936515	8
0	7393	1460.268216791861	9
0	7396	1460.383090161664	8
0	7404	1461.975428199982	9
0	7408	1463.059748289155	10
0	7409	1463.355474623216	9
0	7415	1463.374664506222	10
0	7418	1463.704949487944	11
0	7419	1464.266262429599	10
0	7426	1464.721878101871	9
0	7430	1464.961454824968	10
0	7435	1466.390632140797	9
0	7441	1466.991407173316	8
0	7446	1467.196806068218	7
0	7451	1468.606802664411	6
0	7456	1468.733659007124	5
0	7463	1469.875488823657	4
0	7471	1471.890459528609	3
0	7480	1473.270822685636	2
0	7485	1473.629535697869	1
0	7490	1474.012880859896	0
0	7518	1479.186471333069	1
0	7519	1479.444364715913	0
0	7526	1479.958403584057	1
0	7528	1480.088475995381	2
0	7529	1480.404247490571	1
0	7534	1480.498294454717	0
0	7546	1483.697195451215	1
0	7548	1483.774369453199	2
0	7550	1484.628084779318	1
0	7560	1485.633635964244	2
0	7563	1486.338233544553	1
0	7568	1486.46622526424	0
0	7608	1491.969862165611	1
0	7612	1492.541551267889	2
0	7613	1492.544755742426	1
0	7619	1492.886780028647	0
0	7637	1494.434971894364	1
0	7641	1494.816737560338	0
0	7662	1498.423573333166	1
0	7668	1499.039061165016	2
0	7672	1500.64066407824	1
0	7678	1500.727382532433	0
0	7696	1502.032463943416	1
0	7698	1502.284165593875	0
0	7716	1505.194816349132	1
0	7719	1505.607555728785	0
0	7725	1505.841642587496	1
0	7727	1506.029686463144	2
0	7729	1507.631109787729	1
0	7734	1507.668105896172	0
0	7740	1508.044693734946	1
0	7744	1509.573277407526	0
0	7763	1513.393821443691	1
0	7765	1514.2843662803	2
0	7767	1514.294561786634	3
0	7769	1514.438932375172	4
0	7771	1514.832348724045	5
0	7772	1515.233601206379	4
0	7777	1515.559306022646	3
0	7783	1515.842595547061	2
0	7791	1516.936386582047	3
0	7792	1517.150636694934	2
0	7799	1517.947112350363	3
0	7800	1518.069580819087	2
0	7805	1518.395838443579	1
0	7809	1519.052121756382	2
0	7812	1520.970874752692	1
0	7819	1522.432131401825	2
0	7821	1523.50899865119	1
0	7826	1523.798445601013	0
0	7855	1526.44018618863	1
0	7856	1526.735325411487	0
0	7868	1529.720051468096	1
0	7870	1530.720765651985	0
0	7885	1532.495536876699	1
0	7886	1532.973212079265	0
0	7893	1533.791396225288	1
0	7895	1534.175597929686	2
0	7896	1534.243354180192	1
0	7901	1534.484429591857	0
0	7913	1537.118146825749	1
0	7915	1537.382814622695	0
0	7921	1538.097763535988	1
0	7926	1539.561611926558	0
0	7932	1540.845952571169	1
0	7934	1541.810414702567	2
0	7935	1542.073419812075	1
0	7943	1543.481951099669	0
0	7958	1545.659177149502	1
0	7960	1545.714860449484	2
0	7962	1546.00727514409	3
0	7964	1546.516889326962	4
0	7965	1547.70039286399	3
0	7971	1547.798267522496	4
0	7972	1548.164024056201	3
0	7978	1548.317630170101	4
0	7983	1548.851475011478	5
0	7985	1549.075369875389	6
0	7987	1549.117599185398	7
0	7988	1549.493502932995	6
0	7993	1549.557902931054	5
0	7998	1550.678012781947	4
0	8008	1553.5139579356	3
0	8013	1554.298183007341	2
0	8017	1555.741092114211	3
0	8023	1557.616754279185	4
0	8024	1558.127438005279	3
0	8029	1561.946615100671	2
0	8035	1562.592103216724	1
0	8042	1563.534103442397	2
0	8044	1563.839145459165	3
0	8045	1564.628911480793	2
0	8050	1564.64713318217	1
0	8054	1564.796306666128	2
0	8059	1567.710744983252	1
0	8063	1567.981780768863	2
0	8067	1570.719804608347	3
0	8069	1571.025534901754	4
0	8070	1571.053339241474	3
0	8074	1571.173844540883	4
0	8077	1572.141439530659	3
0	8081	1573.385743263241	4
0	8085	1573.825864267342	5
0	8087	1573.843876179008	6
0	8088	1574.040173584044	5
0	8094	1575.36380608666	4
0	8099	1575.380684725164	3
0	8108	1578.014677181372	4
0	8109	1578.758738474703	3
0	8114	1578.809687649723	2
0	8118	1580.098326114815	3
0	8120	1580.5157442223	4
0	8123	1581.211849894328	3
0	8128	1583.734907666928	2
0	8134	1584.346391682062	3
0	8136	1584.553822752316	4
0	8137	1584.565970873852	3
0	8141	1585.396059141882	4
0	8145	1586.215195786556	5
0	8147	1586.257911075611	6
0	8149	1586.266634189594	7
0	8150	1586.521297973903	6
0	8157	1586.866783300192	5
0	8163	1587.100866375224	6
0	8164	1587.455960549769	5
0	8170	1588.573781539209	6
0	8174	1589.381277585028	7
0	8178	1589.712112330239	8
0	8179	1591.287202261748	7
0	8184	1592.792294947618	6
0	8192	1593.803034994818	7
0	8193	1594.790792606044	6
0	8199	1596.066593889728	7
0	8202	1597.738063617993	6
0	8208	1598.448841066337	7
0	8209	1598.648379826771	6
0	8217	1599.877456259854	7
0	8219	1600.715008090837	8
0	8221	1600.764149160506	9
0	8224	1601.048639641838	8
0	8229	1601.863829162332	7
0	8236	1604.559977790858	6
0	8241	1605.258916653054	5
0	8245	1605.868280001551	6
0	8249	1606.748539766794	7
0	8255	1608.273295079747	6
0	8263	1609.369472820293	7
0	8265	1609.424257930274	8
0	8266	1609.497052815067	7
0	8271	1610.003718725311	6
0	8276	1610.786406715236	5
0	8281	1611.662616265592	4
0	8286	1611.929139411868	3
0	8293	1613.226284862234	2
0	8301	1613.94597924754	1
0	8307	1614.795325723436	2
0	8310	1616.114062668527	1
0	8316	1616.760510553511	0
0	8365	1622.025949111888	1
0	8368	1623.302339558387	0
0	8380	1624.329342378767	1
0	8383	1624.576260048548	0
0	8392	1624.776845120088	1
0	8398	1627.018695945218	2
0	8400	1627.102971417023	3
0	8401	1627.599170283348	2
0	8406	1627.70020402769	1
0	8413	1630.932975589822	0
0	8417	1631.353417071067	1
0	8420	1631.957892304618	0
0	8424	1632.202395249722	1
0	8427	1632.517504070303	0
0	8442	1633.580149719805	1
0	8445	1633.865209694365	0
0	8461	1636.904897019254	1
0	8468	1638.614263050047	0
0	8483	1640.661453346622	1
0	8489	1642.212559552555	0
0	8498	1644.680233373649	1
0	8500	1645.606210629773	2
0	8505	1646.768803985011	3
0	8507	1647.634236004549	4
0	8508	1647.800150464572	3
0	8513	1647.935081180915	2
0	8519	1648.489157694785	1
0	8524	1649.621232305955	0
0	8528	1649.811336003098	1
0	8532	1653.674434835292	2
0	8534	1654.129703507729	1
0	8542	1656.336500743795	2
0	8545	1658.220025022699	1
0	8551	1661.75126189488	0
0	8587	1668.402053801063	1
0	8594	1671.834809468271	0
0	8602	1672.208705742995	1
0	8603	1672.89441201266	0
0	8611	1674.625124221754	1
0	8612	1674.695273133054	0
0	8626	1676.463858923208	1
0	8628	1676.580271668645	2
0	8631	1676.707730453851	1
0	8638	1677.537231312127	2
0	8641	1678.145925743024	3
0	8642	1678.292589595304	2
0	8647	1678.829730433893	1
0	8652	1683.184571029365	0
0	8663	1683.295696045906	1
0	8665	1683.750253531778	0
0	8673	1684.19012225638	1
0	8677	1684.742634662455	2
0	8678	1684.746277680772	1
0	8683	1684.798783535746	0
0	8691	1685.937211914833	1
0	8695	1686.904877892731	2
0	8696	1687.052235153177	1
0	8702	1687.249567410671	2
0	8704	1689.056324565006	1
0	8709	1689.504282210995	0
0	8715	1689.818086392046	1
0	8716	1689.833124820879	0
0	8724	1690.878632348962	1
0	8725	1690.950037499458	0
0	8749	1693.860934902324	1
0	8750	1694.501493392006	0
0	8761	1694.848587882522	1
0	8762	1694.979519299606	0
0	8768	1695.653861938026	1
0	8775	1697.521310661394	2
0	8776	1698.543496039389	1
0	8781	1699.087616983975	0
0	8806	1702.976196113259	1
0	8808	1703.255008796499	2
0	8812	1703.744189515979	3
0	8814	1704.073015169486	4
0	8815	1704.271117266375	3
0	8820	1705.429214707989	2
0	8827	1706.902221937535	1
0	8832	1707.042835814825	0
0	8836	1707.916206506372	1
0	8842	1708.768473000983	2
0	8843	1708.878806921471	1
0	8855	1712.157172732583	2
0	8856	1712.565340634548	1
0	8861	1714.304698711934	0
0	8880	1715.938545589708	1
0	8884	1718.114162191882	2
0	8888	1718.550174539192	3
0	8892	1719.299179960706	4
0	8894	1719.637895288456	3
0	8901	1720.420202268823	2
0	8907	1721.025471708471	1
0	8912	1721.048286066067	0
0	8918	1722.474243972311	1
0	8920	1722.803550513792	2
0	8923	1723.254747522425	3
0	8924	1723.650231323005	2
0	8929	1724.340831554332	1
0	8934	1725.496465153066	0
0	8951	1727.723916905613	1
0	8952	1727.892707731637	0
0	8958	1728.168451050755	1
0	8959	1728.183102765775	0
0	8974	1730.841772348379	1
0	8975	1731.18886088221	0
0	8991	1733.595539433795	1
0	8993	1736.233064945033	0
0	9005	1736.689493892776	1
0	9006	1736.817997779855	0
0	9019	1739.23131665858	1
0	9020	1739.270579136159	0
0	9026	1739.849802166328	1
0	9028	1739.897940731865	0
0	9039	1742.574797359205	1
0	9042	1742.750840535345	2
0	9044	1743.834398303328	3
0	9045	1744.854672906888	2
0	9050	1747.91694299804	1
0	9055	1748.492821335398	0
0	9071	1752.466645485762	1
0	9075	1755.394930170526	0
0	9079	1755.581445696498	1
0	9081	1755.631027747705	2
0	9084	1756.430457402082	1
0	9089	1757.909252161069	0
0	9102	1759.689243891349	1
0	9106	1759.988283736369	0
0	9126	1763.918152933162	1
0	9129	1764.403476692539	0
0	9135	1764.578797151322	1
0	9136	1765.722763767416	0
0	9143	1766.493669475451	1
0	9146	1767.020571081442	0
0	9154	1768.11362110591	1
0	9155	1768.69213719043	0
0	9159	1769.334508212132	1
0	9162	1770.004999094567	0
0	9176	1772.708199469404	1
0	9181	1774.751401287897	0
0	9193	1775.460991029737	1
0	9196	1775.881605715447	2
0	9200	1776.625018337825	3
0	9202	1777.756786234069	2
0	9207	1778.106976005265	1
0	9212	1778.766860606493	0
0	9239	1782.996109570152	1
0	9240	1783.102616599722	0
0	9253	1784.276148238448	1
0	9254	1784.486891773734	0
0	9286	1788.80842716191	1
0	9287	1789.21245883161	0
0	9293	1789.859815219447	1
0	9294	1789.985934760518	0
0	9314	1793.075226507477	1
0	9317	1793.529230983719	0
0	9334	1797.638609281818	1
0	9338	1798.700495328412	2
0	9339	1798.996225405855	1
0	9346	1799.383597850443	2
0	9348	1799.428645304995	3
0	9349	1799.456535264998	2
0	9355	1799.894544703192	1
0	9361	1799.896932369894	2
0	9362	1800.034309100126	1
0	9368	1800.123605066337	2
0	9369	1800.580954972812	1
0	9377	1802.618888033569	2
0	9380	1803.322798779903	1
0	9386	1803.4832716724	2
0	9388	1803.665267590159	3
0	9389	1803.839572852055	2
0	9393	1804.254123853216	3
0	9397	1805.52070247773	4
0	9401	1806.42059836287	5
0	9402	1806.475101777192	4
0	9407	1806.875807249192	3
0	9412	1806.948429834034	2
0	9418	1808.412283319783	1
0	9423	1808.823340249308	0
0	9431	1812.252341498932	1
0	9432	1812.625641389213	0
0	9436	1813.519305048321	1
0	9442	1814.489368390243	2
0	9443	1815.015757238814	1
0	9447	1815.107633431714	2
0	9455	1816.039704324694	1
0	9460	1816.164731813802	0
0	9468	1816.64453831332	1
0	9469	1817.044061123421	0
0	9491	1819.161016101598	1
0	9494	1819.621804507796	2
0	9497	1821.020179947968	1
0	9502	1821.84001423584	0
0	9537	1828.243433590471	1
0	9542	1830.306943589237	0
0	9551	1831.651002553604	1
0	9552	1831.715809581436	0
0	9558	1831.82007705235	1
0	9559	1832.488652793987	0
0	9565	1833.163684073031	1
0	9568	1833.9731316372	2
0	9569	1834.201379676207	1
0	9578	1837.202011335784	2
0	9580	1837.520129928057	3
0	9581	1838.507414276015	2
0	9587	1839.056118852729	1
0	9592	1839.357424856368	0
0	9598	1839.899000821494	1
0	9599	1840.288060973895	0
0	9606	1841.049746760977	1
0	9608	1842.291031717235	0
0	9614	1842.702868911746	1
0	9615	1842.712042148568	0
0	9629	1843.220379410369	1
0	9633	1843.535300239931	0
0	9649	1844.398362275142	1
0	9650	1845.383552839375	0
0	9661	1846.253161947887	1
0	9663	1846.648544876758	0
0	9671	1847.84963199203	1
0	9672	1847.904762955441	0
0	9698	1850.489421182067	1
0	9700	1850.578438326033	2
0	9703	1851.221617540791	1
0	9716	1854.699932419113	0
0	9737	1859.225334481269	1
0	9741	1859.820836304202	2
0	9743	1860.018169183442	3
0	9744	1860.741972774722	2
0	9749	1860.762018168978	1
0	9754	1860.905282941983	0
0	9760	1862.630898541689	1
0	9762	1863.670666080628	2
0	9765	1863.949021204545	1
0	9769	1863.995185472499	2
0	9772	1864.423100259016	1
0	9778	1866.410740352276	2
0	9782	1867.384892214937	3
0	9785	1868.095122150208	2
0	9791	1868.879672760703	3
0	9792	1868.95092747017	2
0	9799	1870.947587658817	1
0	9804	1871.672686362557	0
0	9808	1872.561054449867	1
0	9811	1872.850069962969	0
0	9815	1873.913803444594	1
0	9818	1875.277567424812	0
0	9822	1876.057892479787	1
0	9825	1876.270685002382	0
0	9833	1876.70056657878	1
0	9843	1879.664002081874	2
0	9844	1879.766719123628	1
0	9848	1881.13733878048	2
0	9852	1882.70900598416	1
0	9858	1883.542312529344	0
0	9869	1884.621713393126	1
0	9870	1884.646070426178	0
0	9874	1885.179443072146	1
0	9881	1889.906909803463	0
0	9887	1890.872028347408	1
0	9889	1890.907316104343	2
0	9891	1891.66615405544	1
0	9897	1892.34442507643	0
0	9910	1893.324608267535	1
0	9911	1893.470067875247	0
0	9926	1895.097124793715	1
0	9929	1895.882366184677	2
0	9930	1896.03893853848	1
0	9935	1896.172647904887	0
0	9962	1899.696644461303	1
0	9966	1900.797680695064	2
0	9967	1902.249426957856	1
0	9973	1902.682427724796	0
0	9984	1903.116082853034	1
0	9985	1903.13154693833	0
0	10011	1906.568982472728	1
0	10017	1907.317872094313	2
0	10021	1908.157350962809	3
0	10023	1908.282144636034	4
0	10037	1911.694022542835	5
0	10038	1912.400335795388	4
0	10044	1913.193853741455	5
0	10046	1913.269960407483	6
0	10049	1913.561534631322	5
0	10055	1913.665028658885	4
0	10060	1913.685031452853	3
0	10067	1914.927233026252	2
0	10071	1914.975877751598	3
0	10077	1916.24658643936	2
0	10083	1916.579809559263	3
0	10084	1916.661373435602	2
0	10088	1917.297069755831	3
0	10093	1918.852079237933	2
0	10105	1922.709143637528	1
0	10112	1924.231191625238	2
0	10113	1924.789932314147	1
0	10118	1924.800083173461	0
0	10131	1928.461908552381	1
0	10133	1928.747901370247	2
0	10134	1931.840666204356	1
0	10139	1932.283432804146	0
0	10160	1935.745046517718	1
0	10161	1936.075945712694	0
0	10170	1937.570756744198	1
0	10172	1937.599483434889	2
0	10174	1937.862697253277	3
0	10176	1938.028622525906	4
0	10178	1938.120708885819	5
0	10179	1938.640741382344	4
0	10186	1939.471420530642	3
0	10191	1940.227972995511	2
0	10196	1941.25322804018	1
0	10200	1943.963244387781	2
0	10203	1945.149674482015	1
0	10209	1946.515070676273	2
0	10211	1946.666027160789	3
0	10213	1948.589903201403	4
0	10215	1949.058036314405	5
0	10218	1949.295281081873	4
0	10223	1950.413800819029	3
0	10229	1951.693390915099	4
0	10232	1951.947729834822	5
0	10233	1952.569589840787	4
0	10238	1952.833019961183	3
0	10243	1953.202634752485	2
0	10251	1955.012169624611	1
0	10257	1957.139928588857	0
0	10278	1958.116713867042	1
0	10281	1958.592315665116	0
0	10285	1959.104996284892	1
0	10289	1959.733000338593	0
0	10293	1960.267771667366	1
0	10295	1960.407638475254	2
0	10297	1960.531515876341	3
0	10299	1961.490656971014	4
0	10302	1961.7384557617	3
0	10309	1963.050602757441	2
0	10314	1964.250908743252	1
0	10327	1966.257874347786	2
0	10328	1966.61533496696	1
0	10334	1968.274615123994	2
0	10336	1968.574456077733	3
0	10338	1968.707699323312	4
0	10339	1968.846478942156	3
0	10343	1969.166888054986	4
0	10345	1969.344775479097	5
0	10347	1969.65625747353	6
0	10351	1970.327925875963	7
0	10352	1970.391233009061	6
0	10358	1971.786395254296	7
0	10359	1971.943081523457	6
0	10364	1973.655849041902	5
0	10369	1975.121054040154	4
0	10374	1975.544223274953	3
0	10378	1975.883841780509	4
0	10382	1976.320313047547	5
0	10383	1976.59186656147	4
0	10387	1977.449585958719	5
0	10390	1978.26637795475	4
0	10394	1978.569650089395	5
0	10399	1980.134554358587	4
0	10403	1980.385765224495	5
0	10406	1981.149681666862	4
0	10411	1983.432616874376	3
0	10417	1984.894500886944	2
0	10423	1986.337174555112	1
0	10429	1986.970759093187	0
0	10477	1994.877352461315	1
0	10482	1995.397406870456	2
0	10484	1995.702624158477	1
0	10491	1996.861508814857	0
0	10504	1998.798760920227	1
0	10505	1999.735704575923	0
0	10519	2000.181900031098	1
0	10522	2000.732268149035	2
0	10523	2000.917213814663	1
0	10528	2001.017357696585	0
0	10547	2003.389970870743	1
0	10549	2003.496237432646	0
0	10558	2004.409211854429	1
0	10561	2007.050307890317	0
0	10576	2009.960602188019	1
0	10578	2010.08524494026	2
0	10580	2010.37095502211	3
0	10582	2010.631040425778	2
0	10592	2011.5848136588	3
0	10594	2011.729981659082	4
0	10596	2011.847284541186	3
0	10601	2012.087302152498	2
0	10608	2012.446343750086	1
0	10614	2017.346622619501	0
0	10620	2018.541493822083	1
0	10624	2019.444284079325	2
0	10625	2019.921937806708	1
0	10629	2020.119333113627	2
0	10634	2021.315820969259	1
0	10638	2021.692567222954	2
0	10642	2021.995163345901	3
0	10644	2022.763692286541	4
0	10646	2023.199394963025	5
0	10647	2023.238859622228	4
0	10652	2025.275670562713	3
0	10659	2029.709224280665	2
0	10664	2030.274021134839	1
0	10668	2030.676064866028	2
0	10672	2032.932963493117	3
0	10674	2033.406949152451	4
0	10675	2034.23992153464	3
0	10681	2035.648130201087	2
0	10687	2035.724959785672	1
0	10694	2036.462560767646	0
0	10719	2042.886622290669	1
0	10721	2043.293581068575	2
0	10722	2044.541576075266	1
0	10732	2046.352114815243	0
0	10753	2048.196346665716	1
0	10755	2048.284521342744	2
0	10759	2049.029769738061	3
0	10760	2050.673253033683	2
0	10766	2051.534797152642	1
0	10771	2051.686038666389	0
0	10786	2053.481489629411	1
0	10790	2053.919148536561	2
0	10792	2054.263963776143	1
0	10798	2054.751546334392	0
0	10807	2055.873842694471	1
0	10811	2057.784209289458	0
0	10827	2060.50040595538	1
0	10840	2064.64500347086	2
0	10841	2065.042757984868	1
0	10848	2065.806404601812	0
0	10860	2066.63749216841	1
0	10862	2066.713600942019	2
0	10864	2066.714819187207	3
0	10866	2067.3564266518	4
0	10867	2067.37659826054	3
0	10872	2067.456581916026	2
0	10876	2067.996326398811	3
0	10878	2068.397471943636	4
0	10882	2069.010511138827	5
0	10885	2069.690940626057	4
0	10891	2070.234304398059	5
0	10899	2071.610262082941	4
0	10905	2072.584067358337	3
0	10910	2074.5779887484	2
0	10917	2076.474603613599	1
0	10921	2076.624312010707	2
0	10926	2078.642652410501	3
0	10932	2080.778181773619	2
0	10938	2081.202649796977	3
0	10939	2081.856954561577	2
0	10944	2082.017755688739	1
0	10948	2082.12135188871	2
0	10952	2087.072265198494	3
0	10958	2088.391944159927	2
0	10966	2089.163167601323	1
0	10972	2089.408285314168	2
0	10974	2089.643042077194	3
0	10975	2089.680472798942	2
0	10979	2090.210946533357	3
0	10985	2091.74792325216	4
0	10986	2091.856984291232	3
0	10992	2092.711435733898	4
0	10998	2093.520433328355	5
0	11001	2095.471201000274	4
0	11006	2096.041417604617	3
0	11012	2097.001705260601	4
0	11016	2098.957771799634	5
0	11019	2101.327580227162	4
0	11023	2101.567321755753	5
0	11025	2105.796951160524	6
0	11028	2106.311755893072	5
0	11034	2107.850302479297	6
0	11035	2108.004651260044	5
0	11040	2108.090512471739	4
0	11044	2109.40015667281	5
0	11046	2110.279435300826	6
0	11049	2111.247608223566	5
0	11054	2112.094784948168	4
0	11059	2112.447344781433	3
0	11064	2112.624081536828	2
0	11070	2114.162087139486	1
0	11076	2114.542986639962	2
0	11079	2115.884088167272	1
0	11084	2116.410790845906	0
0	11092	2117.40110707439	1
0	11094	2117.663344888669	2
0	11096	2118.501593440561	3
0	11101	2120.225743586303	2
0	11108	2122.140871962138	1
0	11115	2123.180145415749	0
0	11124	2126.204318706279	1
0	11126	2126.704300913063	2
0	11127	2126.81268632769	1
0	11134	2127.621348096807	0
0	11152	2129.693924771703	1
0	11156	2130.033524569848	0
0	11176	2131.73409420674	1
0	11177	2132.399899368328	0
0	11190	2133.404758815208	1
0	11191	2134.207728372574	0
0	11198	2134.327137675855	1
0	11200	2134.364822332116	2
0	11201	2134.460312345706	1
0	11207	2134.658661687275	0
0	11214	2135.239063906608	1
0	11216	2135.960937259234	2
0	11218	2136.164862014073	3
0	11220	2136.265727670749	4
0	11222	2137.916943441947	5
0	11223	2137.975599356168	4
0	11227	2138.052382223314	5
0	11229	2138.789187821207	6
0	11232	2141.915342836326	5
0	11236	2142.00956578422	6
0	11240	2146.482620766409	7
0	11242	2147.464356795353	8
0	11247	2150.365074237227	7
0	11252	2153.393009832	6
0	11259	2156.571296853185	5
0	11263	2156.771207748516	6
0	11266	2158.007425375162	5
0	11273	2159.214371539058	4
0	11279	2159.415171887253	3
0	11289	2160.079971943913	4
0	11295	2162.659876929537	5
0	11297	2162.8617310706	6
0	11298	2162.940583422687	5
0	11306	2163.740041142804	4
0	11311	2163.95250884215	3
0	11315	2164.463150483151	4
0	11319	2164.764501765213	5
0	11320	2164.940115993884	4
0	11326	2165.890579683608	3
0	11332	2166.322753785441	2
0	11339	2167.428267415534	3
0	11341	2167.814180975939	4
0	11342	2169.309059231152	3
0	11348	2169.919012359151	4
0	11349	2169.925101794342	3
0	11353	2171.654375281042	4
0	11359	2172.081145628055	5
0	11363	2173.264423986763	6
0	11364	2173.430287203258	5
0	11370	2174.292005391534	6
0	11373	2174.784862195362	5
0	11378	2177.16843926414	4
0	11382	2177.461160263257	5
0	11386	2178.428066716713	4
0	11393	2179.084526525927	3
0	11400	2181.623213385284	2
0	11404	2183.1945382347	3
0	11407	2184.107125732511	2
0	11414	2185.002112930231	1
0	11425	2188.216217941495	0
0	11451	2188.862442085245	1
0	11455	2190.210483296307	2
0	11458	2190.851078233432	1
0	11464	2191.171371045219	0
0	11492	2198.993282980529	1
0	11495	2200.4494944329	0
0	11512	2203.418472430442	1
0	11520	2204.868571287954	0
0	11534	2205.554601939154	1
0	11535	2205.713507614701	0
0	11541	2206.653984475978	1
0	11543	2206.971843874293	2
0	11544	2207.843717099678	1
0	11549	2209.288513679606	0
0	11562	2211.509979216019	1
0	11563	2211.872974374949	0
0	11581	2213.252646509029	1
0	11583	2213.70803259501	0
0	11596	2216.234893443623	1
0	11601	2218.255080861515	2
0	11603	2218.572748976161	3
0	11605	2218.640781047419	4
0	11606	2219.073540015694	3
0	11611	2219.309424870613	2
0	11616	2219.67743771196	1
0	11622	2221.053829900086	0
0	11667	2227.317840414765	1
0	11668	2227.369807651472	0
0	11688	2230.543708333724	1
0	11691	2230.862652306	2
0	11692	2232.777665737995	1
0	11698	2233.021640847926	2
0	11700	2233.810260278077	1
0	11706	2234.263605824038	0
0	11718	2235.410463566144	1
0	11719	2235.928666289737	0
0	11726	2236.717885344116	1
0	11727	2236.734022181011	0
0	11733	2237.294643213227	1
0	11735	2238.83164333106	0
0	11780	2245.757052120207	1
0	11782	2246.469035284293	0
0	11806	2249.878679986727	1
0	11809	2251.218779456318	0
0	11822	2251.92401184047	1
0	11823	2252.024042636092	0
0	11834	2252.807602157355	1
0	11835	2253.006140014518	0
0	11839	2253.518354258247	1
0	11843	2254.023716041282	0
0	11849	2254.693672632862	1
0	11853	2256.138950533163	0
0	11860	2256.479215627285	1
0	11861	2256.672773507577	0
0	11887	2259.919607441457	1
0	11889	2260.091360786116	2
0	11893	2260.360999423097	3
0	11895	2260.786112275609	2
0	11900	2260.962741969338	1
0	11906	2261.704776429321	0
0	11910	2261.81498675888	1
0	11915	2263.69225309952	2
0	11917	2264.324756236587	1
0	11922	2265.472277123794	0
0	11966	2271.443814804902	1
0	11969	2272.34885340249	2
0	11971	2272.681788281912	3
0	11972	2272.809139508061	2
0	11977	2272.948028306737	1
0	11982	2273.013113728923	0
0	11986	2273.141811985715	1
0	11989	2274.818284639301	0
0	11993	2275.219844876617	1
0	11995	2275.661183749307	2
0	11999	2276.507582725147	3
0	12000	2276.643092934658	2
0	12004	2277.33648634629	3
0	12010	2277.831297722205	2
0	12016	2279.177167901644	1
0	12020	2279.718160617778	2
0	12023	2281.615980158967	1
0	12027	2281.907268515018	2
0	12031	2282.829729324553	1
0	12036	2283.923157366617	0
0	12049	2285.065269651874	1
0	12051	2285.853592845591	0
0	12057	2287.481980949708	1
0	12059	2288.184172869191	2
0	12062	2289.848091851185	1
0	12067	2291.817323625201	0
0	12071	2292.200693893815	1
0	12075	2294.075672132675	2
0	12076	2294.744434806357	1
0	12082	2295.653804364769	0
0	12095	2297.516187386703	1
0	12097	2299.462286900183	2
0	12099	2299.923141248262	3
0	12100	2300.188256654576	2
0	12107	2301.325599456134	1
0	12111	2301.797383698837	2
0	12115	2302.517305717745	3
0	12118	2305.033278513835	2
0	12122	2306.093402071812	3
0	12129	2309.195484455652	2
0	12136	2310.497107635736	1
0	12141	2311.833336276417	0
0	12165	2317.731667666713	1
0	12166	2318.153346210691	0
0	12172	2318.381353966308	1
0	12173	2318.669716879266	0
0	12184	2320.781853385632	1
0	12186	2322.025496454624	2
0	12188	2322.48648994875	3
0	12191	2323.357782459662	2
0	12197	2324.045352938532	3
0	12199	2325.098290774001	2
0	12203	2326.081505166643	3
0	12205	2326.790343315431	4
0	12212	2329.235430609894	3
0	12220	2331.489096648659	2
0	12225	2331.512362545342	1
0	12230	2332.174841469303	0
0	12234	2334.500811256048	1
0	12236	2335.207254031335	2
0	12240	2340.262716158821	3
0	12241	2340.80524011595	2
0	12246	2341.72460715894	1
0	12250	2342.078521765186	2
0	12253	2343.023281907031	1
0	12259	2343.197030023521	2
0	12261	2343.877160825018	3
0	12262	2343.96576671217	2
0	12269	2345.716452051979	1
0	12273	2347.48152445431	2
0	12276	2348.901486226064	1
0	12281	2349.131845691345	0
0	12285	2349.166650132428	1
0	12288	2349.377573669024	0
0	12294	2350.340252042626	1
0	12295	2350.917390817846	0
0	12319	2354.90466893807	1
0	12325	2357.392383576329	0
0	12358	2362.352036860312	1
0	12366	2366.915588259902	2
0	12368	2367.481227965728	3
0	12369	2367.571291133832	2
0	12374	2368.177175155504	1
0	12379	2368.385313093576	0
0	12415	2378.918369640752	1
0	12416	2379.306848041292	0
0	12427	2380.055340997102	1
0	12428	2380.739230748043	0
0	12445	2382.403139332806	1
0	12450	2384.508435013885	0
0	12464	2386.101625099746	1
0	12465	2386.282342207144	0
0	12478	2387.378033799056	1
0	12480	2388.050845408161	0
0	12484	2388.297407649374	1
0	12491	2390.73925289802	2
0	12493	2391.719150463898	3
0	12494	2393.512799022509	2
0	12498	2394.465636410536	3
0	12501	2394.636064453475	2
0	12507	2396.611130922437	3
0	12509	2397.808337297549	4
0	12511	2398.435205373382	5
0	12514	2398.665274262918	4
0	12519	2400.297522637959	3
0	12525	2400.470388492477	4
0	12527	2400.490407748982	5
0	12529	2400.793635691989	4
0	12536	2401.706427374345	3
0	12541	2403.367886597062	2
0	12545	2403.5125268128	3
0	12548	2404.156974031491	2
0	12552	2404.360215632725	3
0	12561	2407.586952822113	4
0	12562	2407.69014755087	3
0	12567	2408.912516216849	2
0	12573	2410.98282296248	3
0	12579	2411.838647116298	4
0	12580	2412.020478688394	3
0	12586	2412.539323222811	4
0	12588	2413.115124980114	5
0	12591	2415.649868112634	4
0	12597	2416.617669319115	3
0	12602	2417.517463653414	2
0	12606	2417.741853245549	3
0	12608	2417.960848154988	4
0	12610	2419.30582461071	5
0	12614	2422.126002699938	4
0	12622	2422.898967773742	3
0	12628	2423.181036431284	4
0	12629	2424.053936743356	3
0	12635	2424.671723744491	4
0	12637	2424.831083787936	3
0	12644	2427.850979063927	2
0	12650	2427.888942206849	3
0	12652	2428.133624718286	4
0	12654	2428.875633856697	5
0	12656	2430.068867748737	6
0	12659	2430.738427118106	5
0	12664	2431.506237705244	4
0	12669	2432.47075415237	3
0	12676	2433.679810913463	2
0	12680	2433.814475842735	3
0	12683	2434.96114006504	2
0	12687	2435.174495246088	3
0	12692	2436.106369625324	2
0	12698	2438.51693440067	3
0	12700	2438.830178071555	4
0	12703	2439.356289156431	3
0	12708	2439.826297016938	2
0	12718	2440.901904575656	1
0	12723	2441.810006111493	0
0	12741	2444.545539202185	1
0	12743	2445.712964969025	0
0	12754	2446.533363193123	1
0	12755	2446.886768047718	0
0	12793	2452.993245957007	1
0	12799	2456.148687716649	2
0	12800	2457.052562038974	1
0	12806	2458.066527050881	2
0	12807	2458.398438422389	1
0	12811	2458.545113742067	2
0	12814	2459.153186913488	1
0	12818	2460.712650029643	2
0	12820	2461.312951766284	3
0	12824	2461.506944239537	4
0	12825	2461.536762552839	3
0	12830	2461.718008202794	2
0	12834	2461.776458116316	3
0	12840	2462.369919055694	4
0	12843	2462.866762772602	3
0	12849	2463.691194446996	4
0	12850	2464.001701436596	3
0	12854	2465.231992868081	4
0	12858	2467.121931296729	5
0	12859	2467.6145881844	4
0	12867	2469.093047214624	3
0	12872	2469.376809974413	2
0	12878	2469.988928441483	3
0	12883	2471.105087071408	2
0	12887	2471.535158648403	3
0	12892	2473.451927282832	2
0	12897	2473.738805267944	1
0	12903	2474.199432455342	0
0	12909	2474.499712836628	1
0	12911	2474.620130483458	0
0	12917	2475.062366039531	1
0	12922	2477.050752546976	0
0	12931	2477.64815137021	1
0	12932	2477.778233213266	0
0	12962	2480.620986296097	1
0	12964	2481.415536662433	2
0	12968	2482.314172860973	3
0	12970	2482.715610408556	4
0	12972	2483.650324075681	3
0	12978	2483.890803946795	2
0	12983	2484.044986640902	1
0	12989	2484.922390461564	0
0	12995	2485.159676404432	1
0	12996	2485.415702816614	0
0	13000	2485.777394216578	1
0	13004	2486.782717232488	0
0	13015	2487.653726274671	1
0	13017	2487.775775035428	2
0	13018	2487.850171236172	1
0	13026	2489.67713906637	0
0	13038	2490.741966644921	1
0	13040	2493.250492672842	2
0	13041	2495.525042127659	1
0	13047	2496.016010164551	0
0	13073	2499.467699802943	1
0	13076	2502.502124764105	2
0	13077	2503.453294255504	1
0	13083	2503.507994846139	2
0	13085	2504.028796118473	3
0	13087	2504.448228159496	4
0	13088	2504.735798931357	3
0	13097	2505.648802586419	4
0	13098	2506.215037946418	3
0	13103	2507.232551842121	2
0	13109	2508.671768665472	3
0	13112	2509.72455505474	2
0	13123	2510.934512586036	1
0	13131	2512.243364309701	0
0	13159	2516.032606563654	1
0	13161	2516.237927513574	2
0	13166	2516.574519766134	1
0	13172	2517.212056357924	0
0	13189	2519.048844421484	1
0	13195	2520.318259684976	2
0	13196	2520.612926606157	1
0	13201	2521.222602259774	0
0	13214	2523.077377218562	1
0	13216	2523.510421571143	0
0	13236	2525.928985449104	1
0	13238	2526.480237776717	2
0	13240	2527.820277294112	3
0	13246	2530.038969077637	4
0	13248	2530.594947641165	3
0	13255	2530.956514822118	4
0	13256	2531.919685698399	3
0	13261	2533.294671691301	2
0	13267	2534.335743904658	3
0	13268	2534.46510835662	2
0	13272	2535.287369153306	3
0	13278	2538.204691324089	4
0	13280	2538.350665420015	5
0	13284	2539.384914258276	6
0	13286	2540.337061843817	7
0	13289	2541.958803256998	6
0	13294	2543.160678844504	5
0	13300	2544.225753198119	4
0	13306	2544.512899575386	5
0	13307	2544.53872212098	4
0	13313	2545.47908409303	5
0	13315	2545.586451058658	6
0	13316	2548.30143509641	5
0	13323	2549.622256784975	4
0	13330	2550.469294426552	5
0	13331	2550.63185590273	4
0	13338	2551.30225576557	3
0	13342	2551.757450816243	4
0	13345	2552.591607601255	3
0	13350	2554.628029527307	2
0	13354	2554.644875658837	3
0	13356	2555.342663776488	4
0	13360	2556.240525860726	5
0	13361	2556.309173441813	4
0	13367	2557.329808645379	3
0	13372	2557.710998795999	2
0	13376	2560.031556131193	3
0	13379	2560.257008840464	2
0	13385	2560.33124534522	3
0	13386	2560.442258282017	2
0	13390	2560.733145477448	3
0	13392	2562.388995988945	4
0	13396	2562.975201644911	5
0	13398	2564.090955999128	6
0	13400	2564.184643891189	7
0	13405	2565.751812716269	6
0	13409	2566.042717398129	7
0	13415	2568.349893403524	6
0	13421	2568.52653283039	7
0	13423	2570.100054392882	8
0	13427	2574.766600650642	9
0	13428	2576.277947292915	8
0	13433	2577.066915954709	7
0	13439	2579.252039396231	6
0	13445	2579.410464865419	5
0	13450	2579.597597267181	4
0	13456	2581.316763203694	5
0	13457	2581.697455530581	4
0	13463	2584.016994744563	3
0	13469	2584.845117850292	2
0	13475	2584.918160186039	3
0	13476	2585.237469428341	2
0	13482	2588.211189584474	1
0	13489	2588.677953264048	0
0	13493	2589.232013435069	1
0	13495	2590.751952088617	2
0	13499	2594.225590650063	3
0	13500	2594.523114754715	2
0	13505	2595.615247040845	1
0	13510	2596.215689301756	0
0	13530	2602.728785923599	1
0	13532	2602.872226723577	2
0	13533	2602.928919351995	1
0	13541	2603.884744357093	2
0	13545	2604.724082585177	1
0	13552	2606.115506141308	2
0	13554	2606.59524778753	3
0	13556	2606.632034040213	4
0	13557	2606.873630126174	3
0	13564	2608.680677574	2
0	13569	2608.750546858169	1
0	13576	2609.403731977594	0
0	13582	2610.884206203521	1
0	13585	2611.251155790031	0
0	13609	2616.261192869955	1
0	13611	2617.138313074092	0
0	13620	2617.460490705273	1
0	13622	2618.341257071018	2
0	13624	2618.44750010521	3
0	13630	2621.064594177883	2
0	13635	2621.089617765534	1
0	13641	2621.32629964645	2
0	13642	2621.584416057179	1
0	13649	2623.459207177893	2
0	13652	2623.917021573292	3
0	13653	2623.925840287147	2
0	13658	2625.54119061525	1
0	13663	2626.064997431857	0
0	13688	2628.13515040405	1
0	13690	2628.535083853812	2
0	13691	2628.585855978199	1
0	13697	2629.360932310424	0
0	13714	2631.178538993866	1
0	13715	2631.498492462437	0
0	13721	2631.842994475676	1
0	13723	2632.787526154028	2
0	13725	2633.069229584643	1
0	13730	2633.601697888555	0
0	13734	2633.720102788131	1
0	13737	2636.12362104365	0
0	13741	2637.344813524059	1
0	13745	2640.603826068953	2
0	13748	2642.692518490518	1
0	13755	2645.366076804711	0
0	13761	2645.98185437841	1
0	13763	2646.417142622259	2
0	13765	2647.247675745896	3
0	13766	2647.300942267203	2
0	13773	2650.570771915448	1
0	13779	2652.885717303176	0
0	13792	2653.653671999527	1
0	13795	2655.354966587957	0
0	13807	2657.50345857867	1
0	13812	2658.707587247888	0
0	13831	2660.232760070906	1
0	13834	2662.783135975912	0
0	13843	2663.485672126539	1
0	13844	2665.051233047101	0
0	13859	2669.381016820048	1
0	13860	2670.747963085769	0
0	13866	2670.811156803184	1
0	13870	2671.560203428785	0
0	13902	2674.653359013778	1
0	13906	2675.1650776738	2
0	13908	2676.362554058301	1
0	13913	2676.820721582848	0
0	13928	2679.575335640427	1
0	13931	2680.330278906458	2
0	13935	2680.600953101818	1
0	13943	2681.456585187697	0
0	13967	2683.135327780033	1
0	13968	2683.480464512675	0
0	13987	2689.972592692283	1
0	13993	2692.028332594155	2
0	13994	2692.044391622807	1
0	14000	2692.836733758358	0
0	14022	2695.413824213627	1
0	14030	2696.578686060178	2
0	14031	2697.140466959719	1
0	14036	2697.472263789581	0
0	14052	2699.930900139222	1
0	14055	2700.997128457521	0
0	14066	2705.3580196562	1
0	14068	2705.791970816985	0
0	14077	2706.611884867501	1
0	14079	2707.8818438279	2
0	14083	2708.320636512115	3
0	14086	2708.940660849878	4
0	14087	2708.99882038576	3
0	14093	2709.284227354825	2
0	14098	2709.393239212154	1
0	14103	2709.695889168052	0
0	14110	2711.310915079647	1
0	14111	2711.32081556296	0
0	14119	2712.405392440597	1
0	14127	2716.422119030583	2
0	14128	2716.916708820475	1
0	14133	2717.281664935684	0
0	14158	2720.606837292724	1
0	14161	2723.850587916723	0
0	14173	2725.134311311019	1
0	14175	2725.962051357142	0
0	14186	2726.216185487126	1
0	14187	2726.649661074815	0
0	14196	2726.925995669814	1
0	14198	2728.604378449151	2
0	14205	2731.674596299827	3
0	14209	2731.974034431992	4
0	14210	2732.323813504757	3
0	14215	2732.948224072882	2
0	14221	2734.099381359538	3
0	14225	2735.343485385906	4
0	14228	2736.457373676564	3
0	14232	2739.342028135368	4
0	14234	2740.063284374004	5
0	14238	2742.232295995846	4
0	14244	2742.895486753182	5
0	14246	2743.378896729882	4
0	14254	2745.681752583549	3
0	14260	2746.669767835904	2
0	14266	2747.228642144879	1
0	14272	2748.183832334332	2
0	14273	2748.298747551532	1
0	14278	2748.708479377109	0
0	14302	2752.410954361723	1
0	14306	2752.533412359616	2
0	14309	2753.464888906865	1
0	14315	2753.805381400757	0
0	14337	2757.975193047957	1
0	14338	2758.231957041117	0
0	14366	2762.99570318414	1
0	14370	2763.906404089865	2
0	14372	2763.990595780719	3
0	14373	2764.0100428571	2
0	14381	2764.324386115904	1
0	14386	2764.694540664465	0
0	14392	2764.981751573063	1
0	14396	2765.20967296265	0
0	14400	2765.30069997806	1
0	14406	2765.630529528379	2
0	14410	2767.103069487112	1
0	14416	2767.597570439676	0
0	14442	2770.486715648047	1
0	14445	2772.001613029847	0
0	14454	2773.014100219417	1
0	14456	2773.774676022976	2
0	14467	2777.017926305165	1
0	14473	2777.396378145982	0
0	14506	2780.290223125323	1
0	14508	2780.749406417447	2
0	14511	2782.585051677087	1
0	14517	2782.690600432326	2
0	14518	2782.975172544633	1
0	14523	2783.205246453244	0
0	14545	2786.414341322558	1
0	14546	2786.621151985615	0
0	14555	2787.698878385486	1
0	14557	2788.386762692365	2
0	14561	2789.697891670299	3
0	14563	2790.207793476019	4
0	14567	2793.755452821131	3
0	14573	2794.418300768646	2
0	14579	2794.769570770082	3
0	14583	2795.457497790022	4
0	14584	2795.964620642306	3
0	14589	2796.105518341153	2
0	14594	2796.277589741859	1
0	14603	2796.923260600485	0
0	14621	2802.986245046146	1
0	14623	2805.373891173985	0
0	14629	2805.406159009039	1
0	14631	2805.598012292555	2
0	14634	2807.088314260733	3
0	14635	2808.397614953278	2
0	14643	2809.076962002572	1
0	14648	2810.164413447319	0
0	14672	2811.808276092493	1
0	14673	2812.252710740278	0
0	14679	2812.325200255124	1
0	14683	2813.0597289244	2
0	14684	2813.204978438572	1
0	14689	2813.216478913955	0
0	14702	2814.917107899026	1
0	14706	2817.988851281065	0
0	14733	2821.880200854224	1
0	14734	2822.296163425036	0
0	14746	2823.736256106946	1
0	14748	2823.752995130188	2
0	14750	2824.885664067101	3
0	14753	2825.015670190955	2
0	14759	2825.496714718719	3
0	14760	2825.583555186436	2
0	14765	2826.164796578344	1
0	14769	2826.450882661332	2
0	14771	2826.572493564426	3
0	14773	2826.616306781333	4
0	14775	2826.823364771774	5
0	14779	2827.069198145242	6
0	14780	2827.192641723576	5
0	14787	2828.041286735655	4
0	14791	2828.045077274209	5
0	14797	2829.820026615552	4
0	14802	2829.93587410152	3
0	14807	2831.499454184701	2
0	14811	2831.686230315471	3
0	14813	2832.716115243452	4
0	14819	2833.395569969265	5
0	14820	2834.17845736382	4
0	14830	2838.227475234149	3
0	14835	2838.575604153913	2
0	14839	2838.64681258602	3
0	14842	2839.049866884711	2
0	14847	2840.19140328224	1
0	14853	2840.571322673382	2
0	14854	2840.651100713722	1
0	14859	2843.182317511955	0
0	14884	2846.95521939944	1
0	14886	2847.353388820473	2
0	14891	2848.512481957556	1
0	14896	2849.808792508868	0
0	14908	2852.369707520562	1
0	14910	2852.371004944888	2
0	14911	2853.124186468001	1
0	14919	2853.603968163532	0
0	14930	2854.263326223201	1
0	14931	2855.014649199538	0
0	14935	2855.492163685656	1
0	14938	2856.291496801486	0
0	14942	2856.435244215207	1
0	14947	2857.524596325917	0
0	14976	2863.959178176351	1
0	14977	2864.038033899249	0
0	14991	2864.689172419299	1
0	14994	2865.168641908683	0
0	15007	2866.751176586007	1
0	15008	2867.34923721114	0
0	15014	2867.650448103586	1
0	15016	2868.940198312363	0
0	15024	2870.584442742628	1
0	15026	2870.72338546882	2
0	15027	2871.97883230583	1
0	15033	2872.545275310531	0
0	15039	2872.988338622032	1
0	15040	2873.004418616721	0
0	15044	2873.733028707903	1
0	15046	2873.92426749928	2
0	15050	2874.688613890446	3
0	15053	2875.152335015842	2
0	15059	2875.903819451478	3
0	15062	2876.267844818693	2
0	15068	2877.143976634168	3
0	15070	2877.807528636374	2
0	15075	2878.220376857379	1
0	15081	2879.058590875113	2
0	15083	2879.20503818413	3
0	15089	2880.812700051107	4
0	15091	2881.197639273099	5
0	15092	2881.260469483472	4
0	15096	2883.050241489523	5
0	15101	2885.043994544706	4
0	15107	2885.149216456563	5
0	15108	2885.261892231692	4
0	15112	2886.152071152131	5
0	15115	2886.845126325162	4
0	15121	2888.055014942898	5
0	15125	2888.679235675203	6
0	15127	2889.209493034054	7
0	15129	2890.483877835027	8
0	15131	2890.613686155327	9
0	15134	2890.745227115658	8
0	15139	2891.743719463479	7
0	15148	2893.405605221249	6
0	15152	2893.637715446264	7
0	15157	2897.32120229796	6
0	15163	2897.527548070473	7
0	15164	2898.5171744545	6
0	15168	2899.264885919773	7
0	15172	2902.283883019259	6
0	15177	2902.647939134264	5
0	15182	2903.943667481185	4
0	15189	2904.598297204686	3
0	15194	2905.162960722271	2
0	15199	2906.288353595801	1
0	15205	2906.521454818237	2
0	15206	2907.195594179356	1
0	15210	2908.76355200285	2
0	15215	2909.395764880112	1
0	15219	2909.433534723968	2
0	15222	2911.683388253351	1
0	15227	2912.151478087495	0
0	15231	2912.234977865116	1
0	15237	2916.060103794767	2
0	15242	2918.056152313188	1
0	15246	2918.798837455756	2
0	15255	2921.077410465242	1
0	15260	2921.532708021954	0
0	15274	2923.208412952994	1
0	15275	2923.410994893013	0
0	15303	2928.628868371361	1
0	15305	2931.506791158203	2
0	15307	2933.936186890808	3
0	15310	2934.841835114296	2
0	15316	2935.830934886764	1
0	15322	2937.869411857719	2
0	15323	2938.163463801376	1
0	15330	2939.184218051259	0
0	15339	2941.172496113032	1
0	15340	2941.409590741259	0
0	15351	2943.796231225325	1
0	15355	2944.322467811687	2
0	15358	2947.850703526297	1
0	15363	2948.468152667031	0
0	15407	2957.10046536133	1
0	15408	2957.336135007769	0
0	15414	2957.660458323533	1
0	15417	2958.481378370385	0
0	15465	2966.180635036019	1
0	15466	2966.180814821961	0
0	15472	2966.350280513309	1
0	15474	2967.042147187432	0
0	15485	2968.367312680763	1
0	15487	2968.935204022907	0
0	15502	2969.945042775375	1
0	15503	2970.98351573243	0
0	15515	2973.010237606936	1
0	15516	2973.128347810313	0
0	15539	2974.852293978436	1
0	15542	2975.02748838964	0
0	15550	2976.663708619057	1
0	15551	2977.120455938539	0
0	15558	2978.548267662272	1
0	15559	2978.997532610371	0
0	15565	2979.800842279079	1
0	15567	2979.997453633014	2
0	15568	2979.997636288077	1
0	15573	2981.259418410081	0
0	15579	2982.246904181964	1
0	15580	2982.324153525996	0
0	15598	2985.150314248066	1
0	15600	2986.146905741171	0
0	15606	2986.27885987807	1
0	15611	2987.939927882914	0
0	15635	2991.409308066829	1
0	15636	2992.386006214222	0
0	15672	2998.004815612877	1
0	15674	2999.44617680098	0
0	15680	2999.654708475024	1
0	15685	3000.786731374035	0
0	15714	3005.231119088526	1
0	15716	3006.029562934558	2
0	15717	3006.980920909632	1
0	15723	3008.427479091041	0
0	15745	3010.373449725499	1
0	15749	3011.145429485502	2
0	15752	3011.922437389243	1
0	15757	3012.816293349346	0
0	15765	3015.130367249955	1
0	15767	3015.15365045481	2
0	15769	3016.136422837061	1
0	15775	3016.213013044917	2
0	15776	3016.232460603867	1
0	15780	3016.243754493024	2
0	15783	3017.584430451566	1
0	15790	3018.792115595374	2
0	15791	3019.047562051882	1
0	15799	3019.710878969913	2
0	15800	3020.581172628108	1
0	15805	3021.47960338418	0
0	15825	3024.116712774782	1
0	15828	3024.818392471669	0
0	15844	3027.597618561736	1
0	15853	3032.7759783517	2
0	15854	3034.109701199573	1
0	15862	3034.444612722431	2
0	15863	3034.96826971288	1
0	15869	3035.829541866737	0
0	15875	3035.937030726778	1
0	15876	3036.939556340052	0
0	15888	3040.236332901783	1
0	15890	3040.506251013361	0
0	15902	3042.585600950722	1
0	15904	3043.53123554672	0
0	15911	3043.994861760011	1
0	15912	3044.015608559307	0
0	15926	3044.855867089347	1
0	15928	3045.249462282881	0
0	15941	3048.381550652798	1
0	15943	3048.44929899343	2
0	15945	3051.512604512928	3
0	15946	3052.059255618122	2
0	15951	3052.654174159971	1
0	15955	3053.356799442391	2
0	15958	3056.157092600807	1
0	15965	3058.968734442583	0
0	15973	3059.565091280876	1
0	15976	3060.097675314253	0
0	16002	3064.866644486705	1
0	16003	3064.945557672216	0
0	16009	3066.615632976323	1
0	16010	3067.024220478543	0
0	16014	3067.664118962222	1
0	16018	3068.5715848104	2
0	16019	3068.622470778827	1
0	16023	3068.787398293483	2
0	16025	3069.89030117655	3
0	16030	3071.128827498125	2
0	16037	3071.964799996534	1
0	16043	3073.758011014763	2
0	16047	3073.829748447808	3
0	16049	3074.58261043628	2
0	16055	3076.029985053769	3
0	16057	3076.0528063875	4
0	16058	3076.307493598106	3
0	16062	3077.551858096205	4
0	16064	3079.02355859977	5
0	16068	3080.772816392452	6
[...]
4	139420	26805.688483932427	8127.9151282868
4	139532	26822.452583543447	8142.4630143371
4	139543	26823.71068576772	8139.4644305954
4	139550	26824.748118535423	8131.0101171474
4	139557	26825.005259681021	8126.6344509138
4	139567	26825.606445949292	8125.3338530671
4	139575	26826.706047277096	8114.8170551728
4	139582	26827.190994474567	8113.2389709565
4	139619	26834.349831557498	8117.9478233015
4	139625	26834.999760051726	8113.6598979663
4	139634	26835.937329299737	8112.2305084048
4	139650	26838.937331244083	8110.3361593561
4	139692	26846.172375914939	8117.4293807259
4	139699	26846.6392537249	8117.3152530063
4	139704	26846.672543290728	8115.5354663601
4	139712	26848.016512983572	8116.1724162044
4	139726	26850.889388873472	8111.2975187929
4	139731	26851.077151947754	8111.0267320142
4	139736	26852.075709072278	8111.2272266716
4	139747	26854.410545855469	8099.6674828296
4	139767	26861.455478406647	8104.8722956377
4	139782	26863.725114005153	8099.205194761
4	139798	26864.756314881487	8098.9467927756
4	139809	26865.538659622646	8091.4016371185
4	139818	26867.598569469152	8086.7175646162
4	139838	26869.626670912139	8083.8897918111
4	139848	26870.494809081988	8084.2464975296
4	139855	26873.687824760396	8083.5851748769
4	140282	26969.672012208205	8165.5546355697
4	140288	26970.656693605488	8164.4365418476
4	140297	26972.271928963569	8158.2607530985
4	140310	26976.061853437497	8156.8115960494
4	140317	26976.427054412942	8153.0559436318
4	140322	26976.894489953473	8148.9177714114
4	140331	26978.411300023496	8147.239862758
4	140347	26980.431018067716	8138.4068591063
4	140353	26981.132500008628	8138.7056908622
4	140363	26983.769214658454	8141.1298203913
4	140374	26984.561105828848	8137.687761673
4	140383	26987.513807774518	8130.9709976843
4	140400	26991.041449841262	8129.3071914826
4	140521	27011.973366781872	8144.9612720051
4	140526	27012.105426191865	8142.0448639586
4	140531	27012.506907931898	8140.8143491242
4	140540	27014.870610524594	8135.622918999
4	140559	27017.838889166627	8136.7952247547
4	140564	27018.505004203157	8131.8462338345
4	140571	27019.603056808889	8124.1003292663
4	140582	27021.446041778865	8125.5688803779
4	140587	27021.541405048003	8113.4817355424
4	140593	27022.670477061511	8113.7526525456
4	140606	27026.620719120158	8110.8763132107
4	140691	27042.825638536356	8125.2734966378
4	140700	27044.998056753197	8124.2969196718
4	140729	27048.839377847064	8127.657050404
4	140738	27049.35664888428	8125.6269845964
4	140762	27052.990762663943	8117.5033138266
4	140788	27055.90103590121	8118.1899353153
4	140857	27068.680529364561	8129.9677831706
4	140867	27069.206143729781	8124.0582765324
4	140878	27071.32629761258	8116.6883000226
4	140893	27074.294712847793	8115.6181087022
4	140898	27074.508609972549	8109.5119770673
4	140903	27075.15804952938	8109.0725292789
4	140910	27077.77991938236	8100.4888473663
4	140921	27080.442723094437	8099.0412818825
4	140948	27089.668924421597	8100.5381117478
4	140980	27093.552287512997	8100.0277879507
4	141006	27099.560156366569	8103.2648055805
4	141022	27104.283835524083	8105.523197914
4	141067	27110.054584364266	8106.2749279605
4	141072	27110.684850699591	8105.9565488373
4	141080	27113.356132674977	8104.0332403526
4	141097	27117.370792212398	8107.3457986256
4	141121	27120.496139447719	8103.7917936258
4	141211	27139.302028884976	8121.5987371062
4	141224	27140.848517296251	8122.5786139844
4	141229	27141.577806526812	8120.0789506618
4	141236	27142.29666817195	8114.675958741
4	141243	27143.803113797411	8107.3179710146
4	141255	27145.681742095463	8101.0102335615
4	141265	27147.345486726431	8096.9281847257
4	141280	27148.000780214115	8096.6198519826
4	141307	27150.206548736461	8098.3894905837
4	141317	27151.246155295367	8091.9628812296
4	141326	27153.683940183676	8075.1011094014
4	141343	27158.537684176421	8078.6080076701
4	141367	27162.459812187112	8078.4744854709
4	141373	27162.963408021021	8078.6874942485
4	141378	27163.926224545086	8079.4042768903
4	141387	27166.210385809884	8079.1325237378
4	141406	27170.314473105329	8078.7475144389
4	141422	27174.763936080122	8080.6115023144
4	141485	27188.217682442889	8089.7028154352
4	141497	27191.480448312872	8090.5047843847
4	141582	27207.105684784799	8098.4653533923
4	141594	27208.017623043988	8095.5022835096
4	141607	27210.256156128289	8093.8791302864
4	141619	27214.077350286342	8090.8746637081
4	141636	27218.196779947045	8088.7516712247
4	141654	27227.908045723019	8095.7664644077
4	142330	27365.84961700647	8231.9165671134
4	142335	27365.886796678541	8231.1851111554
4	142340	27366.148036379595	8227.9419617942
4	142351	27369.122084032198	8229.725230494
4	142373	27371.826781535767	8230.5266660614
4	142398	27374.618615660712	8221.2010679657
4	142410	27375.282933667791	8214.3421083539
4	142415	27375.992518475956	8212.542729886
4	142429	27379.150099478535	8214.0428410567
4	142444	27380.681300863393	8209.0894159554
4	142452	27381.942472167198	8205.6652871748
4	142476	27387.865754544049	8209.979013611
4	142491	27391.54277472687	8209.4009455711
4	142505	27393.987531485966	8208.7328673954
4	142539	27399.717480683585	8213.9998431556
4	142558	27404.088986511535	8217.9708807506
4	142573	27408.193519121052	8222.0508892777
4	142625	27415.239213462893	8228.7066821835
4	142649	27419.730659514119	8228.9504426128
4	142654	27420.122277171586	8228.5345747881
4	142661	27420.438057224946	8227.8695554195
4	142685	27423.224415095123	8230.5134858999
4	142712	27426.11593685399	8223.2585573917
4	142754	27432.132438295579	8225.8045084099
4	142759	27432.150115688106	8222.1085057849
4	142765	27432.645910749767	8221.2700001311
4	142778	27436.478035708544	8221.9484087244
4	142889	27458.527334724605	8236.7496698839
4	142894	27458.63394419428	8235.7835728395
4	142899	27458.900392539532	8233.0767919556
4	142915	27464.525846419551	8237.1166810948
4	143013	27483.35698800276	8252.0937515908
4	143018	27483.478040742632	8248.3559299876
4	143023	27483.680501623337	8248.4729242594
4	143034	27489.762185065129	8247.6235686308
4	143051	27497.242296305955	8252.4963006898
4	143093	27504.81580808929	8258.3551201497
4	143380	27568.731497161713	8320.2626984002
4	143553	27601.758069568339	8351.0780788163
4	143558	27602.04643116899	8350.2197388322
4	143571	27605.922808300613	8353.5525455541
4	143641	27616.341600169075	8363.3623340183
4	143648	27617.983362011812	8364.2095912975
4	143658	27620.599860047831	8365.823266179
4	143694	27628.12993420943	8370.8652586291
4	143703	27630.20520187809	8370.1348156398
4	143729	27633.597455434529	8373.1362957961
4	143735	27634.046679628067	8371.0431164981
4	143741	27634.568737657698	8369.4523481826
4	143753	27637.468544208382	8372.1559048813
4	143775	27639.268057768948	8369.2319855064
4	143784	27640.981087868985	8369.5602529005
4	143798	27644.081842404658	8369.9639927428
4	143806	27644.551754414959	8369.5740077493
4	143819	27645.967729478881	8361.53974836
4	143824	27646.442523826666	8356.1957793628
4	143829	27646.531283602554	8344.740187888
4	143837	27648.668876230834	8343.1056891455
4	143856	27651.927117111801	8340.9470934503
4	143867	27654.625128978005	8340.3652698408
4	143897	27661.255550535644	8341.0570014213
4	143961	27672.176654509152	8350.7554826108
4	143966	27672.389420748629	8350.1105163477
4	143983	27678.050056938074	8353.5749773706
4	144195	27720.812843466217	8396.3175709515
4	144201	27721.793456336802	8391.7343733335
4	144208	27722.96820355045	8388.3939588775
4	144262	27733.387999835436	8397.6380045075
4	144287	27735.247309138388	8397.300666583
4	144292	27736.701453704289	8398.596254011
4	144298	27737.962358190558	8395.4125319087
4	144307	27740.243990345378	8397.0147113512
4	144338	27746.777524065149	8395.8862810404
4	144404	27760.853109912915	8407.5019954833
4	144415	27761.629258752558	8402.5381918553
4	144479	27772.229413727541	8409.1830452857
4	144498	27775.832598696601	8410.6939464493
4	144573	27791.568606772907	8425.3549858578
4	144579	27792.404899789561	8425.1223502864
4	144584	27793.098006178851	8419.0182565359
4	144598	27795.456289643315	8416.5299365001
4	144623	27797.652760980978	8414.6884755017
4	144628	27798.04169746542	8411.9059596883
4	144635	27800.072963608053	8412.0790000774
4	144654	27801.780250475506	8406.4257728397
4	144659	27802.271989428762	8402.0682111269
4	144668	27806.963613356561	8401.9579089027
4	144680	27807.934640758304	8398.2447868189
4	144693	27809.012633064308	8396.9295131539
4	144698	27809.104729637829	8396.3003226513
4	144703	27809.447184402419	8395.4290754364
4	144713	27812.147146622172	8378.341758986
4	144723	27814.010155382691	8379.2783458346
4	144730	27815.107414906834	8375.2655454822
4	144741	27818.886139507407	8376.4377055283
4	144771	27822.110473218598	8374.3366761267
4	144792	27824.730013847063	8376.2735762419
4	144801	27826.808043361161	8375.4525979261
4	144806	27826.985450214193	8370.7559972925
4	144811	27827.239194813726	8370.7505561386
4	144816	27828.573587711249	8369.0419549886
4	144822	27830.039805069514	8370.4602385918
4	144827	27831.156644828549	8371.509020906
4	144832	27832.555990639736	8367.1436777806
4	144843	27837.418066694638	8360.6755084213
4	144873	27842.406007259595	8365.579386128
4	144878	27842.835710432433	8364.1950371216
4	144886	27844.332676582428	8364.0565823083
4	144901	27848.020680349586	8367.6502209266
4	144956	27857.321347436811	8359.6825643477
4	144965	27858.628879716717	8359.3355661413
4	144977	27861.798973416356	8357.1061978357
4	144983	27862.656485308039	8357.7136029374
4	144991	27864.954402918921	8353.4015697415
4	145012	27867.787713917347	8334.0947497471
4	145019	27869.22668964025	8335.246856119
4	145034	27870.457454346459	8334.7433475841
4	145041	27876.213664047337	8337.6026834227
4	145066	27878.444480530651	8328.6193682873
4	145090	27880.944468081697	8328.8968938282
4	145103	27882.536730799952	8321.8789563586
4	145117	27883.939595545234	8317.3455051665
4	145131	27886.074881859126	8313.6634985945
4	145142	27888.906154625602	8315.2035962675
4	145193	27896.844948838262	8322.5179094143
4	145199	27896.947403601377	8319.3902990205
4	145204	27897.200488089067	8310.3781679222
4	145217	27901.55571820948	8311.4922836664
4	145877	28043.708164005777	8453.4687867583
4	145890	28047.247240294493	8455.4552972903
4	145913	28051.164422282813	8459.2275320715
4	145923	28051.598008383151	8456.9067971947
4	145929	28052.111048373389	8454.5632591391
4	145940	28056.035350818527	8457.1768854162
4	145986	28061.135784114119	8462.1441855768
4	145998	28062.46807358286	8460.9549611627
4	146012	28068.333218624957	8462.8545328863
4	146040	28071.699084374355	8461.5621732297
4	146082	28077.590511639101	8464.3743909078
4	146087	28077.784073041213	8460.5210767729
4	146106	28081.273127337067	8463.8144450471
4	146247	28108.516232045482	8490.0529115403
4	146252	28108.908497228311	8483.1034675426
4	146263	28111.882453319201	8480.6060715406
4	146297	28120.719522721158	8482.975555735
4	146349	28128.204982412265	8488.536967284
4	146369	28129.733230779935	8484.4659224347
4	146384	28130.804740165802	8479.0254613862
4	146404	28132.988448860304	8475.9122905024
4	146410	28134.420125156009	8474.5936521641
4	146419	28139.019685634008	8463.7568574554
4	146437	28141.683993325648	8464.6066326848
4	146456	28144.262345894013	8466.5437787168
4	146462	28145.172888460588	8467.3948811829
4	146475	28150.031268827274	8472.1988617367
4	146493	28152.067240771029	8473.1404279525
4	146500	28154.120072550971	8472.6359448553
4	146509	28155.189903971854	8471.868640134
4	146530	28161.78573398329	8473.9426384332
4	146563	28166.04371409494	8474.449436001
4	146576	28166.672614455548	8462.1340906986
4	146596	28170.973453570343	8464.5334134054
4	147073	28270.970793647549	8558.0594107797
4	147079	28271.476721376511	8557.3764400298
4	147086	28274.340896462294	8558.3007539631
4	147093	28275.840392705953	8550.4901846304
4	147098	28276.74382864956	8548.0396572351
4	147103	28276.93179826237	8541.2095298715
4	147114	28283.291132909312	8545.4343885602
4	147119	28284.085254359228	8537.7675470486
4	147124	28285.771634735131	8536.7817876085
4	147132	28287.797949912763	8534.5474985043
4	147143	28289.654924658205	8535.4893350661
4	147176	28296.070027764527	8541.8208896076
4	147215	28300.879662479142	8542.1478533657
4	147235	28303.529761091885	8543.0028555786
4	147245	28306.147468696483	8543.4323642509
4	147586	28372.716720912545	8608.2761172268
4	147596	28373.415043246408	8602.8516255433
4	147607	28382.468452787035	8611.5238492744
4	147739	28414.545598837983	8637.5231293756
4	147746	28415.607061895591	8635.9061592179
4	147754	28416.162840742199	8632.5845218673
4	147762	28416.593470269909	8632.3398531394
4	147775	28418.811764957406	8631.7967481063
4	147803	28424.482158195972	8636.1020532426
4	147808	28424.505258127197	8635.1516766167
4	147814	28427.31771508935	8636.4819783924
4	147825	28429.228375118673	8636.4538406822
4	147994	28461.349376399606	8667.7497867131
4	148001	28461.870337629764	8661.7287793658
4	148013	28464.800432321559	8655.8990844697
4	148056	28473.974361591694	8664.6531576757
4	148089	28476.927867729018	8667.293221749
4	148094	28477.532989125421	8666.3657319979
4	148105	28479.717277468423	8666.936823914
4	148169	28494.064427751878	8680.942480129
4	148177	28494.980703627172	8679.1034143591
4	148190	28496.624396601366	8664.0469191085
4	148198	28497.157933662291	8660.2604828656
4	148222	28500.108827466462	8662.9295374865
4	148229	28500.558368210794	8662.1678076247
4	148234	28500.79772867007	8644.3292189144
4	148247	28504.859870652618	8647.1915712722
4	148268	28509.472115931995	8648.004309153
4	148279	28509.921687154122	8647.3268061775
4	148289	28511.813967756521	8648.7380882164
4	148296	28512.412717148451	8648.8517404181
4	148324	28517.786150124357	8649.2114816563
4	148332	28521.479272044162	8648.2228864223
4	148342	28521.855229162632	8641.6178245633
4	148352	28524.559382663317	8642.3362626166
4	148423	28532.010547563945	8636.6414630615
4	148436	28533.965995445562	8621.2951713045
4	148792	28587.95272877675	8662.0001186581
4	148799	28588.212610125878	8658.9652467356
4	148804	28588.234427659596	8657.3556788976
4	148809	28588.693496539594	8657.0145682528
4	148820	28590.628103784155	8653.6340463728
4	149068	28637.374012900913	8698.6577704192
4	149079	28640.586602302078	8699.8181998749
4	149101	28643.190072156168	8700.5780868468
4	149113	28644.447582097179	8695.1216307662
4	149126	28646.442456607309	8696.0575405564
4	150291	28888.058411182524	8933.4397439672
4	150298	28888.56064095919	8931.6855563263
4	150446	28914.338706904219	8948.5842983915
4	150467	28919.447708474384	8950.9659679912
4	150577	28941.230432571485	8971.0578874712
4	150584	28941.926165581469	8970.2571180753
4	150589	28942.113516360428	8963.530331118
4	150595	28942.497081285607	8961.9879765394
4	150600	28942.60909213575	8958.881199741
4	150619	28947.613838107947	8962.8340433786
4	150649	28949.833229491945	8962.0192155902
4	150655	28950.088133832437	8954.2303955133
4	150672	28953.513393586132	8956.6966439617
4	150716	28960.255284752116	8961.3138278604
4	150721	28961.331272932681	8962.3276425755
4	150732	28964.221953896639	8961.0024506606
4	150751	28968.089855272096	8963.8204728956
4	150775	28970.686230839527	8965.7581768368
4	150849	28985.102144827425	8978.2214660177
4	150857	28985.49261110799	8975.5837992221
4	150897	28990.977590961001	8978.047197335
4	150920	28993.923837733895	8976.5563510361
4	150932	28994.311088652141	8968.5130042029
4	150947	28999.788998886734	8971.7048975923
4	151178	29051.252166214344	9021.8864764531
4	151186	29052.627966631171	9023.1180022294
4	151202	29054.933879991204	9021.8605740916
4	151312	29072.200861888573	9033.8758026128
4	151317	29072.434375936323	9030.0756687898
4	151322	29072.564883004235	9028.6215909792
4	151327	29072.873399360774	9028.5548123421
4	151335	29076.939629641606	9032.3261668205
4	151348	29078.496159195292	9031.8414081197
4	151450	29099.930783898722	9052.1685171872
4	151455	29100.285607998336	9052.5141577992
4	151462	29101.045789307567	9053.1225245094
4	151473	29104.618240759359	9054.6827829409
4	151491	29106.631787278198	9052.521274423
4	151504	29110.95049638254	9051.8576419818
4	151621	29133.497786647058	9048.0496579763
4	151631	29136.285785183783	9042.2236263845
4	151730	29152.891734916915	9052.897069988
4	151741	29154.169482660167	9046.7638477906
4	151754	29156.05198020502	9047.1206645037
4	151761	29158.341331155992	9045.2201077228
4	151770	29159.131016357139	9044.675346255
4	151821	29174.293343870774	9059.6537003038
4	151861	29180.988004217304	9063.8729110307
4	152702	29362.945028930663	9240.1336418151
4	152713	29366.173512011255	9240.1981735475
4	152735	29370.561088049833	9242.3230096373
4	152964	29412.372284019431	9283.7055644268
4	152969	29413.043508584732	9278.7949877884
4	152982	29417.037835131682	9282.2102460613
4	153367	29506.165978030001	9369.7699713017
4	153374	29506.592023274078	9369.6552503569
4	153453	29520.16053870669	9382.8304577825
4	153460	29520.714704937478	9383.1304109055
4	153482	29530.924394631064	9391.5021366144
4	153928	29619.858050483163	9477.3487643136
4	153937	29620.96231033033	9476.2170020289
4	153971	29627.3841480395	9481.0694086719
4	153994	29631.96167272247	9485.6241862968
4	154273	29699.956276975899	9553.2556829862
4	154281	29700.562766676481	9553.7725169953
4	154294	29702.916459311266	9539.9510412735
4	154315	29709.58901802929	9543.1142438545
4	154410	29729.027942605681	9561.9436809329
4	154438	29732.584941752816	9558.2215417066
4	154449	29735.295374916662	9557.8475345144
4	154464	29737.516312568448	9553.6326332602
4	154477	29740.838417995997	9554.8872193875
4	154524	29750.84824501018	9560.5758719973
4	154545	29754.272552445911	9553.5346771735
4	154554	29755.153259357192	9551.4751231369
4	154577	29758.298157743517	9553.3319601097
4	154599	29763.131611525869	9548.9248505884
4	154620	29764.68746881421	9548.8912197326
4	154640	29768.884703484975	9551.1549982849
4	154672	29774.82969101976	9554.5994120451
4	154677	29775.096440640765	9552.886872393
4	154686	29779.590375328364	9557.0781955013
4	154694	29781.160663968235	9555.6648720072
4	154727	29785.743559722692	9549.7090678612
4	154736	29787.344534108248	9551.0923774377
4	154743	29789.570168106125	9549.2876436042
4	154748	29790.697705473726	9550.1285671998
4	154759	29793.3505168061	9549.8846132041
4	154791	29799.094680941887	9553.2034704545
4	154800	29800.985816647089	9554.5235818585
4	154813	29802.98761106619	9555.5190992705
4	154819	29803.636327746338	9541.1129667552
4	154826	29804.388472567059	9535.2143125763
4	154838	29805.378757400817	9536.1436132467
4	154853	29809.546450463519	9536.7665089461
4	154862	29812.362633523903	9521.197017026
4	154905	29818.78856288255	9527.0385778654
4	154918	29820.608390254901	9520.8758183546
4	154923	29822.158803716588	9513.4143528531
4	154937	29829.819231615753	9520.9586594373
4	154956	29830.633259678683	9513.569207715
4	154997	29836.256214764601	9518.6621613427
4	155005	29837.234667512003	9517.8086497271
4	155018	29839.198908146277	9514.8996556958
4	155028	29840.811784718091	9516.5075674624
4	155041	29842.540738699767	9514.682329307
4	155053	29844.995867902486	9513.136827812
4	155060	29847.127067642964	9513.153018795
4	155072	29848.750734779688	9509.428475118
4	155077	29849.453918290582	9485.8455771487
4	155090	29852.187177833842	9487.011498991
4	155150	29862.968656851196	9497.2679357122
4	155162	29865.753394788215	9491.3795256162
4	155167	29865.956163813057	9488.8587291317
4	155173	29867.312699144717	9485.7485531043
4	155178	29868.054564647475	9475.6496139191
4	155185	29868.872347236717	9474.4981957646
4	155206	29876.470631553191	9479.4995268733
4	155319	29892.67803897242	9488.4489782275
4	155388	29904.368582767452	9491.9084154088
4	155399	29905.243859973534	9490.7354936812
4	155407	29906.032122342718	9488.8672028512
4	155427	29908.091131785736	9490.2591089079
4	155459	29912.68137629044	9490.8666934905
4	155467	29915.458103536878	9488.189402128
4	155472	29915.69945419232	9466.3584568674
4	155477	29916.982341264912	9463.6494032521
4	155482	29917.915579230593	9464.4130248546
4	155493	29921.163937901653	9467.361569721
4	155513	29922.996100034527	9461.4555578745
4	155638	29940.701373492957	9477.3635925914

