version 2
run First-n3-13-20191016-14:53:00-4624
attr configname First-n3
attr datetime 20191016-14:53:00
attr experiment First-n3
attr inifile omnetpp.ini
attr iterationvars ""
attr iterationvarsf ""
attr measurement ""
attr network org.omnetpp.queueing.Pizza
attr processid 4624
attr repetition 13
attr replication ""
attr resultdir results
attr runnumber 13
attr seedset 13
param **.PS.maxInventoriedPS 3
param **.U1.interArrivalTime exponential(2s)
param **.U2.interArrivalTime exponential(4s)
param **.PS.serviceTimeForInventoryU1 exponential(0.8s)
param **.PS.serviceTimeForInventoryU2 exponential(1.0s)
param **.PS.serviceTimeDirectU1 exponential(1.2s)
param **.PS.serviceTimeDirectU2 exponential(1.4s)
param **.PS.probabilityProducing 0.5
param **.CS.serviceTimeU1 exponential(0.8s)
param **.CS.serviceTimeU2 exponential(1.0s)

vector 0 Pizza.EntryQueueU1 queueLength:vector ETV
attr interpolationmode sample-hold
attr title "queue length, vector"
vector 1 Pizza.CS queueLength:vector ETV
attr interpolationmode sample-hold
attr title "queue length, vector"
vector 2 Pizza.EntryQueueU2 queueLength:vector ETV
attr interpolationmode sample-hold
attr title "queue length, vector"
vector 3 Pizza.sink lifeTime:vector ETV
attr interpolationmode none
attr title "lifetime of arrived jobs, vector"
attr unit s
vector 4 Pizza.sink lifeTimeU2:vector ETV
attr interpolationmode none
attr title "lifetime of arrived jobs, vector"
attr unit s
0	0	0	0
0	5	3.549890252068	1
0	13	7.02760041119	2
0	15	8.239772737911	1
0	19	8.897239814039	2
0	22	10.468585339221	1
0	27	10.794953247465	0
0	31	10.949525492161	1
0	33	11.070113878838	2
0	37	13.616263248131	3
0	42	14.537714294659	2
0	47	14.545280173166	1
0	53	14.892037447205	2
0	54	14.900229791973	1
0	58	15.289687625987	2
0	60	17.856214871272	3
0	62	18.347757670172	4
0	69	20.472174703988	3
0	76	21.267206880321	2
0	81	21.310633774278	1
0	88	22.419295435187	0
0	92	23.945017037464	1
0	94	24.383398815773	2
0	98	24.540873739076	3
0	101	25.285003192009	2
0	107	26.107382913681	3
0	114	28.313771126552	4
0	115	28.496812510215	3
0	122	29.098618328995	4
0	123	29.266917374476	3
0	128	30.195079796798	2
0	134	30.685197894034	1
0	141	30.880152602575	2
0	142	31.06676672338	1
0	147	31.329328360623	0
0	166	32.735557978339	1
0	167	33.65777722961	0
0	214	42.600278359336	1
0	216	43.982743110262	2
0	219	44.634274606773	1
0	226	44.997472964794	0
0	288	64.022053199231	1
0	290	64.454134598046	2
0	292	64.497406010912	3
0	294	64.66830405248	4
0	295	65.642840345006	3
0	304	66.482996435649	2
0	309	67.182996684738	1
0	314	67.443272301315	0
0	336	72.368837497747	1
0	338	72.839731063889	2
0	340	73.236826607726	3
0	345	73.986561611771	4
0	346	74.027144875121	3
0	351	74.261996812971	2
0	356	74.309771970704	1
0	360	74.874804423683	2
0	366	76.124902271842	3
0	370	77.153685795645	2
0	375	77.164316615216	1
0	379	80.991567642017	2
0	382	81.451454168296	1
0	388	81.970482153672	0
0	405	84.527470243853	1
0	406	84.732476600481	0
0	439	92.635119282338	1
0	441	93.639336104402	2
0	442	93.68844405153	1
0	448	93.747965922807	2
0	449	94.385188824136	1
0	455	94.950485013854	0
0	475	96.762290163196	1
0	477	97.75810416837	2
0	482	100.918632881551	1
0	488	101.829759889098	2
0	493	102.887087775468	1
0	497	105.368708908022	2
0	499	105.578025207946	3
0	505	108.391097791318	4
0	506	109.480896884864	3
0	510	110.628491165365	4
0	517	113.091409168219	5
0	518	113.198031866008	4
0	524	113.99252138616	5
0	525	114.141810589025	4
0	532	114.751303277994	3
0	537	117.073555361646	2
0	543	117.71425234634	3
0	544	117.812866182508	2
0	551	119.912310581803	1
0	560	120.93885797111	0
0	584	123.199516511806	1
0	586	123.769855945168	2
0	587	124.515898781478	1
0	593	125.156156108762	0
0	608	126.059965759184	1
0	612	126.419914173951	0
0	643	134.446862264828	1
0	647	135.242056237949	0
0	671	140.757890722736	1
0	673	141.399588016264	0
0	694	144.006193697134	1
0	695	144.080374684544	0
0	699	144.407102954402	1
0	703	145.183550375391	2
0	704	145.554455422553	1
0	710	146.576105592797	2
0	713	146.97584744795	1
0	717	147.345992162851	2
0	719	147.405043602914	3
0	724	148.894136264027	4
0	727	149.497750423774	3
0	732	149.762691785127	2
0	737	149.875644563732	1
0	742	150.342644713506	0
0	770	155.609064950909	1
0	772	155.697128878148	2
0	773	155.751599696697	1
0	779	156.028665841786	2
0	781	156.41811799854	1
0	788	157.684287117277	0
0	792	158.417838149169	1
0	797	160.508311329759	0
0	803	162.604593081604	1
0	808	164.291220517415	0
0	844	167.536474235502	1
0	850	168.908846512769	0
0	878	174.713684077521	1
0	880	174.825562791051	2
0	882	175.486270471425	1
0	887	175.785730029236	0
0	893	176.061728409563	1
0	897	176.488479327142	2
0	898	176.707544689446	1
0	906	178.110120205973	0
0	919	179.155427841662	1
0	921	179.549884819779	2
0	922	180.386393676239	1
0	927	181.939733692428	0
0	989	193.18646994042	1
0	990	193.215759401951	0
0	1012	201.862464119288	1
0	1016	202.872100015162	2
0	1018	203.186097277642	3
0	1021	205.06391362905	2
0	1026	205.165270384373	1
0	1032	205.318115331596	0
0	1043	206.173681696895	1
0	1044	206.729073593907	0
0	1056	208.141647409384	1
0	1059	208.799542129966	0
0	1091	214.259816082324	1
0	1094	214.75901078602	2
0	1095	214.973411945831	1
0	1100	215.087707038536	0
0	1161	234.23991221143	1
0	1162	234.739020408213	0
0	1170	235.053901310922	1
0	1171	235.314412854115	0
0	1175	236.832567657315	1
0	1181	238.7761489947	2
0	1186	239.324931470904	1
0	1191	242.405143801064	0
0	1216	244.774532601812	1
0	1223	247.100504657244	2
0	1224	247.144169970474	1
0	1229	247.751469127286	0
0	1238	249.329442154764	1
0	1246	252.958592244064	2
0	1249	254.051960999758	3
0	1250	254.658296044434	2
0	1255	255.01152121709	1
0	1261	256.961448681001	0
0	1277	258.425862818632	1
0	1279	260.819801722181	2
0	1281	262.480300986592	3
0	1283	263.306893882155	4
0	1286	267.093009496915	3
0	1293	267.279789445961	4
0	1295	267.368430885615	3
0	1299	267.386992923963	4
0	1304	268.101643239881	3
0	1308	268.723737247312	4
0	1310	269.385065366145	5
0	1313	269.603544656745	4
0	1319	271.469662656998	5
0	1321	271.497723119548	6
0	1323	272.353212215669	7
0	1324	272.576351277423	6
0	1328	272.598401001842	7
0	1330	273.016334397167	8
0	1335	274.307476322665	7
0	1343	275.421735975032	8
0	1344	275.66563095225	7
0	1350	275.802715897366	8
0	1352	276.461425665783	7
0	1357	277.156888237512	6
0	1362	277.161799238165	5
0	1374	280.279465769503	4
0	1380	281.218692321561	5
0	1381	282.01897003859	4
0	1385	282.645186492805	5
0	1389	284.720752861774	4
0	1394	284.795812688873	3
0	1400	286.109131840385	4
0	1401	286.351586338347	3
0	1406	287.221804408212	2
0	1411	287.751822810354	1
0	1419	288.553072548256	2
0	1421	288.825064902203	3
0	1422	288.871840400236	2
0	1426	289.381591459221	3
0	1430	290.033566290821	4
0	1433	291.437688277711	3
0	1439	292.577294977212	4
0	1442	293.164963997887	3
0	1452	296.746377889633	2
0	1457	296.968177166708	1
0	1466	302.753020189158	0
0	1502	306.138588164553	1
0	1504	306.975404839224	2
0	1505	307.443762463644	1
0	1512	308.121838014117	0
0	1521	308.311278876042	1
0	1523	308.427950081353	2
0	1526	309.285819423176	1
0	1532	310.467952072567	0
0	1536	310.500591946889	1
0	1540	311.428812244354	2
0	1547	312.338842727792	3
0	1548	312.67044436811	2
0	1555	312.925300473662	1
0	1561	313.113318265375	0
0	1585	317.779320435943	1
0	1588	319.683575820887	0
0	1602	321.080696250139	1
0	1605	321.67426322177	0
0	1616	322.950404858831	1
0	1617	322.960186234286	0
0	1623	322.9814752501	1
0	1627	323.86587823212	0
0	1631	323.992831792241	1
0	1633	324.510666542673	2
0	1636	325.2027366131	1
0	1642	325.77406700697	0
0	1646	326.993615754906	1
0	1649	328.555045621489	0
0	1660	330.382626427824	1
0	1661	330.762710172012	0
0	1665	330.794725719475	1
0	1667	331.566770146435	2
0	1670	332.467970981078	1
0	1680	334.248813849289	2
0	1681	334.670614774306	1
0	1686	334.718521018746	0
0	1693	335.963996538777	1
0	1694	336.708862356953	0
0	1702	337.696746462965	1
0	1705	338.41071028507	0
0	1721	340.352034361461	1
0	1724	341.18585456678	2
0	1727	341.409578916556	3
0	1730	341.613345975984	4
0	1732	341.933224242432	5
0	1735	342.771297759399	6
0	1736	343.508705137647	5
0	1741	344.028600612935	4
0	1747	345.147519478764	3
0	1753	345.236205896914	4
0	1755	346.392360349804	5
0	1758	347.416829120171	4
0	1763	347.689785857993	3
0	1768	348.029286526335	2
0	1774	348.836800197023	3
0	1775	350.004266130958	2
0	1781	350.847629555065	3
0	1783	350.857923409097	4
0	1787	351.089224942294	5
0	1789	351.560883265463	6
0	1792	354.716909995315	5
0	1796	355.587400937884	6
0	1805	357.355518120656	5
0	1811	358.347333680329	6
0	1813	358.393393925251	7
0	1815	358.726181033653	6
0	1820	359.335685467109	5
0	1824	360.917681635241	6
0	1828	361.850305868097	7
0	1829	362.010279900363	6
0	1834	364.060316887106	5
0	1838	364.840628251	6
0	1841	366.197649609994	5
0	1845	366.629460326001	6
0	1851	367.485910296788	7
0	1852	367.542277953548	6
0	1856	367.951135571334	7
0	1860	369.574419376741	8
0	1867	372.573155071783	7
0	1874	373.552005758523	8
0	1875	373.880089801922	7
0	1881	374.23851902402	8
0	1882	376.106377748841	7
0	1888	377.354728784603	8
0	1889	377.692175978205	7
0	1893	378.710804823183	8
0	1898	380.030791626859	7
0	1902	380.983807269995	8
0	1906	382.095049134262	7
0	1912	383.139316409905	8
0	1916	383.431282633149	9
0	1917	384.133918431664	8
0	1922	384.444189406001	7
0	1926	385.167522329074	8
0	1928	385.750986500962	9
0	1934	388.344244143129	10
0	1937	389.757761798211	9
0	1943	390.618607081443	10
0	1946	390.712705087373	9
0	1952	393.330213040015	10
0	1956	393.46687331663	9
0	1961	393.720632095768	8
0	1967	394.974454810768	9
0	1970	395.643696473579	8
0	1976	395.999815100356	9
0	1987	397.819744304613	10
0	1988	397.826677801423	9
0	1993	398.383815017029	8
0	1998	398.562740771564	7
0	2005	399.453144394677	6
0	2013	400.1943706986	5
0	2020	400.695014888863	6
0	2021	400.69780514109	5
0	2026	401.80427621646	4
0	2031	401.828893060468	3
0	2036	402.350134312978	2
0	2042	402.806390756715	1
0	2047	403.583565679554	0
0	2114	415.577085217259	1
0	2118	417.910803863227	2
0	2119	419.143038490744	1
0	2124	419.443878887038	0
0	2141	421.082535495823	1
0	2143	421.164429184715	2
0	2148	422.786001940715	1
0	2155	423.715915944401	0
0	2170	425.31014897588	1
0	2179	426.770172993114	2
0	2180	426.936731114557	1
0	2186	430.066348179798	2
0	2188	430.412529126207	1
0	2199	432.104409110178	2
0	2200	432.346136251025	1
0	2205	433.366397471702	0
0	2225	436.604626360826	1
0	2227	436.633677464562	2
0	2231	437.469500965709	3
0	2233	437.772828246815	4
0	2234	438.029219843687	3
0	2239	438.5292901213	2
0	2245	438.872261337265	3
0	2246	439.158100611879	2
0	2250	439.187884867443	3
0	2253	440.019862514214	2
0	2257	441.348302344988	3
0	2263	442.206198680476	2
0	2269	442.582201387888	3
0	2270	442.698964921821	2
0	2275	443.639953667528	1
0	2282	444.435677193826	0
0	2286	444.564615715214	1
0	2291	447.67648858837	0
0	2332	453.308479287476	1
0	2334	453.404450686549	0
0	2368	457.425404742144	1
0	2371	459.247698247437	0
0	2375	459.696005088802	1
0	2377	459.985531057066	2
0	2379	460.592106575713	3
0	2381	461.163592522047	4
0	2383	462.359517542428	5
0	2388	463.283192214606	6
0	2397	466.57049668771	5
0	2403	469.311479715995	4
0	2409	469.477216887758	5
0	2410	469.923454643663	4
0	2415	469.975576073164	3
0	2424	471.874284128336	2
0	2431	473.696762665635	3
0	2433	474.096172939217	4
0	2434	474.371294194499	3
0	2443	475.300391266032	2
0	2448	475.399420209414	1
0	2453	475.814554543839	0
0	2461	476.584945454128	1
0	2463	477.640592499378	2
0	2466	479.101209839568	1
0	2472	480.406191110645	2
0	2473	480.794913160579	1
0	2478	482.553239484833	0
0	2482	483.081217861796	1
0	2490	484.629246010697	2
0	2492	484.88256561458	3
0	2493	485.063196915352	2
0	2497	485.59191555051	3
0	2506	487.943840499601	2
0	2514	489.284005980954	3
0	2515	489.449329469148	2
0	2519	489.820947007085	3
0	2521	490.06364682636	4
0	2524	490.284269957398	3
0	2534	495.124938606934	4
0	2539	496.701528511663	3
0	2545	496.96373837127	4
0	2546	497.30972183461	3
0	2550	497.617542818039	4
0	2553	498.355611779977	3
0	2559	499.780065165394	4
0	2560	501.347829341155	3
0	2565	501.43249549273	2
0	2569	501.777709975769	3
0	2572	502.497522199165	2
0	2576	503.207199796186	3
0	2581	503.662334911719	4
0	2582	504.66696466587	3
0	2590	505.317194314333	4
0	2593	507.487696177698	3
0	2597	508.112416493261	4
0	2604	511.898499051174	3
0	2609	512.366526230628	2
0	2614	513.020665560241	1
0	2621	516.536489781865	0
0	2628	517.648173644939	1
0	2630	517.699871468737	2
0	2632	521.354624659833	3
0	2633	521.516432297566	2
0	2639	522.588929094808	3
0	2641	524.007845265648	4
0	2642	524.566424920884	3
0	2647	524.964806739132	2
0	2652	525.690559269155	1
0	2657	526.877226008059	0
0	2663	528.029215585573	1
0	2666	528.303412022516	2
0	2667	528.391995565403	1
0	2672	528.634294096331	0
0	2678	528.917336039024	1
0	2679	529.197853674208	0
0	2696	532.041106761723	1
0	2698	532.582367053021	0
0	2704	532.738179996726	1
0	2705	533.306298311631	0
0	2741	536.402100301331	1
0	2743	537.207320498506	2
0	2747	539.093085077021	3
0	2748	539.845407132758	2
0	2754	540.456219768071	1
0	2760	540.577612698959	0
0	2769	542.376336183014	1
0	2777	546.130647905352	2
0	2780	546.794888192895	3
0	2786	548.407101415799	4
0	2789	548.583758158734	5
0	2790	548.696829333694	4
0	2795	548.972305207057	3
0	2801	549.044887975041	4
0	2803	550.322029585009	5
0	2804	550.721300177432	4
0	2809	551.478725610046	3
0	2815	553.11084635495	4
0	2816	553.327589743042	3
0	2821	555.455021422311	2
0	2825	555.672659998603	3
0	2827	560.300800434052	4
0	2829	560.593026310463	5
0	2835	562.733666893673	4
0	2840	562.960365303805	3
0	2845	564.358693355487	2
0	2849	565.452092806775	3
0	2855	567.465644407097	4
0	2856	567.490479043039	3
0	2860	567.830399536968	4
0	2863	569.968297199542	3
0	2870	571.013919308665	4
0	2872	571.177143396771	5
0	2874	571.721174956008	6
0	2877	573.414992541915	5
0	2882	574.208752399111	4
0	2887	575.162532748734	3
0	2892	576.038941497164	2
0	2902	578.284327740234	3
0	2903	579.678527491319	2
0	2912	581.670551551093	1
0	2918	581.827692975836	2
0	2921	582.423021755606	1
0	2927	583.180093220981	2
0	2932	584.158091108158	1
0	2939	587.304793712012	0
0	2973	591.410715546197	1
0	2977	591.56708426468	2
0	2979	592.132796457462	1
0	2985	592.499859715327	2
0	2986	592.558054185688	1
0	2991	593.094462095343	0
0	2995	595.057493907783	1
0	3000	595.51794300861	2
0	3003	596.300582607271	1
0	3013	597.16798580911	0
0	3029	597.884458157645	1
0	3030	598.303495501546	0
0	3034	599.183673866038	1
0	3036	602.412840518437	2
0	3040	603.944885133079	1
0	3048	605.612101359639	0
0	3063	608.718830124823	1
0	3065	609.130524684377	2
0	3067	609.183695426932	3
0	3070	610.504377737272	2
0	3076	611.028013469717	3
0	3078	611.102105240951	4
0	3079	611.182136746951	3
0	3084	611.455151298062	2
0	3094	611.74327098347	3
0	3096	612.324393073488	4
0	3098	612.461144317654	5
0	3099	612.677108417312	4
0	3104	613.609310421288	3
0	3108	613.82715669479	4
0	3111	613.931732414894	3
0	3115	614.125673445603	4
0	3123	616.034189347274	5
0	3125	616.273368423975	6
0	3130	618.733134804151	5
0	3134	619.135234379386	6
0	3137	622.072085409616	5
0	3143	622.449666183109	6
0	3144	622.47651690694	5
0	3148	622.518170378481	6
0	3152	623.131212234761	7
0	3153	623.39339886107	6
0	3157	623.943366669123	7
0	3161	624.542145151492	6
0	3168	626.454979325706	5
0	3172	627.588028134897	6
0	3175	627.87192186317	5
0	3180	629.463216892189	4
0	3185	630.272873955744	3
0	3189	630.417019860677	4
0	3194	633.281754051418	3
0	3201	634.552856332139	2
0	3207	636.498958611473	3
0	3208	637.975440810026	2
0	3213	638.378727126092	1
0	3217	638.858574967206	2
0	3221	641.107944268435	1
0	3226	641.391631294448	0
0	3230	641.786107865145	1
0	3233	642.618320000046	0
0	3256	645.712575698324	1
0	3258	645.794833240814	2
0	3259	646.394674131706	1
0	3263	646.806501696434	2
0	3269	648.12893936232	1
0	3274	648.982763822318	0
0	3289	649.524418064651	1
0	3294	650.43731409132	2
0	3295	650.594952230783	1
0	3301	651.837719013885	0
0	3312	652.09030141974	1
0	3314	652.43033168042	0
0	3325	652.802194149244	1
0	3328	653.411592731175	0
0	3332	653.597663260798	1
0	3339	654.958644747007	0
0	3353	655.736577807629	1
0	3355	655.982567500725	2
0	3357	658.023014899406	3
0	3359	658.329671138531	4
0	3361	658.635632646747	5
0	3368	661.529343693409	4
0	3373	661.621753358989	3
0	3378	661.786587972915	2
0	3384	661.78702049576	3
0	3385	661.9194705888	2
0	3391	663.524095447875	3
0	3392	663.768145657522	2
0	3399	664.120077430389	1
0	3403	664.313274612256	2
0	3405	665.17205161888	3
0	3408	665.975791988546	2
0	3413	666.680554227684	1
0	3417	667.026152037224	2
0	3423	667.981163111711	1
0	3428	668.002351020038	0
0	3432	668.222549928267	1
0	3436	670.419095690729	0
0	3475	679.096716031825	1
0	3484	681.108269139956	2
0	3485	681.254968582688	1
0	3494	681.552409671251	2
0	3496	682.030215934649	3
0	3497	682.195617347822	2
0	3504	682.380691523758	1
0	3514	683.792069265757	2
0	3515	683.93655398972	1
0	3521	684.393159682901	0
0	3542	686.494161440227	1
0	3545	688.597682088371	2
0	3546	688.60842047624	1
0	3552	689.212476242131	2
0	3554	689.216916305804	3
0	3556	691.29473919012	2
0	3562	691.873469935026	1
0	3568	692.121331634262	2
0	3569	692.298975711212	1
0	3574	693.302955439523	0
0	3609	700.382722469219	1
0	3614	701.231336865444	0
0	3623	702.083028087683	1
0	3627	702.968095655646	2
0	3634	706.521064145327	3
0	3635	706.612299050686	2
0	3644	708.529270530878	3
0	3647	709.947652639228	2
0	3652	710.819052716297	1
0	3658	711.192054629383	0
0	3670	711.780189615821	1
0	3672	712.563506671536	2
0	3673	713.467423445702	1
0	3681	714.559796760999	2
0	3682	715.512585492236	1
0	3689	717.61052118206	0
0	3693	717.618568297286	1
0	3696	717.972908035656	0
0	3702	719.297671031917	1
0	3704	719.857050640174	2
0	3706	719.904441491858	3
0	3707	719.942841646252	2
0	3711	720.550278006077	3
0	3716	721.094715863862	2
0	3723	728.345218152523	1
0	3729	728.766257322324	2
0	3730	728.776302964126	1
0	3734	728.956248264061	2
0	3736	729.940251465908	3
0	3742	730.96133493764	4
0	3744	731.268999740805	3
0	3750	731.346730054429	4
0	3752	731.551610351	5
0	3757	732.49674896188	6
0	3758	732.668046065561	5
0	3764	733.613401664699	6
0	3766	733.79499447871	7
0	3767	734.22715208982	6
0	3771	734.774534818905	7
0	3773	735.453437809468	8
0	3775	739.990764009324	9
0	3779	741.440241853084	10
0	3780	741.537144143305	9
0	3786	742.189061994706	8
0	3793	742.409741860106	7
0	3800	746.321204184604	8
0	3802	746.611881329179	9
0	3804	746.943717646476	10
0	3806	747.270111448374	11
0	3807	747.59588645566	10
0	3814	748.396566359639	11
0	3815	748.517646855847	10
0	3821	748.958980534064	11
0	3822	749.058668084331	10
0	3826	749.244410423794	11
0	3828	749.880100663075	12
0	3831	752.046853534054	11
0	3837	756.005975299722	12
0	3839	756.190754916976	13
0	3840	756.948690669492	12
0	3846	757.564510791976	13
0	3848	757.647237227625	14
0	3851	758.261466738591	13
0	3858	759.719356125824	12
0	3865	761.601110856416	11
0	3870	761.616993653581	10
0	3875	761.84845515484	9
0	3882	764.952633701137	8
0	3888	765.945564416224	9
0	3893	766.397361691606	8
0	3897	767.067386380928	9
0	3899	767.239901221362	10
0	3903	769.27949948071	11
0	3904	769.467701418411	10
0	3908	769.798388502663	11
0	3913	771.990648521588	10
0	3919	773.039544259152	9
0	3924	773.082601965862	8
0	3930	773.539232779235	9
0	3931	773.63099878703	8
0	3935	773.676491404026	9
0	3938	774.481555118115	8
0	3943	774.796534581131	7
0	3947	775.860576357646	8
0	3950	779.200211328429	7
0	3958	782.449549008253	6
0	3963	782.909116203565	5
0	3967	783.335924025494	6
0	3969	783.784871555467	7
0	3971	784.029941445054	8
0	3974	785.707166678117	7
0	3978	787.32119815782	8
0	3983	788.951400924276	7
0	3990	789.997202986534	6
0	3996	793.094129458517	5
0	4003	794.930183279208	4
0	4010	797.270266345166	3
0	4018	799.535933567316	2
0	4023	799.691163913559	1
0	4027	799.779113467895	2
0	4031	800.839458693599	1
0	4037	800.867921875613	2
0	4038	801.311707017003	1
0	4042	801.847367336014	2
0	4047	802.125962687045	1
0	4051	802.497010976262	2
0	4056	805.006110940114	1
0	4062	805.773159443385	0
0	4077	807.087317842995	1
0	4080	808.010509511759	0
0	4099	808.861942717973	1
0	4101	809.397549640134	2
0	4104	809.592061052987	3
0	4106	810.05907726543	2
0	4111	810.064400926972	1
0	4117	810.506571014233	0
0	4139	816.755451873153	1
0	4141	817.088307009052	2
0	4142	817.251983333177	1
0	4152	819.296502423277	0
0	4194	823.64362741141	1
0	4197	824.251413428242	0
0	4209	825.938424861582	1
0	4210	826.342974642879	0
0	4216	826.598796978574	1
0	4220	827.507926022445	0
0	4226	827.51782707004	1
0	4228	828.838062639836	2
0	4230	828.92387430182	3
0	4231	828.996802140201	2
0	4236	829.013407564862	1
0	4240	829.083786402286	2
0	4242	829.226139323212	3
0	4245	830.115668856865	2
0	4250	830.473451433539	1
0	4255	831.89159102498	0
0	4259	832.944907389722	1
0	4262	833.283991611079	0
0	4299	836.772180510512	1
0	4301	837.083549618377	2
0	4304	837.484593196027	1
0	4310	838.056313605966	2
0	4311	838.099072824671	1
0	4316	838.750171793979	0
0	4322	841.078508244407	1
0	4328	844.208591099859	0
0	4356	846.952006649339	1
0	4357	847.060500820132	0
0	4393	852.812580368646	1
0	4398	853.982215460476	2
0	4400	854.283516392567	3
0	4402	854.605357186306	4
0	4408	855.64660302698	5
0	4409	855.902378483676	4
0	4416	856.705291991702	3
0	4422	857.248886891698	4
0	4424	857.270808371765	5
0	4425	857.755243885268	4
0	4431	858.75433910993	3
0	4436	859.605437766986	2
0	4442	859.722147682617	3
0	4445	859.875770844163	2
0	4449	860.025065146279	3
0	4451	861.214696610906	4
0	4457	863.770059477103	3
0	4462	864.830490768093	2
0	4470	865.857760052832	1
0	4476	865.860650839535	2
0	4477	866.035036548571	1
0	4482	866.824533522616	0
0	4490	867.307105091209	1
0	4492	867.601795154222	2
0	4497	869.499741539321	3
0	4498	869.613440292532	2
0	4503	869.81601573218	1
0	4507	871.614960952358	2
0	4510	872.551539145526	1
0	4515	873.480305494063	0
0	4519	873.792255593764	1
0	4522	875.032966338802	0
0	4526	876.294699946793	1
0	4528	878.799452797296	2
0	4531	880.693696121157	1
0	4537	881.457796866001	2
0	4539	881.480377774966	3
0	4540	881.543299948029	2
0	4545	882.568748151863	1
0	4549	883.970417309061	2
0	4555	885.435352002669	1
0	4561	885.481273007523	2
0	4564	885.638251834629	1
0	4568	886.043431834412	2
0	4575	888.705034814585	3
0	4576	888.792922600461	2
0	4582	888.809320516218	3
0	4583	889.126590618985	2
0	4588	889.905181184593	1
0	4593	891.357667585508	0
0	4611	892.257371494001	1
0	4612	892.402340506033	0
0	4638	894.080653348225	1
0	4641	896.148136233886	0
0	4664	898.660353886884	1
0	4667	899.243968792893	0
0	4687	901.58955976399	1
0	4688	903.146624270582	0
0	4714	906.905288475679	1
0	4719	907.492573444569	2
0	4722	907.68137211253	1
0	4727	908.208235492205	0
0	4733	908.993657631663	1
0	4734	909.13557856309	0
0	4748	911.057018495166	1
0	4750	911.295640642593	2
0	4752	911.742541113492	1
0	4757	911.748578792385	0
0	4761	912.328567526933	1
0	4763	913.058745372772	2
0	4768	913.302662882815	1
0	4774	913.527078540685	2
0	4777	914.563853243029	1
0	4786	917.129652361519	0
0	4790	917.384850161464	1
0	4794	920.754342122615	2
0	4799	922.510342210117	1
0	4804	922.680416863857	0
0	4830	924.770872139783	1
0	4831	925.073592901291	0
0	4844	926.867603157361	1
0	4847	928.133027836958	0
0	4866	929.764280380534	1
0	4869	930.257126551958	2
0	4872	931.019786526193	1
0	4879	932.232410229771	2
0	4880	932.910275456344	1
0	4886	932.91820670844	2
0	4888	934.142568832669	1
0	4894	934.200224034013	2
0	4896	934.860073299966	3
0	4897	935.12121140234	2
0	4903	935.295912714581	1
0	4910	935.53586985636	0
0	4946	941.523048078259	1
0	4947	943.659793619734	0
0	4957	944.316317241053	1
0	4959	944.482319516939	2
0	4961	944.641851833781	3
0	4963	944.886597566109	4
0	4967	944.947054254941	5
0	4969	945.098776196779	4
0	4974	945.197188507254	3
0	4982	946.553299102796	4
0	4985	946.656285612644	5
0	4986	946.736073979313	4
0	4992	946.851768474403	5
0	4997	948.057348207252	6
0	5000	950.353146671151	5
0	5006	950.859402218301	4
0	5012	951.440529611755	3
0	5018	951.543272631514	4
0	5019	951.741183845138	3
0	5025	952.822070324098	2
0	5030	952.896795461282	1
0	5036	953.380741802437	2
0	5040	953.716819990484	3
0	5046	955.007307508292	2
0	5052	955.827438129052	3
0	5055	956.301190069071	2
0	5061	957.706112079123	3
0	5063	958.83814006338	2
0	5068	959.807413425597	1
0	5072	959.882134072764	2
0	5074	959.898901017131	3
0	5076	959.994252049083	4
0	5082	961.010549783525	5
0	5084	961.186854510748	4
0	5089	961.712924769574	3
0	5094	963.101054014313	2
0	5098	964.617976465227	3
0	5104	968.653016997103	4
0	5107	969.913626992879	3
0	5112	970.545685342248	2
0	5118	971.711630169605	1
0	5124	972.86306790649	0
0	5145	976.282996202074	1
0	5149	977.109844764894	2
0	5153	977.616309149345	1
0	5160	978.604016593636	2
0	5162	978.636250528658	3
0	5163	979.242724035416	2
0	5170	981.369750610417	1
0	5174	982.772672936414	2
0	5178	984.292729421435	3
0	5179	985.966950097565	2
0	5187	987.704830563591	3
0	5189	988.058206048389	4
0	5190	988.75044963752	3
0	5194	989.154198489158	4
0	5196	989.65031272462	5
0	5201	990.546764287481	6
0	5203	990.765213497314	7
0	5204	990.868028994603	6
0	5209	991.56949405265	5
0	5214	992.906303696004	4
0	5218	993.532765423803	5
0	5220	994.740911072198	6
0	5223	996.252995487951	5
0	5227	998.006737260998	6
0	5229	999.344505759049	7
0	5235	999.959559993474	8
0	5237	1000.5358363303	7
0	5243	1001.02753165742	6
0	5248	1001.151232323557	5
0	5254	1003.229913550395	6
0	5256	1003.679838231039	7
0	5258	1005.328306622766	8
0	5259	1005.411533558836	7
0	5264	1006.812353885623	6
0	5268	1008.692130988869	7
0	5272	1008.91801976388	8
0	5274	1009.68526854603	7
0	5283	1011.280260255874	6
0	5288	1011.641459609468	5
0	5295	1014.647451425968	4
0	5299	1016.572854272497	5
0	5307	1021.020752505639	4
0	5314	1022.416785525117	3
0	5319	1022.814440565739	2
0	5324	1024.510903402895	1
0	5329	1025.445413542487	0
0	5333	1025.635304235339	1
0	5338	1026.203003047948	0
0	5351	1029.150770085282	1
0	5353	1029.98042168045	0
0	5364	1030.203503989656	1
0	5368	1032.785064434639	2
0	5369	1032.795268297602	1
0	5375	1034.275519392348	0
0	5407	1041.046639002129	1
0	5409	1041.058329462139	2
0	5412	1042.257071964155	1
0	5417	1042.498480814411	0
0	5430	1044.689787674811	1
0	5434	1045.207418639721	2
0	5437	1046.575959413772	3
0	5443	1047.349222763463	4
0	5445	1047.436337747708	5
0	5448	1048.067592380584	4
0	5455	1048.706127791281	3
0	5460	1048.878684973101	2
0	5465	1049.28288657139	1
0	5473	1050.362269881473	2
0	5474	1051.041906449668	1
0	5478	1051.4849143285	2
0	5480	1052.368048168108	3
0	5485	1053.23358702394	4
0	5486	1053.556631810118	3
0	5498	1055.989557895941	2
0	5507	1056.785103604066	1
0	5512	1056.982951248096	0
0	5540	1060.742041676871	1
0	5541	1060.825586324652	0
0	5547	1060.861853556654	1
0	5549	1061.716811109107	0
0	5563	1061.938720574329	1
0	5565	1062.477755116582	2
0	5569	1063.934696241901	1
0	5575	1064.389669177712	2
0	5577	1064.669993504707	3
0	5580	1064.939772010068	2
0	5584	1065.129023466761	3
0	5587	1067.340504127584	2
0	5592	1067.966883053063	1
0	5598	1069.002307967026	0
0	5609	1069.686392338591	1
0	5610	1069.92976446457	0
0	5617	1070.832347204074	1
0	5618	1071.361348082004	0
0	5622	1071.563180668264	1
0	5626	1072.628646710243	2
0	5628	1073.299009250377	1
0	5634	1074.151511125499	0
0	5679	1081.836342755544	1
0	5683	1083.005457843859	2
0	5688	1085.206015584854	1
0	5695	1085.883801640276	0
0	5722	1088.447324780564	1
0	5725	1089.209790630636	2
0	5728	1089.633345136741	1
0	5739	1091.319357501507	0
0	5763	1093.353188940819	1
0	5765	1095.434352246483	2
0	5769	1096.325350144929	3
0	5771	1096.455927247002	4
0	5778	1097.143576771811	5
0	5779	1097.298415227531	4
0	5786	1098.082745827597	3
0	5794	1099.744679103493	4
0	5795	1099.973080816828	3
0	5800	1100.134346333975	2
0	5805	1100.576811950152	1
0	5809	1100.681943784661	2
0	5814	1101.119557333949	3
0	5815	1101.527877045857	2
0	5820	1101.609972835324	1
0	5824	1102.057880042576	2
0	5831	1103.812409181381	3
0	5832	1104.200949558957	2
0	5838	1104.216254620151	3
0	5839	1104.634740174287	2
0	5843	1104.801296303475	3
0	5847	1106.71880697004	2
0	5856	1107.580780270754	1
0	5862	1107.787839186013	2
0	5864	1107.919241823249	3
0	5865	1107.944117583703	2
0	5870	1107.958249035843	1
0	5876	1111.133060516631	2
0	5880	1111.703530279067	1
0	5887	1112.26866709665	2
0	5890	1113.443417745341	1
0	5898	1113.93358856277	0
0	5909	1114.13470824224	1
0	5910	1114.273968797231	0
0	5925	1117.14452128608	1
0	5927	1117.226240341206	2
0	5928	1117.276779743941	1
0	5933	1117.458224714358	0
0	5971	1124.13715010507	1
0	5974	1125.188839569321	0
0	6009	1132.13692864756	1
0	6010	1132.598600551976	0
0	6016	1132.617424370531	1
0	6017	1132.788166299459	0
0	6028	1134.04248505656	1
0	6029	1134.175314289223	0
0	6047	1138.750473509369	1
0	6048	1140.347538232699	0
0	6054	1140.430582789044	1
0	6056	1140.928801523659	2
0	6057	1140.978702711817	1
0	6062	1141.174206992329	0
0	6066	1141.580483955127	1
0	6075	1144.181386703531	0
0	6097	1146.996676078876	1
0	6098	1147.303434509157	0
0	6114	1149.940663844608	1
0	6118	1151.225947778659	2
0	6121	1151.43033247859	1
0	6129	1152.630184590669	0
0	6138	1152.955229809132	1
0	6144	1155.202082316034	0
0	6153	1157.148322889747	1
0	6157	1159.71288966925	2
0	6159	1159.784435568879	3
0	6162	1160.337463542116	4
0	6169	1162.274602587937	3
0	6173	1163.547575405839	4
0	6176	1164.489449912725	3
0	6186	1166.229666879121	4
0	6188	1166.282876050289	5
0	6189	1168.944932457852	4
0	6193	1169.029241781483	5
0	6195	1169.178865233144	6
0	6197	1169.480609396571	7
0	6199	1170.075099317382	8
0	6204	1170.925865159649	7
0	6208	1171.850000549654	8
0	6213	1172.542636313586	7
0	6219	1174.020430474721	8
0	6220	1174.080476909855	7
0	6224	1174.207624496321	8
0	6226	1175.689443016493	9
0	6232	1176.190169660229	8
0	6239	1176.888422670787	7
0	6246	1177.637497893457	6
0	6251	1177.722522233655	5
0	6256	1178.277124364434	4
0	6261	1178.59485352185	3
0	6266	1179.434629018326	2
0	6272	1180.846329793458	3
0	6275	1181.234484452516	2
0	6279	1181.676693393098	3
0	6282	1184.5925457704	2
0	6287	1185.879152926833	1
0	6292	1186.245714518816	0
0	6298	1186.785271067894	1
0	6299	1187.57538196495	0
0	6303	1187.842041886016	1
0	6306	1193.129919859794	0
0	6321	1195.550522685391	1
0	6323	1195.761674926425	2
0	6325	1195.968596025945	3
0	6326	1196.113054008017	2
0	6331	1196.682353761207	1
0	6337	1197.697189792196	2
0	6341	1198.970909288872	1
0	6346	1199.245284835639	0
0	6362	1200.636692535483	1
0	6364	1200.690345725715	2
0	6367	1201.090119673889	1
0	6375	1203.002656720008	0
0	6383	1203.843105506921	1
0	6384	1203.87142653926	0
0	6388	1205.927277563756	1
0	6390	1206.403108772409	2
0	6392	1207.036408330405	3
0	6396	1208.519402056537	2
0	6402	1208.556035485228	3
0	6409	1210.963722553403	4
0	6411	1211.069254108372	5
0	6412	1211.429357539391	4
0	6418	1212.430402467633	5
0	6422	1213.331514871174	6
0	6427	1214.73409341634	7
0	6428	1216.720699077308	6
0	6435	1218.071781870686	5
0	6440	1218.527337171925	4
0	6446	1218.620047112607	3
0	6451	1218.670054899047	2
0	6455	1218.74694811141	3
0	6458	1221.123979615069	2
0	6468	1224.656883954252	1
0	6473	1224.91450470813	0
0	6494	1226.200581937863	1
0	6497	1227.849908944104	0
0	6537	1234.131929043563	1
0	6538	1234.14619351637	0
0	6559	1235.516283995266	1
0	6563	1236.177884685437	0
0	6578	1238.196133712006	1
0	6580	1238.407402653038	2
0	6582	1239.396547721014	1
0	6589	1240.496326964814	0
0	6593	1240.765275843852	1
0	6595	1240.791528671749	2
0	6597	1241.060960996299	3
0	6600	1241.274514508369	2
0	6605	1242.567315432489	1
0	6610	1244.597302622209	0
0	6636	1248.901230328389	1
0	6641	1250.007790682861	2
0	6642	1250.15469274789	1
0	6648	1251.169941699533	0
0	6679	1254.364033889594	1
0	6680	1254.724439587646	0
0	6691	1255.438475642518	1
0	6696	1256.980343325334	0
0	6702	1257.305854073749	1
0	6704	1257.835549632758	0
0	6732	1260.298535882025	1
0	6733	1260.372131372638	0
0	6755	1265.475464839168	1
0	6757	1267.775158185758	2
0	6761	1268.805616442446	3
0	6764	1269.968518329806	2
0	6769	1270.19611956776	1
0	6774	1270.202410251205	0
0	6780	1270.382137026439	1
0	6781	1270.593834839195	0
0	6788	1272.458570989824	1
0	6790	1272.655457804502	2
0	6791	1272.940335182445	1
0	6797	1274.331604331056	2
0	6804	1277.038638097704	3
0	6806	1278.167258187598	4
0	6807	1278.183538152119	3
0	6813	1278.373581338154	4
0	6815	1278.545060298588	5
0	6816	1279.332625070845	4
0	6822	1279.508528901278	5
0	6823	1279.844324926719	4
0	6828	1281.539531731876	3
0	6832	1282.310272935667	4
0	6835	1283.799451859746	3
0	6839	1283.960530180944	4
0	6842	1284.579749194592	3
0	6847	1285.103080574073	2
0	6851	1285.296176162081	3
0	6854	1286.434589524819	2
0	6859	1288.055193532551	1
0	6867	1288.958538673393	2
0	6869	1290.493636282553	3
0	6870	1290.526946897772	2
0	6877	1292.304958353187	1
0	6883	1293.139405209818	2
0	6884	1293.577923049376	1
0	6892	1293.930465521013	2
0	6894	1294.809411487746	3
0	6895	1295.367571302343	2
0	6902	1295.862341015516	1
0	6906	1296.185082849366	2
0	6911	1296.882249576652	1
0	6916	1297.8578695406	0
0	6924	1300.020091164182	1
0	6925	1300.380774481794	0
0	6929	1301.18901593403	1
0	6931	1301.547756190377	2
0	6934	1303.385246942815	1
0	6939	1304.700155273472	0
0	6950	1308.286925904987	1
0	6953	1308.428414499154	0
0	6957	1309.717267028499	1
0	6959	1309.742488481153	2
0	6963	1311.189230563215	3
0	6966	1312.704513690453	2
0	6972	1313.352147296082	3
0	6974	1313.388814553322	4
0	6978	1315.296510588216	3
0	6982	1315.397029833373	4
0	6989	1316.530548664157	3
0	6994	1317.278668213474	2
0	7004	1319.274549409313	3
0	7005	1319.289342801108	2
0	7010	1319.587127356744	1
0	7015	1320.538079601481	0
0	7027	1322.541796243356	1
0	7029	1322.798675975953	0
0	7074	1330.618671414169	1
0	7075	1331.719165646763	0
0	7090	1339.050681699236	1
0	7092	1339.613438391097	2
0	7098	1340.867182140404	3
0	7100	1342.218676118287	4
0	7104	1343.146636999042	5
0	7105	1343.333590833698	4
0	7110	1343.444341437216	3
0	7115	1343.671124127196	2
0	7121	1344.508332029282	3
0	7126	1346.772988656568	4
0	7130	1347.484399311277	5
0	7133	1348.634991798412	4
0	7138	1348.727013557595	3
0	7143	1349.528184737792	2
0	7153	1351.821994735702	3
0	7154	1352.415332450098	2
0	7159	1352.977981473977	1
0	7165	1353.384802610303	2
0	7167	1354.616875541224	3
0	7169	1354.870410891936	4
0	7170	1354.950638355709	3
0	7178	1357.21553166107	2
0	7183	1357.817142496224	1
0	7188	1359.313854331968	0
0	7208	1362.429700759729	1
0	7210	1363.388970541119	0
0	7216	1363.65968231671	1
0	7220	1367.029682960736	2
0	7222	1367.410978412425	3
0	7224	1367.58306396386	4
0	7225	1367.968341256272	3
0	7231	1368.094733349421	2
0	7236	1368.262145567064	1
0	7243	1369.118230478148	0
0	7261	1374.141350277363	1
0	7262	1374.504348154735	0
0	7268	1374.557869101428	1
0	7270	1374.959816343835	2
0	7271	1375.443852749631	1
0	7281	1377.752618874586	2
0	7283	1377.931565037654	3
0	7284	1378.572566661339	2
0	7288	1378.809845318964	3
0	7292	1379.558741089145	4
0	7295	1380.128376066841	3
0	7299	1381.014157595518	4
0	7302	1382.343867477618	3
0	7307	1383.651692901084	2
0	7311	1384.743908621124	3
0	7313	1385.982510865315	4
0	7316	1387.559353448931	3
0	7320	1388.161692299814	4
0	7324	1389.689615108114	5
0	7328	1390.296738079944	6
0	7329	1390.476060592808	5
0	7333	1391.451464890265	6
0	7336	1391.933061766565	5
0	7342	1392.977645899727	6
0	7346	1393.969066512299	7
0	7348	1394.830952664433	8
0	7349	1395.770120406653	7
0	7353	1395.975362880564	8
0	7358	1396.379386017873	7
0	7364	1397.887192076574	6
0	7369	1399.208132599384	5
0	7373	1401.335297652677	6
0	7376	1401.421290652056	5
0	7380	1401.650772243511	6
0	7384	1401.675338294691	7
0	7386	1402.537615586819	6
0	7391	1402.715884849448	5
0	7397	1403.677959243173	6
0	7401	1404.435469823138	5
0	7407	1404.619454653745	6
0	7408	1406.389031967404	5
0	7414	1408.045499146802	6
0	7417	1408.177110380872	5
0	7421	1408.244881023622	6
0	7423	1408.338972999169	7
0	7425	1408.461014771556	8
0	7429	1410.847573511888	7
0	7435	1411.472291344109	8
0	7437	1412.398395572202	7
0	7442	1414.015746592345	6
0	7448	1414.814879643068	7
0	7449	1415.481546010623	6
0	7457	1416.461532626233	5
0	7463	1416.796993448765	4
0	7470	1417.071025214663	3
0	7474	1417.650123333516	4
0	7479	1418.356515396514	3
0	7486	1419.258047685532	2
0	7492	1420.958199318682	3
0	7495	1421.548193668185	2
0	7499	1422.139866372114	3
0	7504	1423.605941869752	2
0	7508	1424.104793714902	3
0	7513	1426.78873605489	2
0	7518	1427.613248787248	1
0	7523	1427.689377160109	0
0	7537	1430.304678039849	1
0	7539	1430.478626787395	2
0	7542	1431.22061555558	1
0	7549	1431.691290717412	2
0	7554	1431.960594462332	3
0	7557	1432.326267241641	4
0	7560	1432.933261203537	3
0	7567	1433.226589756875	4
0	7568	1434.52230619174	3
0	7573	1435.533321629778	2
0	7580	1436.506765488926	1
0	7585	1440.137060422681	0
0	7591	1441.176538943539	1
0	7595	1441.685278483731	2
0	7596	1441.693253104607	1
0	7600	1441.896478729847	2
0	7608	1443.629922486982	3
0	7611	1444.24284888195	2
0	7615	1444.421897325795	3
0	7619	1447.442008072185	4
0	7620	1447.603802498192	3
0	7627	1448.271521555834	4
0	7628	1448.920740331694	3
0	7633	1449.034444942715	2
0	7639	1449.333263531012	1
0	7644	1449.7002032281	0
0	7648	1449.905748878262	1
0	7650	1450.039677926616	2
0	7652	1450.478510003794	3
0	7659	1453.227272604334	2
0	7666	1453.708848140214	1
0	7671	1453.831081292856	0
0	7678	1454.223605116015	1
0	7679	1454.504944201421	0
0	7711	1459.991245948464	1
0	7713	1460.050034142159	2
0	7716	1460.535242990075	1
0	7720	1460.638928670747	2
0	7723	1462.210074449827	1
0	7727	1462.310942103267	2
0	7729	1462.384681062903	3
0	7733	1463.731434003445	4
0	7734	1463.801610255935	3
0	7738	1464.261720837119	4
0	7740	1466.249682868258	5
0	7742	1467.608059489021	6
0	7745	1468.035359018077	5
0	7753	1468.535500868752	6
0	7759	1469.916015092794	7
0	7760	1470.322444232632	6
0	7764	1471.502556364757	7
0	7767	1472.185078166554	6
0	7773	1472.732353363675	7
0	7781	1474.440120488202	6
0	7786	1475.772775156202	5
0	7790	1476.670159190863	6
0	7792	1477.823667411253	7
0	7795	1477.916548327958	6
0	7800	1478.44248390524	5
0	7806	1479.041879953715	6
0	7807	1479.074003886857	5
0	7812	1480.279019429332	4
0	7817	1480.904977685445	3
0	7822	1481.586041944793	2
0	7826	1481.629255147789	3
0	7828	1482.687094066804	4
0	7832	1486.092721849575	3
0	7838	1486.97153908665	2
0	7845	1488.036496772628	3
0	7847	1488.074109033843	4
0	7849	1488.181581622286	5
0	7851	1488.238532309708	6
0	7852	1488.728010278294	5
0	7858	1489.424504522324	6
0	7863	1491.705971360328	5
0	7869	1493.937369437532	4
0	7875	1494.077733593667	3
0	7880	1494.319753688873	2
0	7887	1498.069226697703	1
0	7891	1498.55160203898	2
0	7893	1498.988179104596	3
0	7897	1499.183803609657	4
0	7899	1499.801852680786	5
0	7900	1500.199034149902	4
0	7907	1502.337681665517	3
0	7912	1502.692941691875	2
0	7919	1503.696175687302	1
0	7923	1503.961089601165	2
0	7926	1504.85026834137	1
0	7934	1506.123114471098	0
0	7957	1508.717591347252	1
0	7959	1508.762593590552	0
0	7963	1510.154560845094	1
0	7970	1511.580585182954	0
0	7982	1512.079702894093	1
0	7984	1513.126655914329	0
0	7995	1513.971423660314	1
0	7996	1515.934048106017	0
0	8005	1516.512184412563	1
0	8006	1516.81738785258	0
0	8010	1517.70481990674	1
0	8012	1518.399143527856	2
0	8014	1518.693117474889	3
0	8019	1521.303759917519	2
0	8023	1524.151014658378	3
0	8029	1525.803832064537	2
0	8035	1526.124725192924	3
0	8037	1526.827780391781	2
0	8044	1527.25300630175	3
0	8048	1527.965152333435	4
0	8053	1530.251875413493	5
0	8056	1530.95253976378	4
0	8061	1531.348705971827	3
0	8066	1531.882326140472	2
0	8071	1531.924003934921	1
0	8078	1533.659453986523	0
0	8085	1536.326312284048	1
0	8087	1537.930350554198	2
0	8088	1538.022941373609	1
0	8093	1538.025693005375	0
0	8097	1539.578960507189	1
0	8103	1541.414959181227	0
0	8112	1541.833644539299	1
0	8113	1543.061819242011	0
0	8128	1545.041161908158	1
0	8129	1545.248256348731	0
0	8140	1545.68083756101	1
0	8143	1546.53574426808	0
0	8149	1546.622778183197	1
0	8150	1547.705480997292	0
0	8154	1547.888946015912	1
0	8162	1551.826298614131	2
0	8168	1553.652147873989	1
0	8175	1554.34515809578	0
0	8181	1557.46225210009	1
0	8184	1558.936114662046	0
0	8190	1559.08823804143	1
0	8192	1559.435069095357	2
0	8194	1559.67900286307	3
0	8201	1561.661882916235	2
0	8207	1562.140898855246	1
0	8212	1562.651587050281	0
0	8219	1563.337102775781	1
0	8223	1563.466990350214	0
0	8236	1564.319897517321	1
0	8237	1565.092163988313	0
0	8244	1569.595640972377	1
0	8246	1570.08159446378	2
0	8248	1570.173442303956	3
0	8250	1570.324628942764	4
0	8251	1570.336749820806	3
0	8256	1570.716264458767	2
0	8261	1572.357617901752	1
0	8266	1573.066480999989	0
0	8281	1576.234972540371	1
0	8283	1578.886304674704	0
0	8326	1584.995458979432	1
0	8327	1585.328198161937	0
0	8331	1585.531155188114	1
0	8335	1587.722205419003	2
0	8340	1588.381126464581	1
0	8347	1590.095900780331	0
0	8351	1590.167821378022	1
0	8353	1591.01267679085	2
0	8358	1593.135744219287	1
0	8363	1593.418195105821	0
0	8369	1595.473591675708	1
0	8371	1596.125938968173	2
0	8373	1596.578896169307	3
0	8377	1598.848313651631	4
0	8378	1599.172221003227	3
0	8382	1599.25761766828	4
0	8388	1600.521394491846	3
0	8394	1601.166777659422	2
0	8399	1601.313897934196	1
0	8403	1601.487403465279	2
0	8405	1601.737032132609	3
0	8411	1602.831143090549	2
0	8418	1605.166051291075	1
0	8427	1606.263163775614	0
0	8433	1607.214272380199	1
0	8434	1607.5457989863	0
0	8440	1608.874228499409	1
0	8443	1609.509423891272	2
0	8445	1610.253831123331	1
0	8453	1611.58155778981	0
0	8478	1616.602223670099	1
0	8480	1616.761900656832	2
0	8485	1620.071552069519	3
0	8488	1620.596246053955	2
0	8494	1621.372900051502	1
0	8500	1621.907254396548	0
0	8507	1623.291959953002	1
0	8508	1623.758702864948	0
0	8529	1626.3467328952	1
0	8530	1626.582536076271	0
0	8542	1629.681897576831	1
0	8546	1630.765833445278	0
0	8583	1636.103258900273	1
0	8587	1638.677524112372	0
0	8604	1641.245368762089	1
0	8607	1642.146572903153	0
0	8638	1649.054253870437	1
0	8642	1650.759006642716	2
0	8644	1650.822248725687	3
0	8646	1650.897386722951	4
0	8647	1651.309458670332	3
0	8652	1651.35779326764	2
0	8659	1652.182834156277	1
0	8664	1652.99162559914	0
0	8668	1653.28649016859	1
0	8672	1654.539482079515	2
0	8674	1654.998861876221	3
0	8676	1655.674794378347	4
0	8678	1655.875528232989	5
0	8680	1656.107898264079	6
0	8682	1656.827325707171	7
0	8684	1656.828521918872	8
0	8691	1660.996738214978	7
0	8699	1662.998824171091	6
0	8707	1664.549162801894	7
0	8710	1664.708508368142	8
0	8712	1665.25463086448	9
0	8714	1665.819180467878	8
0	8719	1667.519336502487	7
0	8724	1668.388629132323	6
0	8728	1669.314352435351	7
0	8734	1672.080698832911	8
0	8736	1672.969596346216	9
0	8739	1673.393633081862	8
0	8743	1674.956654700065	9
0	8745	1676.165492246283	10
0	8748	1676.620671871062	9
0	8754	1678.070194261324	10
0	8756	1678.417758355808	11
0	8759	1679.144501470379	10
0	8765	1679.939763557046	11
0	8767	1680.137615008631	12
0	8768	1680.376768889488	11
0	8773	1680.49324540401	10
0	8779	1681.546344356375	11
0	8780	1682.407887797368	10
0	8789	1684.794538212447	9
0	8793	1685.365763930317	10
0	8801	1686.711732910808	11
0	8802	1686.749057082219	10
0	8808	1687.691244959702	11
0	8811	1688.223703767721	10
0	8817	1688.339346927342	11
0	8819	1689.173209068215	10
0	8824	1689.253118640304	9
0	8828	1689.805229072474	10
0	8830	1690.447492915554	11
0	8838	1692.671322412339	12
0	8839	1693.171885965424	11
0	8843	1693.657797379377	12
0	8848	1694.810509218775	11
0	8852	1694.930744944409	12
0	8855	1696.207500860504	11
0	8861	1697.373160729339	12
0	8863	1697.723037644477	13
0	8865	1698.328528471493	12
0	8870	1698.5321071036	11
0	8874	1699.044753175463	12
0	8878	1701.137975319006	13
0	8881	1701.530429879664	12
0	8886	1701.658217862562	11
0	8890	1702.357743635927	12
0	8894	1702.875655018395	11
0	8902	1704.443551646477	10
0	8908	1704.92779354227	11
0	8909	1705.159861035511	10
0	8914	1706.264967612898	9
0	8924	1710.799543569448	8
0	8931	1711.134772990683	9
0	8932	1711.216872010573	8
0	8940	1711.888004962351	7
0	8947	1712.369681223375	8
0	8951	1712.672192918799	9
0	8952	1714.492675167863	8
0	8957	1714.704382237955	7
0	8962	1715.069689202482	6
0	8968	1717.591331015256	7
0	8969	1717.927723900003	6
0	8976	1719.422421029645	5
0	8980	1719.820834828742	6
0	8984	1720.95769753367	7
0	8986	1721.040508923634	8
0	8991	1721.741846000867	7
0	9001	1724.373443411382	8
0	9002	1724.709749977613	7
0	9007	1725.378135432239	6
0	9013	1727.07599514094	7
0	9015	1727.095983501139	8
0	9016	1727.598911146004	7
0	9022	1728.321537009258	8
0	9023	1728.486887281535	7
0	9029	1729.449478048611	8
0	9032	1730.20057086097	7
0	9036	1730.820466328807	8
0	9040	1731.70879462289	9
0	9041	1731.72732353892	8
0	9047	1732.599525772021	9
0	9048	1733.600547390918	8
0	9052	1736.135967155337	9
0	9054	1736.349007314973	10
0	9060	1738.069665234692	11
0	9062	1739.010509537464	10
0	9067	1739.764414622118	9
0	9072	1740.549968386374	8
0	9077	1742.674158198196	7
0	9082	1743.168081521212	6
0	9086	1743.516585667352	7
0	9092	1746.752582619524	6
0	9097	1746.780687502931	5
0	9102	1746.953358562937	4
0	9107	1747.227448095449	3
0	9111	1748.531321134343	4
0	9116	1750.172366966346	3
0	9123	1750.902821028686	4
0	9124	1751.159340575531	3
0	9130	1751.577360615282	4
0	9132	1751.694397850179	3
0	9138	1751.774104133745	4
0	9142	1752.487124241921	3
0	9147	1752.538189327114	2
0	9155	1753.392615671374	3
0	9156	1754.228703884418	2
0	9169	1759.381334552522	1
0	9173	1759.402813866933	2
0	9175	1759.611880874352	3
0	9181	1760.084045921647	2
0	9188	1760.266916489463	3
0	9189	1760.351762363274	2
0	9195	1761.048326690521	1
0	9200	1761.65823103871	0
0	9212	1763.108038959042	1
0	9213	1763.206801483832	0
0	9217	1763.282487177789	1
0	9221	1764.769808386615	0
0	9227	1765.141647187303	1
0	9228	1765.493509451141	0
0	9232	1766.514147830295	1
0	9238	1768.432112034137	0
0	9244	1768.644921157188	1
0	9247	1770.628231879972	0
0	9258	1772.022004400016	1
0	9260	1772.186302804361	0
0	9264	1772.30764450764	1
0	9267	1774.25179238596	0
0	9285	1776.342472699016	1
0	9286	1777.006827336828	0
0	9292	1777.327830335432	1
0	9293	1777.890681885483	0
0	9311	1779.442234000118	1
0	9316	1780.140104652727	0
0	9322	1780.755156991564	1
0	9323	1781.363834105914	0
0	9329	1781.453211665025	1
0	9330	1781.99440945716	0
0	9341	1782.925047153296	1
0	9343	1783.304334245865	2
0	9345	1783.753468303399	3
0	9347	1784.257033020404	2
0	9354	1784.641421674603	1
0	9364	1786.853846930435	0
0	9384	1788.480501737232	1
0	9391	1790.316258886971	0
0	9402	1791.4225093833	1
0	9403	1792.361377426046	0
0	9429	1795.094174488091	1
0	9431	1795.222078967502	2
0	9439	1796.564080914064	1
0	9444	1796.565513439747	0
0	9477	1799.75682261189	1
0	9478	1799.835255183864	0
0	9501	1802.972209695049	1
0	9503	1804.443623349794	2
0	9504	1805.669838946367	1
0	9509	1805.913685557899	0
0	9532	1808.425365112021	1
0	9535	1809.921717766257	2
0	9538	1810.409803802976	3
0	9540	1810.446486730873	4
0	9542	1811.280254265133	3
0	9547	1811.35942954217	2
0	9553	1811.473107914989	3
0	9555	1811.547085179947	2
0	9560	1811.664135424049	1
0	9565	1811.902162533195	0
0	9599	1818.672453157034	1
0	9600	1818.911212746445	0
0	9628	1821.653303601211	1
0	9632	1822.394076896282	2
0	9634	1822.516784218121	3
0	9642	1824.074762414538	2
0	9649	1824.480706566178	3
0	9650	1824.641791579038	2
0	9655	1824.711010240533	1
0	9660	1825.252724315227	0
0	9707	1831.866682952415	1
0	9711	1833.003826404057	2
0	9712	1834.088042988413	1
0	9717	1834.845498282945	0
0	9727	1836.904445708401	1
0	9731	1837.407382647048	2
0	9735	1838.59692655648	1
0	9740	1839.107001683567	0
0	9756	1840.690952461851	1
0	9758	1840.807837831817	2
0	9764	1843.651390402624	1
0	9773	1846.087444031613	0
0	9779	1846.185930178709	1
0	9781	1846.78174581975	0
0	9812	1852.41428690148	1
0	9813	1852.932805502942	0
0	9842	1858.104033449337	1
0	9844	1858.453713639145	2
0	9846	1859.075695631615	3
0	9848	1859.077380944767	4
0	9851	1860.161187103955	3
0	9856	1860.23636256842	2
0	9861	1860.274722285706	1
0	9866	1860.362315353915	0
0	9874	1861.458688535132	1
0	9877	1863.080302581207	0
0	9893	1863.890406814323	1
0	9894	1864.06083358452	0
0	9905	1864.205790708738	1
0	9907	1864.716351508522	0
0	9916	1865.373214057894	1
0	9918	1865.980749761425	0
0	9930	1867.055168351285	1
0	9933	1867.371622164583	0
0	9955	1868.517458615769	1
0	9957	1869.343226694956	0
0	9963	1869.344847013922	1
0	9964	1869.534322592662	0
0	9971	1870.20373357618	1
0	9973	1871.291800329783	2
0	9976	1871.858788662378	1
0	9983	1873.457539520031	0
0	9987	1873.671714079987	1
0	9992	1874.593359226092	0
0	9998	1875.526675828061	1
0	9999	1875.617034982146	0
0	10003	1876.283477741105	1
0	10005	1876.872995697292	2
0	10009	1877.221997703655	1
0	10014	1877.298877204719	0
0	10045	1881.790722349292	1
0	10047	1882.023008988778	2
0	10048	1882.773560739445	1
0	10057	1885.292316596702	2
0	10058	1886.086966468696	1
0	10063	1886.131804516368	0
0	10082	1887.924071889802	1
0	10084	1888.829429157423	0
0	10096	1889.415485834261	1
0	10099	1889.824384841855	0
0	10123	1892.230819122617	1
0	10125	1892.283818950261	2
0	10131	1894.837812591373	1
0	10136	1895.020673861427	0
0	10163	1897.077103735373	1
0	10165	1897.425020115269	2
0	10167	1898.195267882684	1
0	10172	1898.693664726803	0
0	10198	1901.077903214202	1
0	10199	1901.473669167238	0
0	10208	1902.242987511971	1
0	10217	1904.761151034865	2
0	10220	1906.466097679524	3
0	10222	1906.769970747882	4
0	10223	1907.498234868238	3
0	10230	1907.69641450955	2
0	10235	1907.919649291167	1
0	10241	1907.971059363166	2
0	10242	1908.563633629851	1
0	10249	1909.510553248024	0
0	10280	1913.361050709486	1
0	10285	1914.236669463365	2
0	10286	1914.528446695396	1
0	10291	1914.652344287882	0
0	10300	1915.499840926002	1
0	10304	1916.521624157629	2
0	10308	1917.866437868343	3
0	10311	1918.738197712463	2
0	10316	1919.378005824106	1
0	10326	1922.076417258412	2
0	10328	1922.371785852446	3
0	10330	1922.630425345813	2
0	10335	1922.834553357812	1
0	10343	1924.728619115783	2
0	10344	1925.52022090956	1
0	10349	1925.694783957213	0
0	10353	1926.514778256911	1
0	10356	1928.338352233683	0
0	10377	1931.924680503591	1
0	10379	1933.087959793439	2
0	10385	1935.53989080678	1
0	10390	1935.762122234591	0
0	10419	1940.954310046189	1
0	10422	1942.316597579838	0
0	10439	1943.357314698378	1
0	10443	1944.435849120599	2
0	10446	1945.504186628386	1
0	10451	1945.512759863707	0
0	10467	1948.382421806102	1
0	10468	1948.489221869497	0
0	10475	1948.768178683368	1
0	10477	1949.337784790968	2
0	10478	1949.551461405963	1
0	10483	1950.043320765344	0
0	10489	1950.891446918184	1
0	10491	1951.37954391095	2
0	10493	1952.925508851381	3
0	10495	1953.029788254385	4
0	10501	1954.368408070129	5
0	10505	1955.687264806183	6
0	10507	1956.954171745178	7
0	10511	1958.325053925617	8
0	10519	1959.787708097982	9
0	10521	1960.707925870552	10
0	10522	1961.008323351948	9
0	10527	1961.645228119563	8
0	10533	1962.469869411895	7
0	10537	1962.501181225201	8
0	10539	1962.563066125686	9
0	10543	1963.04210049883	8
0	10549	1963.47377483849	7
0	10554	1964.246620730988	6
0	10559	1964.667288787411	5
0	10565	1965.210874352262	4
0	10572	1965.455508508234	5
0	10577	1966.157459014931	4
0	10587	1969.929885625346	3
0	10593	1970.084620723895	4
0	10594	1970.24187524761	3
0	10600	1971.403963907065	2
0	10607	1971.789611193887	3
0	10609	1972.358132663627	2
0	10615	1972.396399602543	3
0	10617	1972.878144459505	2
0	10622	1972.947252490332	1
0	10631	1974.186896193542	0
0	10676	1978.033811885144	1
0	10679	1983.002113030275	0
0	10685	1983.495912379033	1
0	10686	1984.764400724468	0
0	10696	1987.789683107712	1
0	10698	1987.79197807725	2
0	10699	1987.815293964807	1
0	10706	1988.638603646271	2
0	10707	1988.946060133263	1
0	10715	1990.472545952745	2
0	10716	1990.630424135186	1
0	10721	1991.119033821819	0
0	10728	1991.421776956575	1
0	10730	1991.53038823286	2
0	10731	1991.837510848889	1
0	10738	1993.450079379933	0
0	10744	1993.50642065791	1
0	10746	1994.267210181845	0
0	10760	1998.205136151239	1
0	10764	1999.283472891628	2
0	10765	2000.914821678853	1
0	10769	2000.947319407183	2
0	10771	2001.638432519051	3
0	10773	2001.685779109273	4
0	10777	2001.976244449442	5
0	10778	2003.114044366039	4
0	10790	2004.909711943261	5
0	10794	2007.477762651022	4
0	10799	2008.229840873107	3
0	10803	2008.304797900885	4
0	10805	2009.123652270726	5
0	10808	2010.076728430608	4
0	10812	2010.397818334008	5
0	10814	2011.756645825901	6
0	10817	2013.13943733191	5
0	10822	2015.074235966255	4
0	10829	2015.966922917616	3
0	10833	2016.805739486061	4
0	10837	2017.074177186462	5
0	10839	2017.515871919093	4
0	10844	2018.250341267748	3
0	10848	2019.60482706896	4
0	10856	2020.98848888753	3
0	10861	2021.367831583286	2
0	10867	2021.716125899062	1
0	10872	2023.036891016295	0
0	10876	2027.542300342559	1
0	10879	2028.767643137953	0
0	10885	2029.379468300346	1
0	10891	2031.193051707991	0
0	10897	2031.251778371462	1
0	10898	2031.445765071312	0
0	10911	2032.557932758892	1
0	10913	2033.135972693942	0
0	10917	2033.948709445341	1
0	10920	2034.439160632151	0
0	10944	2035.899885786165	1
0	10945	2036.092990527776	0
0	10951	2036.492618761209	1
0	10954	2038.051885726166	0
0	10958	2038.542717020471	1
0	10960	2040.126849071742	2
0	10963	2040.919923531577	1
0	10967	2041.03559733405	2
0	10971	2041.516322664056	3
0	10975	2041.898759803054	4
0	10977	2042.188115610353	5
0	10979	2042.197662718462	6
0	10984	2042.930333901809	5
0	10990	2043.131238334054	6
0	10993	2044.650263214154	5
0	11001	2045.330906971655	4
0	11007	2046.755089953723	3
0	11013	2046.858011646286	4
0	11014	2046.885799732131	3
0	11018	2047.34058276031	4
0	11025	2050.417328528256	3
0	11030	2051.246498313753	2
0	11035	2051.839738342177	1
0	11039	2052.622491673392	2
0	11050	2056.726284965515	1
0	11060	2059.549411783006	2
0	11061	2059.644436960752	1
0	11067	2059.928248906753	2
0	11069	2060.189537179275	3
0	11073	2061.067946742229	4
0	11077	2061.322849706082	5
0	11078	2061.363948990232	4
0	11082	2061.920031342723	5
0	11084	2061.975485641838	6
0	11086	2062.645501636459	7
0	11090	2063.652946715308	8
0	11095	2064.783441201974	7
0	11103	2065.502854287495	8
0	11105	2066.046206332433	9
0	11107	2066.089229763073	10
0	11108	2066.388496403443	9
0	11114	2067.49128212612	10
0	11116	2067.865586876212	11
0	11118	2068.284314913894	12
0	11120	2068.295182269499	13
0	11121	2068.347472986842	12
0	11126	2069.339954042901	11
0	11130	2069.631552548648	12
0	11133	2070.36411583584	11
0	11139	2070.929390878331	12
0	11140	2071.736764214009	11
0	11144	2072.102511946222	12
0	11146	2073.325586096217	13
0	11151	2074.889757927159	12
0	11159	2075.746082664611	13
0	11161	2077.223771117568	12
0	11167	2077.411055993695	13
0	11168	2077.514274879195	12
0	11174	2078.804983096368	13
0	11176	2080.717940295579	14
0	11178	2080.982376561243	15
0	11180	2080.998379324993	16
0	11185	2082.577076591379	15
0	11191	2082.8136592803	16
0	11192	2083.210746280389	15
0	11197	2084.410320968907	14
0	11202	2085.113899259749	13
0	11208	2086.195090946879	12
0	11213	2086.272024157157	11
0	11220	2086.706651367353	10
0	11226	2086.783275410096	11
0	11228	2087.194086875628	12
0	11230	2088.33984938404	13
0	11233	2088.755076203901	12
0	11242	2089.800770863807	13
0	11243	2090.085221084028	12
0	11248	2090.5443027304	11
0	11252	2091.696054140247	12
0	11255	2094.057380102876	11
0	11262	2095.26988746014	10
0	11266	2095.389594770963	11
0	11270	2095.585942141046	12
0	11271	2096.458167883809	11
0	11275	2098.620322532877	12
0	11281	2099.621095137186	11
0	11287	2100.102564227247	12
0	11288	2100.680918004585	11
0	11296	2102.792211165024	12
0	11301	2103.093433256634	11
0	11307	2106.082609177003	10
0	11312	2106.399452150874	9
0	11316	2106.484222081359	10
0	11318	2106.531020256601	11
0	11322	2107.271279537851	10
0	11327	2107.504545059498	9
0	11331	2107.646248511975	10
0	11336	2109.362525243181	9
0	11341	2109.511964952839	8
0	11345	2109.873549991091	9
0	11347	2110.826527861076	10
0	11351	2112.302607189994	11
0	11352	2112.383502468976	10
0	11358	2114.096327370316	9
0	11363	2115.154932954639	8
0	11367	2115.171253557167	9
0	11371	2115.582494784197	10
0	11372	2115.687503454102	9
0	11376	2115.849999396164	10
0	11379	2116.175089128523	9
0	11385	2118.689930641748	10
0	11387	2118.723776131284	11
0	11388	2118.839533466459	10
0	11393	2120.667860204031	9
0	11398	2121.235589040305	8
0	11402	2122.104363701397	9
0	11404	2123.704772275785	10
0	11406	2123.894533464037	11
0	11408	2124.251241856452	12
0	11410	2124.786752421327	13
0	11413	2127.985014398307	12
0	11417	2129.024612170659	13
0	11420	2131.52771982981	12
0	11424	2131.857047614502	13
0	11426	2132.151387301658	14
0	11430	2134.174103205029	15
0	11434	2139.268855012472	14
0	11440	2139.358919027105	13
0	11445	2139.372323254619	12
0	11450	2140.968646602679	11
0	11456	2141.357006837055	12
0	11457	2141.842135844238	11
0	11462	2144.861280899946	10
0	11467	2145.784441977389	9
0	11471	2145.895014222163	10
0	11474	2148.430031821541	9
0	11479	2150.402741235647	8
0	11485	2152.6033768203	9
0	11488	2154.700579116811	8
0	11495	2157.213475555012	7
0	11499	2157.463724367678	8
0	11501	2157.47794718182	9
0	11503	2158.540680321142	10
0	11505	2158.719530372409	11
0	11511	2160.862058327603	12
0	11517	2165.124315941678	13
0	11518	2165.785977797235	12
0	11523	2166.03496818662	11
0	11531	2166.173370262118	12
0	11534	2167.136925152726	11
0	11540	2167.548511122421	12
0	11541	2167.898505950068	11
0	11547	2169.065623811297	10
0	11552	2169.202578107596	9
0	11558	2170.448522763429	10
0	11562	2170.887823867845	11
0	11563	2170.942517597825	10
0	11567	2172.101484639293	11
0	11572	2173.695248613692	10
0	11576	2175.293964291654	11
0	11584	2176.294033647358	10
0	11591	2176.651757050664	11
0	11595	2177.925223218109	10
0	11600	2178.230787271706	9
0	11605	2178.646242404861	8
0	11609	2179.056968247506	9
0	11616	2182.415948970988	8
0	11622	2184.199545807729	7
0	11628	2185.127623106409	6
0	11634	2186.825892990533	5
0	11640	2187.397511745718	4
0	11645	2187.605952628572	3
0	11651	2188.324150267838	2
0	11656	2188.786466260387	1
0	11662	2191.069390919682	0
0	11674	2191.474441617969	1
0	11675	2191.580713829755	0
0	11681	2192.30676096914	1
0	11682	2192.624360440204	0
0	11701	2195.474283017124	1
0	11702	2195.494673964393	0
0	11716	2197.765808883231	1
0	11717	2197.86476506959	0
0	11728	2198.320986915665	1
0	11730	2198.908870165943	2
0	11733	2199.798251571792	1
0	11739	2200.192982894403	2
0	11743	2201.144823227826	1
0	11748	2201.296177388938	0
0	11759	2202.010456458567	1
0	11763	2202.747900409982	2
0	11765	2203.476951732138	1
0	11772	2204.151646980987	2
0	11773	2204.809253081441	1
0	11778	2205.285477086124	0
0	11789	2205.713405991503	1
0	11792	2206.827742795541	2
0	11793	2206.844574876981	1
0	11798	2206.863984325204	0
0	11812	2207.631633054824	1
0	11820	2208.81175512811	0
0	11826	2209.356412713148	1
0	11831	2210.130356719821	2
0	11833	2212.226104872319	3
0	11834	2212.633334868752	2
0	11839	2213.72597912797	1
0	11844	2213.875283753379	0
0	11852	2215.591129862651	1
0	11853	2216.022472616181	0
0	11865	2217.18056823588	1
0	11867	2217.603122848048	0
0	11874	2218.69519486395	1
0	11876	2219.865661759988	2
0	11877	2220.473919147663	1
0	11883	2220.540892855921	2
0	11885	2221.934533716712	1
0	11891	2222.404231315584	0
0	11916	2225.192809057439	1
0	11920	2225.627055144628	2
0	11924	2226.010212189736	3
0	11925	2226.139657262229	2
0	11933	2226.859056301742	1
0	11941	2228.103401111225	0
0	11952	2229.066959147911	1
0	11954	2229.720389934787	0
0	11962	2231.200786509044	1
0	11965	2232.676937168819	0
0	11983	2233.999012672917	1
0	11984	2234.630634644659	0
0	11993	2235.534880587919	1
0	11995	2235.633490138418	2
0	11997	2236.39584363878	3
0	12000	2236.577738229446	2
0	12006	2236.773932407726	3
0	12008	2237.767463855798	4
0	12011	2238.933066235099	5
0	12014	2240.108165139812	4
0	12019	2240.284179407739	3
0	12025	2240.437011893052	4
0	12026	2240.443252999959	3
0	12031	2241.49197073136	2
0	12039	2241.939290650928	1
0	12044	2242.293053703726	0
0	12054	2242.976919710627	1
0	12057	2243.768870557843	2
0	12059	2243.809492028215	3
0	12060	2243.859590823499	2
0	12068	2245.238123388116	3
0	12069	2245.250469080974	2
0	12074	2245.276632455316	1
0	12078	2246.569667168285	2
0	12081	2247.560006860675	1
0	12087	2248.9313493486	0
0	12109	2252.076735534946	1
0	12111	2253.481682538853	2
0	12116	2254.017687350842	3
0	12118	2254.095287516823	4
0	12119	2254.240965948841	3
0	12125	2255.407098620513	2
0	12130	2255.696227423691	1
0	12135	2255.806782999244	0
0	12148	2257.844928508883	1
0	12149	2257.92395859804	0
0	12155	2258.126014409796	1
0	12160	2260.40849294986	0
0	12172	2261.258825348129	1
0	12173	2261.826613413861	0
0	12192	2262.75862569291	1
0	12196	2264.480028971772	2
0	12198	2264.683222456384	3
0	12199	2265.020661427489	2
0	12205	2265.177102170258	1
0	12210	2265.33576416528	0
0	12265	2274.387537750701	1
0	12266	2274.555314675717	0
0	12277	2275.643518424949	1
0	12278	2276.634732781475	0
0	12291	2277.674782303765	1
0	12292	2277.732468773495	0
0	12298	2278.135673243969	1
0	12300	2278.709222361787	0
0	12322	2280.955507276486	1
0	12327	2281.395243357023	0
0	12341	2284.472329403575	1
0	12343	2284.891052452239	2
0	12350	2287.067132974159	1
0	12354	2287.789968126158	2
0	12359	2289.002758506671	1
0	12364	2290.200943422793	0
0	12381	2293.679385073904	1
0	12389	2294.482472027815	0
0	12396	2294.924403231153	1
0	12397	2295.090347867903	0
0	12415	2297.105862065736	1
0	12418	2297.678339620826	2
0	12419	2297.830891653509	1
0	12424	2298.216331674605	0
0	12460	2304.107943831269	1
0	12465	2305.786941596299	0
0	12472	2307.534905796067	1
0	12473	2307.897591092735	0
0	12483	2310.195627097312	1
0	12484	2310.532229957312	0
0	12498	2311.505810061483	1
0	12499	2312.126379820735	0
0	12512	2314.721415117576	1
0	12513	2316.267468151841	0
0	12532	2318.49567173434	1
0	12533	2319.112673584692	0
0	12553	2321.576282237528	1
0	12555	2322.419894491128	2
0	12559	2322.940439838623	3
0	12562	2324.581624466779	2
0	12567	2325.170930501588	1
0	12572	2325.495025561805	0
0	12578	2328.008861284217	1
0	12581	2328.481816465695	0
0	12585	2330.00910513329	1
0	12588	2330.306248332731	0
0	12613	2336.348186322027	1
0	12615	2336.553538721231	2
0	12618	2336.829000064718	1
0	12623	2338.195133365513	0
0	12627	2338.314374748169	1
0	12635	2339.745804069656	2
0	12639	2341.232488598506	1
0	12644	2341.362624853578	0
0	12663	2342.304436362761	1
0	12665	2343.132220866293	0
0	12672	2343.611876705955	1
0	12675	2344.068416121701	0
0	12681	2345.651477166647	1
0	12687	2346.129452403827	0
0	12703	2350.113000549406	1
0	12704	2350.776017093573	0
0	12730	2355.117799812418	1
0	12734	2356.330197411137	2
0	12735	2356.759995198135	1
0	12744	2357.41297157312	0
0	12756	2357.868769258365	1
0	12757	2357.880963050233	0
0	12777	2360.081919215308	1
0	12778	2360.286024622981	0
0	12812	2363.10603978594	1
0	12816	2365.31805997076	2
0	12817	2365.329962485264	1
0	12823	2365.916287084806	2
0	12825	2366.641081475414	3
0	12830	2367.421494318212	4
0	12831	2367.487320064863	3
0	12838	2367.909191168011	4
0	12839	2368.074268000548	3
0	12844	2368.762113111832	2
0	12849	2368.783140510812	1
0	12856	2370.091146024091	0
0	12863	2370.56996665702	1
0	12864	2371.264346161566	0
0	12883	2374.055181453951	1
0	12884	2374.957321926349	0
0	12910	2380.004194624622	1
0	12916	2381.475931609851	2
0	12918	2381.632618663045	3
0	12920	2383.370273044736	2
0	12928	2385.17962814616	1
0	12934	2385.862053971366	2
0	12936	2386.60006958189	1
0	12943	2386.674821080937	2
0	12946	2386.976870685268	1
0	12952	2388.317542789359	0
0	12982	2392.053227805712	1
0	12984	2392.056791861512	2
0	12985	2394.761957803775	1
0	12990	2394.850983665841	0
0	12999	2395.557675892896	1
0	13004	2396.085815334173	2
0	13010	2397.879489806487	3
0	13011	2398.706140283111	2
0	13016	2399.544033444922	1
0	13021	2399.563929631135	0
0	13032	2400.003701101959	1
0	13033	2400.093045033256	0
0	13048	2403.457434851424	1
0	13049	2403.476709884183	0
0	13058	2404.177515731945	1
0	13063	2405.139962317011	2
0	13066	2406.202651369603	3
0	13068	2406.425979458765	4
0	13070	2406.874238964161	5
0	13071	2406.933002969511	4
0	13077	2407.958079001354	3
0	13083	2408.5696297325	4
0	13087	2409.380713488491	5
0	13088	2410.942066831856	4
0	13092	2411.471644356178	5
0	13098	2412.296491737575	4
0	13104	2412.597285474364	5
0	13107	2413.575011370897	4
0	13114	2413.976251387268	3
0	13120	2414.619132290985	4
0	13121	2416.464926920225	3
0	13127	2419.122450625941	4
0	13129	2419.279732016088	5
0	13133	2420.847361114645	6
0	13136	2421.298687220813	5
0	13141	2421.732281789915	4
0	13145	2422.069394265928	5
0	13147	2422.794826477328	6
0	13153	2426.773194514672	5
0	13159	2427.086503303862	4
0	13167	2427.584496517661	5
0	13169	2427.71249746063	6
0	13171	2427.895109027948	7
0	13172	2428.447714160556	6
0	13176	2430.256532776161	7
0	13178	2430.643000087632	8
0	13187	2432.047903089268	9
0	13188	2432.585531713848	8
0	13194	2433.240252345136	7
0	13199	2433.66053305558	6
0	13206	2434.28375142771	5
0	13211	2434.447757289204	4
0	13216	2434.945271691657	3
0	13225	2438.225898230591	2
0	13231	2438.388717918736	3
0	13234	2438.623011757185	2
0	13238	2438.641023232172	3
0	13240	2442.603133437161	4
0	13243	2442.766857244938	3
0	13249	2443.765049877336	4
0	13254	2446.417519678031	3
0	13260	2447.239837713204	4
0	13263	2447.358264667558	3
0	13270	2449.7311776036	4
0	13271	2450.38459910439	3
0	13277	2450.684879279283	4
0	13280	2451.505420210255	3
0	13287	2452.683575666467	2
0	13295	2457.336322985077	3
0	13296	2457.337786123746	2
0	13302	2458.094402834963	3
0	13303	2458.507254468116	2
0	13308	2458.85913824308	1
0	13312	2459.720947853415	2
0	13316	2460.486675959811	1
0	13321	2460.565045143893	0
0	13332	2461.022020652495	1
0	13336	2462.934604133458	0
0	13354	2463.481775907903	1
0	13355	2463.681853883693	0
0	13375	2465.687754271945	1
0	13379	2466.796948809771	0
0	13390	2467.056234587153	1
0	13392	2467.74947912436	0
0	13406	2470.421513288971	1
0	13408	2471.284196748596	0
0	13444	2475.111044678975	1
0	13447	2476.254177294237	0
0	13463	2478.206788572786	1
0	13467	2478.929435368369	2
0	13471	2479.682558715674	3
0	13476	2482.22237388912	2
0	13481	2482.745826714874	1
0	13486	2482.806474098616	0
0	13492	2482.999862857993	1
0	13493	2483.010212069857	0
0	13507	2485.137809206251	1
0	13509	2485.381476045188	2
0	13512	2485.842427017204	3
0	13514	2486.09804918396	4
0	13515	2486.420291860276	3
0	13521	2487.243726126275	2
0	13527	2488.945790127762	1
0	13532	2489.145632080679	0
0	13546	2490.177877223953	1
0	13547	2490.423907300942	0
0	13599	2497.087302251761	1
0	13600	2497.693477152759	0
0	13638	2503.730061619869	1
0	13640	2503.880581300692	2
0	13641	2503.927722624197	1
0	13646	2505.093481287507	0
0	13659	2507.109336270444	1
0	13661	2507.68472740634	0
0	13678	2509.056860729761	1
0	13682	2510.115239260442	2
0	13683	2511.877018498366	1
0	13688	2512.07540360672	0
0	13708	2516.055302280967	1
0	13710	2517.856450305028	2
0	13714	2518.367629592424	3
0	13715	2520.162982138344	2
0	13720	2520.729082624155	1
0	13725	2521.57787770278	0
0	13743	2525.207315382987	1
0	13744	2526.133918232246	0
0	13752	2529.228277472947	1
0	13758	2530.094790237264	2
0	13759	2531.296854157661	1
0	13765	2531.315888435693	2
0	13767	2531.609948850297	1
0	13774	2532.435188524668	2
0	13776	2533.128494655855	3
0	13777	2533.297542223524	2
0	13783	2533.386400115481	3
0	13784	2534.25080936009	2
0	13789	2534.570214301708	1
0	13793	2535.234791645306	2
0	13796	2536.596125838981	1
0	13800	2540.334514360395	2
0	13807	2541.458522519334	1
0	13812	2541.767804286313	0
0	13823	2543.161175317196	1
0	13824	2544.600647752402	0
0	13828	2545.308743982818	1
0	13832	2545.67390013654	2
0	13836	2546.124626665451	3
0	13841	2547.255574603998	4
0	13842	2547.268177555637	3
0	13846	2547.365773864295	4
0	13851	2550.304442098068	3
0	13859	2552.282636825913	2
0	13864	2552.423539163418	1
0	13869	2552.568603332988	0
0	13880	2553.453201449491	1
0	13882	2554.368582951513	2
0	13884	2554.413708242273	3
0	13886	2554.806107335328	4
0	13888	2555.232059253638	3
0	13894	2555.771299939472	4
0	13895	2556.253139482334	3
0	13901	2558.11491022072	2
0	13907	2560.32055479335	3
0	13908	2560.377215676096	2
0	13912	2560.985403751087	3
0	13914	2564.065966147281	4
0	13916	2564.705662953761	5
0	13918	2565.425646652572	6
0	13920	2566.854852823539	7
0	13924	2568.520950408202	8
0	13926	2569.19374158557	9
0	13932	2571.074062256632	10
0	13938	2572.465672312113	11
0	13939	2572.666981662351	10
0	13946	2574.460798078994	9
0	13953	2575.39036870376	8
0	13958	2576.644399203527	7
0	13962	2576.93814471423	8
0	13965	2577.062261678121	7
0	13976	2578.941637795189	6
0	13981	2579.004760918037	5
0	13986	2579.030879551837	4
0	13992	2579.450383651676	5
0	13995	2582.685067844891	4
0	13999	2584.139535810312	5
0	14003	2584.896243882296	6
0	14006	2585.654661498636	7
0	14008	2586.121367377683	6
0	14013	2586.122626249905	5
0	14019	2587.462114046918	4
0	14024	2587.700304226245	3
0	14032	2589.08665045952	4
0	14033	2590.583683059083	3
0	14037	2591.100978396776	4
0	14044	2595.02196964068	5
0	14046	2595.661623572055	6
0	14047	2595.857432867908	5
0	14052	2596.028706686784	4
0	14058	2596.457478101287	5
0	14064	2598.692188703667	4
0	14070	2599.60411126872	5
0	14071	2600.123232123555	4
0	14079	2600.624948510883	5
0	14080	2601.726648445841	4
0	14087	2602.384410461067	3
0	14092	2602.581620020317	2
0	14099	2603.12014984755	3
0	14101	2603.764110534553	2
0	14109	2605.471705284396	1
0	14114	2605.585541788752	0
0	14156	2612.122510139265	1
0	14158	2612.736202505688	0
0	14165	2613.013192483936	1
0	14168	2613.858067803209	0
0	14182	2616.267197007719	1
0	14183	2616.475208321413	0
0	14229	2624.25290899474	1
0	14232	2624.886795455706	0
0	14255	2626.822217195398	1
0	14256	2628.249678119759	0
0	14290	2635.69208248553	1
0	14292	2637.197669640414	2
0	14297	2638.78046979112	1
0	14303	2638.793712146286	2
0	14304	2639.313906707846	1
0	14311	2639.502217744162	2
0	14316	2640.451614584012	3
0	14317	2640.554467328592	2
0	14324	2641.181294897212	3
0	14326	2641.191988275039	4
0	14327	2641.480651928235	3
0	14334	2643.016973597379	2
0	14339	2643.183013507684	1
0	14344	2643.233790603799	0
0	14364	2645.087320843427	1
0	14367	2645.251165731945	0
0	14373	2648.162920496621	1
0	14378	2650.433796130097	0
0	14398	2653.538883554068	1
0	14403	2654.7608819659	0
0	14411	2655.057614603	1
0	14414	2655.420914401245	0
0	14425	2657.475615779351	1
0	14429	2658.200496698463	2
0	14430	2659.579718921455	1
0	14435	2660.059732258708	0
0	14456	2663.115278451559	1
0	14458	2663.52588008178	2
0	14461	2664.610087709739	3
0	14462	2665.064985540611	2
0	14467	2665.254157227977	1
0	14474	2666.57580707244	2
0	14475	2667.103927648171	1
0	14480	2667.802722772059	0
0	14495	2669.963648048349	1
0	14498	2670.430533852657	2
0	14499	2670.527060495183	1
0	14503	2672.823815424538	2
0	14505	2673.508628141962	3
0	14508	2674.158604429277	2
0	14513	2675.34319746269	1
0	14520	2677.125002829679	0
0	14544	2678.502090012659	1
0	14545	2678.999214249973	0
0	14572	2681.484575305084	1
0	14575	2681.989955498449	0
0	14595	2687.485388872264	1
0	14598	2687.933284450958	0
0	14607	2688.591909471123	1
0	14611	2688.70061788674	2
0	14614	2688.981578732583	1
0	14620	2689.54738312833	0
0	14631	2689.891749045924	1
0	14634	2691.47878412324	0
0	14649	2694.079235154724	1
0	14654	2696.353488860148	0
0	14658	2697.24250247204	1
0	14662	2698.702893686589	2
0	14665	2699.406074272461	1
0	14670	2699.88438444314	0
0	14698	2705.946826756242	1
0	14699	2706.100927636444	0
0	14710	2706.864184225315	1
0	14714	2708.205349022752	0
0	14762	2718.906918047033	1
0	14763	2719.071293005963	0
0	14780	2720.596648898203	1
0	14782	2721.168860004053	2
0	14785	2721.313479618566	1
0	14790	2721.383355067748	0
0	14796	2722.123199414711	1
0	14798	2722.593795250471	2
0	14801	2723.160664869482	3
0	14804	2723.65137732739	4
0	14806	2724.005931653318	5
0	14810	2725.183130074636	4
0	14816	2725.987038903457	3
0	14821	2726.053443647184	2
0	14828	2726.250499204226	3
0	14829	2726.431086566348	2
0	14836	2727.516376648484	1
0	14841	2727.725122879735	0
0	14854	2729.141051369291	1
0	14857	2729.773638545359	2
0	14859	2730.35686478012	1
0	14864	2730.435874578511	0
0	14880	2732.122624043377	1
0	14883	2733.141896638945	0
0	14889	2733.221731177608	1
0	14891	2734.594717176284	0
0	14900	2734.940096012086	1
0	14902	2735.477978363335	2
0	14906	2737.834520029762	1
0	14911	2738.409754169454	0
0	14918	2738.866771366932	1
0	14920	2739.247650749072	0
0	14932	2740.911185228931	1
0	14933	2741.04964565103	0
0	14958	2746.524772444681	1
0	14959	2746.767344588056	0
0	14965	2746.804223748962	1
0	14967	2747.552187991409	0
0	15009	2757.761759289847	1
0	15011	2757.942548411311	2
0	15013	2758.304467847136	3
0	15015	2758.672996361177	4
0	15019	2760.430450790483	3
0	15026	2762.088312057699	2
0	15032	2762.782988314936	3
0	15035	2763.171386651277	4
0	15038	2764.752398396616	5
0	15041	2765.237964738999	4
0	15047	2765.272399506371	5
0	15052	2766.881447342184	4
0	15058	2767.500014412929	5
0	15060	2767.872770626907	4
0	15065	2768.722013782331	3
0	15072	2768.77027176792	2
0	15079	2770.450720227579	1
0	15084	2772.286786454737	0
0	15088	2772.762058512517	1
0	15090	2773.790792158821	2
0	15098	2775.129851936985	3
0	15100	2775.44199114238	2
0	15105	2775.559892752176	1
0	15109	2776.048619537079	2
0	15111	2777.035077695592	3
0	15114	2778.57452950801	2
0	15120	2778.785075607203	3
0	15130	2782.921188163438	4
0	15131	2783.323338824734	3
0	15136	2784.357990394048	2
0	15140	2784.383814179775	3
0	15144	2786.077814893499	4
0	15146	2786.820478948415	5
0	15147	2786.878249448877	4
0	15151	2787.160637370063	5
0	15157	2789.494347297891	6
0	15158	2789.895453601001	5
0	15164	2792.307900966155	4
0	15169	2792.419489838659	3
0	15174	2794.350334290906	2
0	15179	2794.802203684522	1
0	15183	2795.142402538289	2
0	15187	2796.765900777472	3
0	15189	2797.261328366457	4
0	15192	2798.312248717138	3
0	15198	2799.121800288853	4
0	15201	2800.267124078707	5
0	15204	2800.808783654676	4
0	15214	2802.085664608791	5
0	15215	2802.690324124113	4
0	15223	2803.728452338583	5
0	15225	2803.798397411129	6
0	15226	2804.090351408399	5
0	15230	2804.963281969824	6
0	15232	2806.078302672043	7
0	15237	2807.136670070568	6
0	15241	2808.289086673375	7
0	15248	2813.329971758731	6
0	15254	2814.452841223082	7
0	15257	2815.874239267952	6
0	15263	2817.299209326695	7
0	15265	2817.514837172985	8
0	15266	2817.899617198332	7
0	15270	2817.998064896388	8
0	15272	2819.023499232746	9
0	15275	2819.56492716814	8
0	15280	2820.242961566053	7
0	15285	2821.425504426003	6
0	15289	2822.945096456615	7
0	15292	2823.667027154588	6
0	15297	2824.194695471903	5
0	15301	2824.947736282713	6
0	15305	2825.559458552363	7
0	15308	2827.721497315003	6
0	15317	2828.577686735934	5
0	15322	2828.901181879428	4
0	15326	2828.926125889019	5
0	15331	2830.711569385141	4
0	15338	2834.386417953018	3
0	15347	2836.701266809417	2
0	15353	2837.764094600339	3
0	15354	2838.695526287844	2
0	15360	2839.091044554307	3
0	15361	2839.35522036547	2
0	15365	2839.825117871292	3
0	15368	2840.710203039965	2
0	15374	2842.760030903136	3
0	15377	2842.813482265688	2
0	15384	2845.697791613826	1
0	15390	2847.181679961901	2
0	15391	2847.388751526485	1
0	15396	2847.991702460262	0
0	15402	2848.463811431314	1
0	15404	2849.349508093762	0
0	15441	2852.714936519155	1
0	15443	2853.226406888694	2
0	15445	2855.546474990269	3
0	15446	2857.017659443651	2
0	15452	2857.310286576489	1
0	15457	2857.343201598707	0
0	15473	2860.187823079995	1
0	15479	2861.630922503032	2
0	15482	2861.814481069364	3
0	15487	2862.370790066462	4
0	15489	2862.596504137174	3
0	15497	2863.870120685574	2
0	15501	2864.206826429896	3
0	15504	2865.090904466387	2
0	15508	2865.171892224022	3
0	15513	2866.656143034417	2
0	15521	2868.508270463015	1
0	15526	2868.688587326431	0
0	15532	2869.672583566287	1
0	15533	2870.963437935561	0
0	15541	2871.103995529952	1
0	15543	2871.203761760791	2
0	15544	2871.557162366604	1
0	15548	2874.379791190475	2
0	15550	2874.914707002184	3
0	15552	2875.333991124602	4
0	15555	2876.711588990052	3
0	15563	2877.059551765633	4
0	15567	2877.383323600161	5
0	15569	2877.528707857599	6
0	15572	2877.658867434327	7
0	15573	2879.007013766588	6
0	15580	2881.095983668378	7
0	15582	2881.534523995661	8
0	15584	2882.350769763134	9
0	15585	2882.448956599564	8
0	15590	2882.879830864575	7
0	15594	2882.93892760948	8
0	15596	2886.797168830619	9
0	15598	2888.310240284213	10
0	15600	2889.784273167712	11
0	15604	2890.756703190902	10
0	15609	2890.815092902006	9
0	15621	2895.337473709975	8
0	15627	2897.728629840671	7
0	15633	2898.660435133682	8
0	15635	2899.333154087771	9
0	15636	2899.449175803633	8
0	15642	2899.651654412119	9
0	15644	2900.22416903901	10
0	15646	2900.351392963415	11
0	15647	2900.637007679776	10
0	15656	2901.192370996627	9
0	15661	2901.531744896248	8
0	15668	2901.728650856089	9
0	15669	2902.047985192649	8
0	15674	2902.507129441557	7
0	15685	2906.026464930269	6
0	15689	2906.081384104061	7
0	15692	2907.965831925938	6
0	15701	2909.836434359567	5
0	15707	2910.765403119459	6
0	15711	2911.356936452031	7
0	15712	2911.515589256055	6
0	15716	2912.320257011686	7
0	15720	2914.552390870868	8
0	15721	2914.731296275057	7
0	15725	2914.972131716836	8
0	15727	2915.732876456845	9
0	15731	2916.525572480045	10
0	15733	2917.653367578686	9
0	15738	2917.687283568727	8
0	15743	2919.876916397473	7
0	15749	2920.793136923946	8
0	15751	2921.227433040654	9
0	15753	2921.870305310448	10
0	15758	2922.362327014355	9
0	15762	2922.392603722094	10
0	15764	2922.421156685099	11
0	15767	2923.148944303871	10
0	15773	2924.280106949245	9
0	15779	2924.464612032285	10
0	15781	2925.170903930137	11
0	15782	2925.33919725611	10
0	15786	2925.824252125552	11
0	15792	2927.887454461755	10
0	15800	2928.432824947576	11
0	15801	2929.850846583987	10
0	15806	2931.110834466272	9
0	15811	2931.353309221655	8
0	15817	2932.334345227546	9
0	15818	2933.325370521625	8
0	15824	2934.503203744642	7
0	15832	2934.919898621257	8
0	15834	2935.143022749181	9
0	15839	2935.601128229553	10
0	15841	2936.732983756843	11
0	15842	2936.791204302188	10
0	15848	2936.818925882394	11
0	15850	2936.875443985345	10
0	15856	2936.882338050043	11
0	15857	2937.675191157067	10
0	15861	2938.337905911926	11
0	15864	2939.925375239436	10
0	15870	2940.627815529079	11
0	15871	2940.830844209248	10
0	15875	2942.364526848381	11
0	15885	2944.634454140179	12
0	15886	2945.939278577959	11
0	15891	2947.841946362048	10
0	15897	2949.868851489256	9
0	15903	2950.183046579657	8
0	15910	2950.832758770101	7
0	15915	2952.045541082098	6
0	15919	2953.955937611932	7
0	15921	2954.709687588573	8
0	15923	2954.786881729589	9
0	15925	2958.04414889377	10
0	15927	2958.884283280573	11
0	15931	2960.518029268211	10
0	15937	2960.691000219888	11
0	15938	2961.34184323092	10
0	15943	2961.905926312727	9
0	15948	2962.480037202094	8
0	15952	2964.348302024272	9
0	15956	2964.794572461479	8
0	15962	2965.642214625183	9
0	15964	2965.818015415029	10
0	15965	2965.965988237228	9
0	15971	2967.497200482781	10
0	15975	2968.020410017825	11
0	15977	2968.578010349057	12
0	15980	2969.881929864896	11
0	15987	2970.753029366332	10
0	15993	2970.969121300722	11
0	16000	2971.954932477151	10
0	16006	2973.115673023084	11
0	16009	2973.626752291753	10
0	16014	2973.81845994686	9
0	16020	2973.826241151967	10
0	16022	2973.951757826488	11
0	16024	2974.659550206673	12
0	16025	2975.018937567158	11
0	16029	2975.198983732947	12
0	16031	2975.457907535734	13
0	16034	2978.604694104282	12
0	16041	2979.039382814896	11
0	16047	2979.34304776466	12
0	16048	2979.472904003052	11
0	16052	2980.155583765851	12
0	16054	2980.301265894562	13
0	16056	2981.074603592001	14
0	16059	2981.587739338075	13
0	16063	2981.760028475284	14
0	16067	2982.276703371798	15
0	16070	2982.703023472283	14
0	16080	2986.15493681849	13
0	16086	2986.63935172131	14
0	16087	2986.893277849482	13
0	16093	2987.55158456196	14
0	16094	2987.676856160366	13
0	16099	2988.777130781688	12
0	16105	2989.75764117767	13
0	16107	2991.129223123131	12
0	16113	2992.051004496759	13
0	16115	2992.410785946735	12
0	16122	2993.559309532232	11
0	16130	2994.369504559223	12
0	16133	2995.004275137028	13
0	16134	2995.270625690192	12
0	16140	2996.900722782509	13
0	16141	2996.933717758255	12
0	16146	2997.525348531368	11
0	16152	2999.427642126041	10
0	16157	2999.822038369698	9
0	16163	3001.448722497625	10
0	16166	3002.706546047452	9
0	16172	3003.420650606486	10
0	16173	3004.013845357266	9
0	16177	3008.122350422611	10
0	16180	3009.5172140563	9
0	16189	3013.767040316872	8
0	16194	3014.227262940066	7
0	16199	3014.824285076244	6
0	16203	3015.349141238523	7
0	16209	3016.019111433887	8
0	16213	3016.64775009673	9
0	16215	3016.76616248034	8
0	16220	3016.785975759125	7
0	16224	3016.945085011916	8
0	16227	3017.443189476084	7
0	16234	3019.028420102835	6
[...]
4	151395	27565.897931241096	4610.1010056394
4	151471	27576.678743425188	4618.8699166687
4	151476	27577.126411966989	4618.6746294444
4	151481	27577.508254614461	4617.962798228
4	151490	27578.968337731343	4616.510788646
4	151509	27582.400764260571	4619.8932951389
4	151529	27586.278265246831	4621.4445648689
4	151534	27586.910134865829	4609.4445101909
4	151541	27589.882037758097	4612.1773267256
4	151547	27592.582327340077	4607.0952655565
4	151553	27593.256720022812	4604.1279439388
4	151566	27595.657433911221	4603.306763439
4	151577	27596.081712167298	4602.1507852586
4	151584	27596.694894204023	4591.5338670063
4	151597	27599.133281654392	4593.7397212374
4	151610	27602.528229558556	4590.9098984507
4	151618	27604.031442426634	4585.7184335
4	151630	27605.213772092244	4580.8188072689
4	151989	27674.769983943029	4647.5626417601
4	151995	27675.888117382638	4646.7444651781
4	152000	27676.240207724058	4638.2568576919
4	152005	27676.347562476021	4629.4252426242
4	152017	27677.770461453717	4630.0830831507
4	152046	27681.098070933425	4630.4139844403
4	152065	27685.475569820757	4625.1229707048
4	152070	27685.646370014659	4624.449341441
4	152081	27689.194087957125	4627.5754537302
4	152114	27693.704396807008	4624.5747422375
4	152125	27694.883966309775	4624.9967968232
4	152182	27703.963818631411	4633.4774585073
4	152209	27711.921926020324	4637.3130332351
4	152214	27712.22592978053	4636.6351855038
4	152226	27715.85867448168	4638.2327883243
4	152239	27717.359335972245	4636.635400159
4	152279	27721.985367082944	4627.8400445278
4	152292	27723.989663841417	4629.3957691925
4	152472	27759.227634840222	4651.8555717999
4	152477	27759.22817227788	4638.5226526864
4	152485	27760.200898604428	4637.0028511299
4	152514	27764.976640549158	4641.3243086765
4	152522	27766.524929145845	4641.5830703132
4	152527	27766.571765607057	4640.2433299563
4	152535	27768.074966435581	4641.1356605656
4	152547	27768.76539235919	4640.973795042
4	152558	27772.431483724023	4640.6578746669
4	152564	27772.553225187992	4633.0062560278
4	152569	27772.836723789667	4629.9865656025
4	152577	27774.173801133194	4619.7775516616
4	152781	27812.291731097573	4656.2604603468
4	152787	27812.597916131079	4647.9121941528
4	152794	27812.885851906249	4644.8408032107
4	152804	27813.211585665876	4632.7281402319
4	152820	27816.389679749439	4631.8406727818
4	152863	27826.216533657224	4637.4521800594
4	152873	27827.664206558662	4636.4188364971
4	152893	27830.459779757822	4633.8798003236
4	152900	27831.820745770165	4633.0738102182
4	152921	27836.270154776815	4636.6327919337
4	153392	27920.841839414856	4717.7372880089
4	153432	27924.930225335397	4715.3270606994
4	153439	27926.331208252426	4708.8207630217
4	153444	27926.875520249646	4705.6360604472
4	153450	27927.133343986026	4703.5040570023
4	153455	27927.696306208595	4688.1601846384
4	153462	27928.577916797423	4688.6950016286
4	153488	27931.612332678765	4683.3218410384
4	153520	27936.689284387838	4685.344018434
4	153799	27999.754950859307	4742.2332151347
4	153807	28000.53727409369	4743.0095676495
4	153819	28001.737042898602	4739.1464293452
4	153824	28001.798883963421	4736.4052579947
4	153831	28003.821422077565	4736.9887166717
4	153839	28007.223517899274	4733.740198849
4	153849	28007.83618465387	4723.113026536
4	153858	28009.851047283775	4722.0239587754
4	153879	28012.606970174365	4724.3825891118
4	153890	28017.04425767187	4719.8406116676
4	153897	28017.239720800084	4717.7979778608
4	154006	28042.965295682541	4738.8176831134
4	154012	28043.856483820778	4734.148690268
4	154018	28044.182462375164	4732.4739663771
4	154023	28044.527175424985	4732.1288476285
4	154033	28046.470848084151	4721.2625370124
4	154048	28049.454593335838	4723.9107241624
4	154141	28065.011544144777	4738.6624254229
4	154148	28065.88307086272	4728.9764351101
4	154154	28066.740286426108	4726.1774586776
4	154159	28067.082420114291	4723.0733822277
4	154167	28068.166813962331	4724.0490415254
4	154195	28073.441261292913	4722.1389001783
4	154216	28077.187837848974	4723.3845682726
4	154226	28078.045947760134	4723.7555520719
4	154231	28078.737303365438	4722.3100445317
4	154236	28079.074021132563	4722.1081243956
4	154243	28081.055291452477	4721.7946437666
4	154259	28084.015881617984	4724.6711412738
4	154290	28087.703979904626	4723.8823423755
4	154329	28094.228252821318	4729.8729421049
4	154334	28094.514742492269	4723.6090133448
4	154341	28095.194346406449	4720.8186159964
4	154352	28096.08303988039	4718.4337218226
4	154357	28096.230524269882	4717.5736908309
4	154366	28096.364171273336	4713.6513277161
4	154427	28109.151251422171	4725.6751043778
4	154536	28132.371811465893	4748.4801504872
4	154544	28133.750349137616	4749.1929256814
4	154551	28134.413748739948	4747.90831572
4	154561	28135.441692144575	4743.7878447624
4	154686	28166.618684844562	4770.1222938861
4	154691	28167.858158568869	4769.2098601998
4	154705	28172.576457534992	4769.8033583359
4	154727	28177.626082380117	4772.8290833011
4	154738	28180.09171376257	4774.7822787328
4	154745	28180.464561036097	4767.6405234997
4	154750	28181.477691010193	4765.8976900467
4	154758	28185.378117022721	4758.7656115798
4	154767	28190.210237752206	4763.2550587015
4	154809	28195.870705723725	4768.4859153245
4	154827	28197.238154072493	4760.9409637249
4	154834	28199.725274256579	4762.6334466486
4	154839	28199.865547341093	4749.8067230046
4	154845	28200.709203366362	4742.0945514365
4	154854	28203.015506787802	4743.4233753819
4	154876	28204.801556770889	4745.1389904602
4	154890	28207.12339467435	4744.6493154557
4	154921	28209.894301038103	4746.6224515177
4	154926	28209.983605735516	4739.0299156421
4	154931	28210.08837465075	4738.6746349729
4	154938	28210.868059828345	4738.4265970324
4	154956	28212.945450953271	4740.2747588369
4	154962	28215.044658156811	4740.0590536474
4	154967	28218.006803456279	4737.0963939459
4	154976	28218.768373220312	4736.3824702635
4	154992	28221.31747664303	4734.1803908467
4	155016	28225.756404283951	4736.1530983879
4	155021	28226.911474862892	4733.9426153503
4	155026	28226.914191921824	4732.1369099326
4	155031	28227.284907815137	4730.6134318049
4	155043	28229.661796926351	4729.5716215523
4	155058	28230.417036580603	4720.5308594128
4	155069	28231.713763095445	4720.5592998909
4	155081	28232.560735678213	4711.8952890862
4	155087	28232.988831040331	4711.6454958658
4	155096	28234.594712286251	4713.0775766427
4	155115	28236.552522407403	4713.1493796735
4	155121	28236.808779245314	4712.5785222667
4	155126	28237.046089485075	4709.4014388997
4	155132	28239.740394618562	4700.6822569641
4	155150	28242.377615772325	4700.7562485482
4	155427	28305.193352654118	4753.5010448304
4	155432	28305.308236391808	4751.8292955716
4	155441	28306.593610222128	4749.6758851676
4	155463	28309.604999669249	4745.5916699938
4	155473	28309.879503919867	4744.6997485476
4	155478	28310.091709496446	4741.1799261048
4	155487	28312.179832928779	4740.4359922562
4	155508	28317.045289232464	4741.449876865
4	155525	28323.646553369545	4747.0699131537
4	155552	28327.044505938539	4749.0567560843
4	155557	28327.675154055638	4749.2563428216
4	155571	28333.182487955385	4752.60217448
4	155595	28335.818478721053	4752.2118439027
4	155601	28336.051835089712	4746.1050857386
4	155608	28336.480187578217	4744.2115780226
4	155631	28340.609878271296	4740.2397939731
4	155645	28343.027193460919	4741.8785078348
4	155650	28343.382444326897	4727.5799498559
4	155662	28345.970342839373	4726.9428377531
4	155713	28350.495600755567	4730.5525142756
4	155718	28350.716492780265	4730.7554917869
4	155726	28351.577967410679	4728.5225280048
4	155733	28352.874508897251	4724.4590508107
4	155744	28354.98664676027	4725.6976651526
4	155753	28356.215948652265	4724.2479340661
4	155767	28358.805006117055	4726.6286756963
4	155775	28360.513916228534	4725.709111902
4	155782	28362.123176616609	4725.3105474775
4	155794	28364.33971668805	4724.0660616315
4	155799	28364.405421123644	4720.2098781043
4	155806	28364.784096100074	4714.143197684
4	155825	28366.5005104496	4705.5160727019
4	155839	28369.875127720355	4704.3441147534
4	155867	28373.498085650976	4706.1365986498
4	155873	28374.417794038292	4704.596702286
4	155880	28375.110603461452	4690.4274622325
4	155890	28375.543968029108	4688.4985838607
4	155905	28378.923931943617	4688.1388775406
4	155941	28382.624928493544	4690.2369163351
4	155958	28389.502728451512	4695.1111692537
4	155979	28390.965624527384	4693.5276318421
4	155990	28392.775523485941	4691.8380476158
4	156788	28556.550260916814	4849.1699435126
4	156798	28556.769301006675	4846.9159210061
4	156803	28557.336370511328	4845.0401494913
4	156810	28557.533058200809	4840.8773616258
4	156831	28559.333523477773	4842.1417898752
4	156836	28559.489786708618	4839.961459877
4	156845	28562.712754264926	4842.2279130438
4	156851	28563.916669047398	4840.4465187988
4	156858	28566.946561084958	4843.1735854286
4	156881	28575.46322880919	4851.4399647089
4	156920	28578.852454049359	4853.0257783025
4	156927	28580.380084965238	4853.4098267181
4	156939	28583.196216913355	4853.3136058184
4	156949	28584.351148728634	4852.5607333615
4	156959	28584.762413160764	4852.0466247966
4	156976	28589.462002897108	4856.6215784228
4	157006	28593.950080815447	4857.6925211684
4	157013	28595.509606820082	4849.2268379329
4	157040	28601.190754300581	4849.7455420056
4	157046	28601.736825839659	4849.4132614965
4	157053	28601.998508492811	4845.6949516665
4	157072	28604.137900535814	4847.449065376
4	157137	28608.795288306717	4849.0016489909
4	157143	28609.037785922583	4848.1988588822
4	157150	28610.476543177502	4847.0390178547
4	157424	28668.135400077205	4892.8310506522
4	157429	28668.184673717568	4889.1820679435
4	157434	28668.82736145033	4888.8962774027
4	157443	28672.429689677166	4892.0306436454
4	157474	28676.403545041127	4890.9959382313
4	157487	28679.052105243755	4890.9363052778
4	157513	28682.438864536096	4893.4251087347
4	157522	28684.197547151746	4894.5788397917
4	157527	28684.574355242365	4893.4999670889
4	157532	28686.494555194532	4891.0905979105
4	157537	28686.796826970759	4886.2151193878
4	157544	28690.957209350305	4887.656678735
4	157559	28696.795685900867	4892.2535623623
4	157596	28700.794684819876	4879.5969598101
4	157606	28701.880269421267	4872.1175182094
4	157611	28703.235425430937	4873.3250566456
4	157616	28703.611017438583	4870.1780889616
4	157623	28704.572998409779	4869.2238876421
4	157628	28704.635880815085	4861.4958016192
4	157633	28704.781902805391	4853.9241366302
4	157638	28705.36217162878	4852.3547616644
4	157650	28708.337395229226	4855.2250983589
4	157673	28712.365622059982	4858.3179795371
4	157708	28715.914446221361	4860.8664370588
4	157728	28717.411125108959	4859.283762079
4	157734	28717.785557336559	4858.1586631601
4	157739	28718.830343273766	4858.0009410872
4	157752	28723.017522653917	4859.6383842848
4	157788	28726.558952531711	4859.3223669851
4	157807	28730.016693849078	4854.4380311469
4	158005	28769.91631120711	4891.03503884
4	158016	28773.264158162408	4881.4408617736
4	158026	28773.720359914487	4879.1681692081
4	158040	28775.719138136386	4877.1101994184
4	158057	28777.479385132651	4876.8651817648
4	158070	28779.408064821615	4874.1059348411
4	158308	28831.281279703745	4925.3033424036
4	158318	28832.378172031318	4905.9544001095
4	158323	28832.392342523422	4904.0162463706
4	158331	28832.705516942954	4896.4619696313
4	158346	28836.367815709802	4900.1179244888
4	158372	28839.040149694978	4899.3703572494
4	158381	28840.483664331164	4897.0835099127
4	158397	28844.751066190006	4897.1703189497
4	158585	28876.528108361667	4928.8723198358
4	158592	28878.529506706056	4924.71696598
4	158599	28879.680737690897	4924.5292269669
4	158604	28879.964128369745	4923.3493408949
4	158613	28881.336900923697	4924.4819373768
4	158639	28884.585229035503	4926.1655224659
4	158649	28884.959014960116	4924.0354015152
4	158654	28887.294360792265	4926.0244857093
4	158661	28888.029894860554	4915.4140824025
4	158674	28891.030907873901	4913.718857339
4	158690	28892.777001711753	4915.3020601814
4	158701	28894.988306618326	4916.0976168371
4	158722	28900.913573822095	4920.6039863919
4	158761	28906.348346362286	4921.2660298582
4	158768	28907.612342645054	4921.3981425821
4	158781	28910.452472163188	4921.9284008282
4	158791	28910.879496304281	4917.1188997236
4	158808	28914.510908864086	4918.7982381986
4	158925	28944.303781983532	4946.1594062116
4	158933	28945.36482238333	4945.1248465651
4	158940	28946.04392458521	4944.0098118591
4	158979	28952.358392964003	4947.5811078823
4	158998	28955.448473927177	4943.8873635756
4	159025	28959.097518348138	4946.4565404233
4	159084	28969.648078493662	4947.752818077
4	159091	28969.966972042442	4947.2189103095
4	159104	28972.042667914842	4946.9409705865
4	159112	28973.740519972006	4935.3432302216
4	159128	28976.257216998615	4935.6428538327
4	159141	28978.224897594314	4934.8057704083
4	159146	28978.514757876962	4931.2011417308
4	159160	28982.67704899805	4934.1850837367
4	159224	28997.309140949726	4947.4228792752
4	159232	28997.706485647559	4946.5890649123
4	159259	29004.042675019367	4952.7358900728
4	159280	29005.578032715669	4949.6851593464
4	159291	29006.232312802811	4943.5556814594
4	159296	29006.241150434124	4935.004742759
4	159305	29006.514460225383	4934.7233354271
4	159329	29009.864470096384	4929.1618886211
4	159488	29039.566237428977	4954.3381867031
4	159496	29040.411151732749	4951.4903384066
4	159501	29040.422714004609	4935.383226426
4	159507	29040.539747020399	4928.1096730435
4	159518	29043.116689132892	4924.20511299
4	159528	29043.375401444785	4922.9605301835
4	159533	29043.439109113725	4920.2115476186
4	159538	29043.532122479412	4916.8088668543
4	159553	29045.811808618285	4911.756192354
4	159572	29049.875743687364	4915.3684079781
4	159578	29049.975826606183	4908.1940563073
4	159584	29050.627172027027	4906.5393745309
4	159591	29052.918712807351	4901.8405313434
4	159620	29057.504818835008	4903.9354587486
4	159630	29060.21478346366	4905.6697241053
4	159642	29061.753517103055	4905.0875094855
4	159688	29065.5733041245	4900.0164719567
4	159811	29087.024650179934	4914.2858522936
4	159820	29088.286344604059	4912.081936092
4	159836	29090.064032046834	4911.6679618089
4	159900	29100.782161222857	4921.0638648185
4	159953	29110.372043786674	4925.4542565062
4	159959	29111.060027823933	4919.1961205333
4	159966	29111.581787977441	4917.5108956586
4	159977	29111.956358679457	4912.9144096556
4	159985	29112.622318218001	4909.1616848401
4	160002	29115.300270659214	4909.28149454
4	160193	29157.560146404009	4948.2371043017
4	160207	29159.548487154653	4946.3390685318
4	160213	29160.494369090454	4942.7356815604
4	160220	29160.760398577515	4942.1297894592
4	160227	29162.708290023721	4939.160468231
4	160240	29164.788107057133	4933.6891994829
4	160254	29168.422172350023	4937.019157563
4	160322	29177.294612693513	4943.6974073471
4	160345	29181.202631218073	4937.5457025032
4	160357	29181.951517728618	4934.1567419008
4	160368	29183.917613985035	4930.443098609
4	160415	29194.7576968319	4925.8454871742
4	160442	29198.768650611997	4928.4199482058
4	160455	29201.532071356805	4929.928639705
4	160479	29203.502986429857	4926.8125533314
4	160490	29205.90906308577	4926.2861245728
4	160511	29210.01825623014	4928.824757397
4	160799	29261.526994730076	4975.0793725938
4	160807	29262.019677601	4974.9916894873
4	160812	29262.53157945084	4969.7844204216
4	160817	29262.635306563233	4967.2220635343
4	160822	29262.92405072159	4967.4155923641
4	160829	29264.623087835566	4963.5818709502
4	160839	29265.964233489093	4962.8350541743
4	160846	29267.765882496719	4963.9951290878
4	160857	29271.038887651957	4966.7774078669
4	160864	29273.605789601904	4967.288116689
4	160875	29275.168315612097	4968.1614966131
4	160892	29278.387343860251	4970.749609648
4	160930	29283.459599500655	4966.0225314331
4	160937	29284.621853460936	4964.8003718681
4	160943	29284.887216984728	4960.7182179164
4	160948	29285.038448335121	4957.4864558738
4	160956	29286.354314041067	4957.146009032
4	160963	29291.503256020672	4950.4412477732
4	160984	29292.97471131035	4945.0509886289
4	161016	29298.624194497885	4943.7102702036
4	161029	29300.61619630435	4944.8510697199
4	161064	29303.392625950305	4944.1687115704
4	161071	29304.989225513701	4936.1577912876
4	161082	29306.777349175553	4930.2164745938
4	161116	29311.270087631315	4923.9227642803
4	161122	29311.881898781788	4922.8563440508
4	161130	29312.370604095427	4913.9554765221
4	161860	29470.092863750246	5069.5998515776
4	161872	29471.043490443669	5068.7281416983
4	161887	29471.353750936097	5068.7611583512
4	161898	29473.808580448663	5070.4490268627
4	161908	29474.911233784167	5062.7918519001
4	161915	29475.339801870403	5055.3895916873
4	161958	29481.363087143993	5053.4464583717
4	161963	29481.762319941539	5049.9075971353
4	161970	29482.931461061513	5050.3076826074
4	161980	29485.687040814926	5046.62634824
4	161989	29489.706326730694	5050.2991134036
4	162022	29493.835441224303	5049.8847324725
4	162052	29500.43319657233	5055.6674906398
4	162063	29503.072364374546	5053.4661841349
4	162082	29505.627109012505	5043.6650034206
4	162094	29506.312245578682	5040.7147161013
4	162107	29507.736061802773	5037.4861784284
4	162121	29512.030748159621	5036.3927612248
4	162151	29512.570240355299	5034.6361636703
4	162156	29512.683110179852	5033.1250429812
4	162163	29513.493919791992	5031.9999896913
4	162176	29514.753868338044	5026.7967067537
4	162192	29522.058025274787	5003.1910253898
4	162212	29525.015216529456	5002.8368802201
4	162230	29528.584949450796	5005.7892140878
4	162248	29529.48072551227	5006.5585949617
4	162256	29531.002671089788	5006.0248674001
4	162285	29535.105527928153	5007.8263061534
4	162304	29537.192433114958	5002.3029633501
4	162317	29538.898559272797	4993.6511803305
4	162324	29539.552112985552	4994.2901906907
4	162332	29541.231668060964	4988.6297603761
4	162337	29541.355765363806	4988.563619181
4	162347	29541.919679612413	4987.4987524052
4	162360	29544.57368603972	4978.5939924756
4	162372	29545.903350065174	4979.9175175956
4	162379	29546.324399663537	4973.1085645902
4	162524	29573.166696999246	4993.2379089102
4	162532	29573.519917939739	4969.8317782938
4	162537	29573.8654597653	4964.3639450467
4	162544	29574.881115007943	4965.2132120186
4	162553	29577.010014236651	4967.2933083025
4	162558	29577.235292992728	4961.6274554196
4	162564	29579.394999834287	4963.5987278348
4	162569	29579.751156537423	4955.5276403272
4	162576	29580.553209305259	4941.6190506129
4	162590	29581.017753340571	4938.9457807935
4	162604	29584.190627777115	4935.923560221
4	162609	29585.090918871541	4936.371460373
4	162618	29587.563926416898	4927.8960547689
4	162623	29587.694371009669	4923.2512056888
4	162630	29588.823620444831	4919.627905029
4	162644	29591.817913803533	4916.6584127951
4	162681	29596.783272923316	4919.7925051352
4	162798	29618.442952035415	4931.3207640878
4	162803	29619.645417216975	4926.4246168553
4	162808	29620.47498268131	4922.4412582204
4	162820	29623.156223414586	4922.5403696069
4	162837	29624.749429704934	4923.3407947677
4	162842	29624.812760950766	4918.8680493249
4	162850	29626.198636972933	4918.9704101153
4	162859	29626.56313537129	4915.5679972655
4	162905	29637.06593365579	4924.2762393348
4	162915	29637.366787049221	4922.0063773107
4	162928	29639.188732205369	4920.8846116587
4	162938	29639.272203069383	4919.7085922995
4	162946	29640.536445590335	4920.2476067019
4	162964	29642.716821961414	4922.0720243282
4	162977	29648.874978108388	4925.2846196809
4	163048	29658.235998770125	4934.2099741659
4	163054	29659.541564812362	4935.1135865412
4	163060	29660.604003602336	4932.031916245
4	163066	29660.852988448748	4931.4707300648
4	163078	29662.626262628474	4930.2307807877
4	163094	29663.194590853523	4929.1860893475
4	163105	29664.209784465485	4925.8229767305
4	163116	29665.371663114365	4921.7521773892
4	163137	29667.483689635641	4915.3831028771
4	163225	29685.080845028512	4921.9659445586
4	163278	29695.519992791646	4925.8021038884
4	163285	29696.493174569262	4917.4411959469
4	163299	29700.256453237575	4920.0218543838
4	163335	29703.590116369755	4922.2693422572
4	163352	29705.95534212154	4921.0185950286
4	163387	29712.046738009362	4908.8773954282

