version 2
run First-n5-19-20191016-17:04:06-11968
attr configname First-n5
attr datetime 20191016-17:04:06
attr experiment First-n5
attr inifile omnetpp.ini
attr iterationvars ""
attr iterationvarsf ""
attr measurement ""
attr network org.omnetpp.queueing.Pizza
attr processid 11968
attr repetition 19
attr replication ""
attr resultdir results
attr runnumber 19
attr seedset 19
param **.PS.maxInventoriedPS 5
param **.U1.interArrivalTime exponential(2s)
param **.U2.interArrivalTime exponential(4s)
param **.PS.serviceTimeForInventoryU1 exponential(0.8s)
param **.PS.serviceTimeForInventoryU2 exponential(1.0s)
param **.PS.serviceTimeDirectU1 exponential(1.2s)
param **.PS.serviceTimeDirectU2 exponential(1.4s)
param **.PS.probabilityProducing 0.5
param **.CS.serviceTimeU1 exponential(0.8s)
param **.CS.serviceTimeU2 exponential(1.0s)

vector 0 Pizza.EntryQueueU1 queueLength:vector ETV
attr interpolationmode sample-hold
attr title "queue length, vector"
vector 1 Pizza.CS queueLength:vector ETV
attr interpolationmode sample-hold
attr title "queue length, vector"
vector 2 Pizza.EntryQueueU2 queueLength:vector ETV
attr interpolationmode sample-hold
attr title "queue length, vector"
vector 3 Pizza.sink lifeTime:vector ETV
attr interpolationmode none
attr title "lifetime of arrived jobs, vector"
attr unit s
vector 4 Pizza.sink lifeTimeU1:vector ETV
attr interpolationmode none
attr title "lifetime of arrived jobs, vector"
attr unit s
vector 5 Pizza.sink lifeTimeU2:vector ETV
attr interpolationmode none
attr title "lifetime of arrived jobs, vector"
attr unit s
0	0	0	0
0	18	3.069921891541	1
0	20	3.086285159072	2
0	23	4.736737406642	1
0	28	5.37381641914	0
0	53	11.205233952584	1
0	55	12.844308025635	2
0	61	14.795016489315	1
0	67	15.118395584667	0
0	73	15.848687606472	1
0	75	16.106975685878	0
0	94	18.86817826995	1
0	96	18.989445115979	0
0	120	21.351298956876	1
0	121	22.489568038008	0
0	135	25.381425153379	1
0	140	27.886334367835	0
0	146	28.594281393071	1
0	148	28.890945957057	2
0	152	30.123742916845	1
0	157	30.146753890742	0
0	164	30.376577866637	1
0	165	32.884730275108	0
0	183	35.183238252066	1
0	184	35.412500822435	0
0	195	35.974320228324	1
0	199	36.212159182565	2
0	203	37.965200315211	3
0	207	38.905269559768	4
0	209	39.55820697254	5
0	212	39.916365943006	6
0	213	40.911474660891	5
0	218	41.75748022045	4
0	224	42.638239505946	5
0	225	42.657414765815	4
0	231	45.888844047232	3
0	238	46.536713367254	2
0	244	48.705517493143	1
0	250	48.970961248452	2
0	251	49.019185865568	1
0	257	50.067907067778	2
0	258	50.125116293085	1
0	263	50.672924669493	0
0	273	53.941040032184	1
0	275	54.121382457621	2
0	279	55.513496752548	1
0	286	57.560277265293	2
0	288	57.917819387205	3
0	293	59.305808067515	2
0	298	60.19260217945	1
0	303	63.126502163671	0
0	321	66.1188407021	1
0	322	66.344333308206	0
0	333	66.863101829667	1
0	335	68.512764291253	0
0	339	69.352312573811	1
0	342	70.614110423376	0
0	368	73.307589657531	1
0	370	73.697801081824	0
0	416	78.555705583892	1
0	417	78.583377840464	0
0	533	99.20883890709	1
0	534	99.597750486803	0
0	549	100.229147166147	1
0	552	100.855738670277	0
0	564	101.405348447032	1
0	567	102.988915427591	0
0	574	103.45822599229	1
0	578	103.792736975274	2
0	581	106.131776598081	1
0	586	106.347826072203	0
0	601	107.62391029239	1
0	602	107.787880641283	0
0	619	109.433697769305	1
0	620	109.461025369308	0
0	651	114.22861939605	1
0	655	116.32920021063	0
0	672	117.82417862238	1
0	673	118.756322396962	0
0	679	119.64199092313	1
0	680	120.009384444899	0
0	686	120.740278450968	1
0	687	120.744926195861	0
0	715	123.935020824886	1
0	717	124.603938425523	0
0	724	125.092741274464	1
0	725	125.622788081205	0
0	764	132.487924154677	1
0	766	133.57272076981	0
0	795	138.237423040586	1
0	797	138.259146941738	2
0	798	138.770338196278	1
0	806	139.507065258824	2
0	808	139.839723561346	3
0	809	140.131999349077	2
0	818	142.368522904986	3
0	821	143.197637109522	4
0	823	143.898648378827	5
0	824	144.261692900362	4
0	830	145.265532937455	3
0	836	146.065340844543	2
0	841	146.115983783248	1
0	847	146.44342929033	0
0	884	156.982619710924	1
0	886	157.468653802655	0
0	923	162.810555663694	1
0	924	163.174925117432	0
0	955	171.041585569408	1
0	956	171.324138431566	0
0	1013	183.60654723476	1
0	1015	183.737461498999	2
0	1016	184.132217202298	1
0	1021	185.035887421627	0
0	1081	197.006741964904	1
0	1085	199.891301198655	0
0	1091	199.989735699319	1
0	1092	200.034004884221	0
0	1100	200.274075972512	1
0	1101	200.299567725717	0
0	1105	200.531883390467	1
0	1107	201.237283599908	2
0	1111	202.270316116216	3
0	1112	202.593744499198	2
0	1116	203.226398851584	3
0	1119	204.863239428696	2
0	1127	210.067216567967	1
0	1133	211.089782337864	0
0	1144	213.501800048547	1
0	1145	213.553416940216	0
0	1149	213.897219370954	1
0	1153	215.642802202337	2
0	1156	216.608198906417	1
0	1163	217.26709579872	0
0	1167	217.815148366045	1
0	1171	219.085099532484	0
0	1241	229.079098316309	1
0	1242	229.181993930614	0
0	1255	230.624557962187	1
0	1257	231.133727146143	0
0	1266	231.632120821295	1
0	1268	231.801369325513	2
0	1269	231.994068152907	1
0	1276	233.148663505951	0
0	1307	238.83175533498	1
0	1308	238.861560749584	0
0	1316	239.697093115455	1
0	1318	239.884350042865	2
0	1320	241.126352286755	3
0	1321	241.179014855662	2
0	1326	241.588925590054	1
0	1330	241.61520569082	2
0	1332	242.221024690312	3
0	1337	242.808510270575	4
0	1339	243.14988474816	5
0	1340	244.6627450159	4
0	1345	245.00083236207	3
0	1350	246.804490668072	2
0	1355	247.519928114442	1
0	1360	248.842543496004	0
0	1387	251.854901038796	1
0	1390	252.983302376837	0
0	1396	253.087209033998	1
0	1400	253.351369341285	0
0	1411	254.869820976133	1
0	1415	256.730383190031	2
0	1417	256.857248832567	3
0	1418	256.938342642319	2
0	1424	257.553530185826	1
0	1429	257.691550442273	0
0	1436	258.708304751348	1
0	1440	260.368395776916	2
0	1442	260.392493075561	3
0	1443	260.854492091665	2
0	1448	261.682704590252	1
0	1454	261.711557333076	2
0	1458	263.87760710567	1
0	1464	264.388200249542	0
0	1476	264.706384815918	1
0	1477	264.832776563867	0
0	1508	267.169849856728	1
0	1510	267.933223699715	2
0	1511	268.205488252428	1
0	1517	268.516385968627	2
0	1519	269.125221838136	3
0	1523	270.255539390312	4
0	1524	270.359466782031	3
0	1530	270.807592491854	2
0	1535	270.984881293049	1
0	1543	272.647831500079	2
0	1545	273.607953749291	3
0	1550	276.088484991226	2
0	1555	277.528967449937	1
0	1559	278.260165104912	2
0	1561	278.653981920594	3
0	1563	279.470459979214	4
0	1566	281.347444816941	3
0	1571	282.72096971633	2
0	1576	283.03433055203	1
0	1585	286.320186907423	0
0	1589	286.416200521047	1
0	1594	287.977549493416	2
0	1597	288.89502518053	1
0	1602	289.51730335924	0
0	1615	292.914745437449	1
0	1616	293.117827796433	0
0	1632	293.578787786859	1
0	1634	294.013401307304	0
0	1691	300.464548781827	1
0	1692	300.471180559639	0
0	1700	301.220225650245	1
0	1702	301.5768891524	0
0	1715	304.242874927745	1
0	1717	304.458896755234	0
0	1723	304.473851493828	1
0	1725	306.161945079143	0
0	1771	312.962080088846	1
0	1778	314.78044645743	0
0	1791	316.459409045673	1
0	1792	316.537385623971	0
0	1806	318.779722028849	1
0	1809	319.799376860538	0
0	1828	321.47743053606	1
0	1829	321.76757328538	0
0	1848	328.34723872973	1
0	1851	329.292096966933	0
0	1857	330.521726572369	1
0	1858	330.604717715018	0
0	1864	332.160590313158	1
0	1868	333.530624108727	2
0	1870	334.499085593709	3
0	1871	334.900391186579	2
0	1876	336.063029186009	1
0	1881	337.143722917754	0
0	1893	337.912514633525	1
0	1895	337.918758907074	2
0	1896	338.269224431817	1
0	1901	338.471028675632	0
0	1913	341.784518264415	1
0	1917	344.099323975861	2
0	1918	344.327437626935	1
0	1922	346.960506102731	2
0	1926	347.128471152201	3
0	1928	349.141819987199	4
0	1931	349.989805388355	3
0	1935	351.998244056946	4
0	1942	353.980892149784	3
0	1947	354.236425617458	2
0	1954	356.115325135661	3
0	1956	356.178757182152	4
0	1957	356.757674843646	3
0	1962	357.126268663902	2
0	1967	357.371280608078	1
0	1974	357.734437400494	0
0	1987	360.611951949768	1
0	1990	361.105807770438	0
0	2025	366.373872938544	1
0	2026	366.717880532602	0
0	2063	372.531673927474	1
0	2065	372.554655448019	2
0	2066	372.801436305369	1
0	2071	372.837897282238	0
0	2085	377.687073025819	1
0	2089	378.609826410165	2
0	2093	381.915219176286	1
0	2098	382.423397380643	0
0	2104	382.428312850707	1
0	2105	383.847072800334	0
0	2133	390.063553316763	1
0	2135	390.343954016007	2
0	2136	390.447959315333	1
0	2144	392.173423754	0
0	2148	392.281666946897	1
0	2150	393.624160830771	2
0	2153	394.424831166885	1
0	2161	395.854633597782	2
0	2163	396.075880060165	3
0	2164	396.207440678105	2
0	2168	396.313717724748	3
0	2171	398.323500860577	2
0	2175	398.424093434625	3
0	2178	400.211364536562	2
0	2186	400.7991720373	3
0	2188	401.153102961202	4
0	2189	401.298981400366	3
0	2193	401.576603841968	4
0	2200	403.655025753167	3
0	2206	404.15674603159	4
0	2207	404.956816164628	3
0	2211	406.582752827414	4
0	2216	407.650451441033	3
0	2220	408.095423368111	4
0	2224	410.886806156734	3
0	2230	412.480916669406	4
0	2231	412.895940296208	3
0	2235	413.287064474266	4
0	2237	414.078791082641	5
0	2239	414.799826481072	6
0	2241	414.870714865207	7
0	2244	415.967492103815	6
0	2249	416.994991830872	5
0	2254	418.371566088316	4
0	2259	419.005539950794	3
0	2264	419.839695516623	2
0	2269	420.805359961882	1
0	2273	421.823936206642	2
0	2277	423.196449603997	1
0	2285	424.051371131138	2
0	2287	424.449511973899	3
0	2288	424.628885714187	2
0	2292	425.300964006867	3
0	2295	426.327512956287	2
0	2300	426.634842467278	1
0	2305	429.320702803497	0
0	2309	429.705133270368	1
0	2311	430.035048991461	2
0	2314	431.136328064816	1
0	2318	432.497189798827	2
0	2322	434.03844734454	3
0	2323	434.206158932606	2
0	2328	435.202331014946	1
0	2334	435.947565818577	2
0	2336	436.529610701243	3
0	2339	437.550544973885	2
0	2343	438.446037259883	3
0	2345	438.463934686748	4
0	2348	438.587964776326	3
0	2352	438.595351641815	4
0	2355	440.971676452019	3
0	2360	441.638888215468	2
0	2364	441.875683488866	3
0	2366	441.888408772698	4
0	2372	445.863487631378	3
0	2379	447.293198245306	2
0	2385	448.009589525336	3
0	2387	448.145739331872	4
0	2389	449.512159240793	5
0	2392	450.855062600828	4
0	2396	451.855494399761	5
0	2398	452.408398261988	6
0	2400	453.239855920644	7
0	2410	456.454005064785	6
0	2415	456.529809221185	5
0	2419	457.054020388286	6
0	2422	458.13639032726	5
0	2431	459.592698627361	6
0	2434	460.403454882415	7
0	2439	461.240875939315	6
0	2444	461.262584173335	5
0	2450	461.807638570253	6
0	2454	462.129634701305	5
0	2459	463.477478695064	4
0	2465	463.512091302123	5
0	2466	463.782370626612	4
0	2471	463.832594673947	3
0	2476	464.978535218662	2
0	2482	465.77279911619	3
0	2485	466.154940755492	4
0	2487	466.274742382728	5
0	2488	466.439512582932	4
0	2498	467.062475227843	3
0	2503	468.820296956982	2
0	2508	469.250860632293	1
0	2513	469.890628731595	0
0	2533	471.89777309223	1
0	2538	472.625674565872	2
0	2539	472.764492862686	1
0	2547	473.304340571345	0
0	2580	479.303452490913	1
0	2581	479.813827990004	0
0	2602	481.906749245472	1
0	2603	482.416493072729	0
0	2630	485.883213292885	1
0	2632	486.024289808879	2
0	2635	487.047294589526	1
0	2641	487.140115804524	2
0	2644	488.579596922978	1
0	2651	489.953699325944	0
0	2661	491.344264948393	1
0	2663	491.706482062329	2
0	2664	492.153941943552	1
0	2669	492.336217193208	0
0	2685	492.887094698856	1
0	2686	492.953814280477	0
0	2703	493.685678369261	1
0	2706	494.233897151952	0
0	2712	494.358574976635	1
0	2713	494.457304645022	0
0	2740	501.621096957831	1
0	2743	503.266377865268	0
0	2755	503.569363682991	1
0	2756	503.777507253002	0
0	2767	505.098142338383	1
0	2769	506.969246299199	2
0	2771	507.846585500583	3
0	2773	508.094464194218	4
0	2779	508.84667887851	3
0	2784	508.955497451791	2
0	2791	509.501564123042	3
0	2793	510.089937497955	4
0	2795	510.918723131657	3
0	2802	512.349736909177	4
0	2808	513.02552197352	5
0	2809	513.595800634418	4
0	2814	514.297133410165	3
0	2819	514.847123902653	2
0	2824	515.392294559141	1
0	2828	515.845211880702	2
0	2830	517.186109991526	3
0	2833	517.640079198983	2
0	2837	517.846775767685	3
0	2840	518.608538373048	2
0	2848	518.981495191421	1
0	2853	520.113845622826	0
0	2857	520.774449137861	1
0	2859	521.971657575317	2
0	2862	522.77112891192	1
0	2866	524.495254419398	2
0	2868	524.731147283575	3
0	2872	525.203601586874	4
0	2873	525.33766668676	3
0	2882	527.2297622742	2
0	2887	527.786699312612	1
0	2893	529.506833359722	2
0	2896	530.615574835875	1
0	2901	531.351109836798	0
0	2908	532.580271515329	1
0	2910	532.790683377346	2
0	2911	532.867581429617	1
0	2915	533.174492352581	2
0	2918	533.664844241461	1
0	2922	535.887100197171	2
0	2924	536.583574285617	3
0	2926	538.030619166233	4
0	2931	540.01168402819	3
0	2936	540.919944396548	2
0	2941	541.214052955534	1
0	2945	542.599193711975	2
0	2949	542.776209275	3
0	2950	543.052049294823	2
0	2954	543.9756152654	3
0	2958	544.703554316951	2
0	2963	545.056896580351	1
0	2969	547.097600512226	0
0	2973	547.317293814756	1
0	2977	547.82212843379	2
0	2978	548.972911686359	1
0	2986	551.519679064839	2
0	2991	552.07814262845	1
0	2995	552.974080082961	2
0	2999	554.681995151965	3
0	3002	555.589631884453	2
0	3007	556.129862690338	1
0	3011	556.155009304978	2
0	3015	556.667429836051	3
0	3016	556.883233751541	2
0	3024	558.057540896655	3
0	3025	558.173945177611	2
0	3029	558.322026267434	3
0	3032	559.075172792715	2
0	3036	559.409811278527	3
0	3038	559.727143897548	4
0	3043	563.707398870358	5
0	3045	563.836890523792	6
0	3047	564.81600912655	7
0	3048	567.523033813854	6
0	3053	567.68826723819	5
0	3058	569.353797809234	4
0	3063	571.173061379082	3
0	3067	571.273157787334	4
0	3069	571.378082143554	5
0	3072	572.658635221189	4
0	3076	573.109932765045	5
0	3082	574.241744423294	4
0	3088	574.646306263019	3
0	3093	575.576003180476	2
0	3097	575.670009137295	3
0	3099	575.994249691983	4
0	3101	576.196683131218	5
0	3105	576.616159935297	4
0	3111	578.848491728649	3
0	3116	579.018667056675	2
0	3122	580.163211778824	1
0	3130	581.360658817763	0
0	3141	581.394574826661	1
0	3142	581.535514228458	0
0	3148	582.743633916549	1
0	3150	582.874546742996	2
0	3151	582.891966808128	1
0	3157	585.798874543547	0
0	3176	587.855689228581	1
0	3180	590.615614362009	2
0	3184	591.846381869997	3
0	3186	592.312955356225	4
0	3187	592.36190753658	3
0	3192	592.846067139512	2
0	3197	593.051281702186	1
0	3204	593.618341205724	2
0	3205	593.833084957168	1
0	3211	594.293154059428	0
0	3238	596.206763278254	1
0	3240	596.241024166624	2
0	3242	597.469178231149	1
0	3248	597.960160218937	0
0	3289	602.290580631663	1
0	3292	602.823199563429	0
0	3316	605.787428314233	1
0	3318	606.065821628862	2
0	3321	607.103374144515	3
0	3323	608.273026173657	4
0	3326	609.467360232339	5
0	3328	610.171934746969	6
0	3331	610.706269141077	7
0	3334	612.921991214097	6
0	3339	613.554775770893	5
0	3347	615.827493739776	4
0	3352	615.925877342546	3
0	3360	616.466599322137	4
0	3361	617.02434475539	3
0	3366	617.030794972754	2
0	3371	617.271209941955	1
0	3376	618.268589747921	0
0	3380	618.297901212794	1
0	3382	618.494493424998	2
0	3385	620.206879783372	1
0	3390	621.823494489843	0
0	3417	625.088513682419	1
0	3419	625.157904502911	2
0	3422	626.105916281085	3
0	3423	627.387607724841	2
0	3429	627.781668249533	3
0	3432	628.215828339485	2
0	3437	628.541113143273	1
0	3443	628.608664455815	0
0	3450	629.513742073429	1
0	3452	629.652595090314	2
0	3453	630.338888202356	1
0	3458	630.661620584367	0
0	3487	632.396128329191	1
0	3489	632.708431510048	0
0	3496	633.18255036473	1
0	3498	634.142792852346	0
0	3527	637.413325574691	1
0	3533	641.983451921852	2
0	3534	642.229088963782	1
0	3542	643.530553953165	0
0	3549	644.229875302918	1
0	3551	645.74547668607	0
0	3563	646.4727780045	1
0	3565	648.306078356832	0
0	3584	649.646039565058	1
0	3590	653.911395576437	2
0	3591	654.285035913024	1
0	3599	654.98330272055	0
0	3610	656.00881055686	1
0	3615	657.224738614843	2
0	3619	659.167678221175	3
0	3620	659.656204778803	2
0	3625	659.933122670347	1
0	3630	661.78239930461	0
0	3650	665.396242512964	1
0	3652	665.524519407728	2
0	3654	665.609232105695	3
0	3656	666.02397095538	4
0	3658	666.824119258895	3
0	3663	666.861686272726	2
0	3670	668.047398575082	1
0	3675	669.105593072596	0
0	3701	671.377317488203	1
0	3703	672.308768569712	2
0	3705	672.378805085976	1
0	3712	672.648999385194	0
0	3721	672.929439801372	1
0	3723	673.284483305495	2
0	3725	673.529137503694	3
0	3727	673.738736389584	4
0	3729	674.318930071051	5
0	3731	675.111891149118	4
0	3737	675.572928821179	3
0	3743	676.930629529017	4
0	3745	677.328489989066	5
0	3746	677.465469273076	4
0	3752	677.702422591697	5
0	3753	677.730414152844	4
0	3758	677.983901099731	3
0	3765	679.44871847315	2
0	3770	679.77766998116	1
0	3776	682.008841481139	0
0	3787	682.591657882739	1
0	3789	683.062053546721	2
0	3791	683.959222794189	1
0	3796	684.769043258495	0
0	3830	688.202849339643	1
0	3834	689.722302020067	2
0	3835	691.003120660155	1
0	3841	691.252974768923	0
0	3852	691.653489453158	1
0	3853	691.70117512461	0
0	3859	692.983962907005	1
0	3862	693.503562082207	0
0	3878	693.90704150982	1
0	3879	693.999864168294	0
0	3910	698.567201895426	1
0	3912	699.284398046528	0
0	3951	704.889675336759	1
0	3955	705.560976321313	2
0	3958	707.029229813329	1
0	3966	708.168725844132	0
0	3986	710.904822348024	1
0	3988	711.283922424484	0
0	4035	720.387955499291	1
0	4036	720.609420568032	0
0	4056	724.370607130167	1
0	4057	724.400024860816	0
0	4088	727.78027834459	1
0	4089	727.846075170234	0
0	4096	727.979550808159	1
0	4097	728.433150441321	0
0	4104	728.718466920978	1
0	4105	728.946389391967	0
0	4118	730.184684979799	1
0	4121	730.727374798772	0
0	4128	731.732657840809	1
0	4130	731.942691789837	0
0	4153	735.493445705208	1
0	4154	736.241965242167	0
0	4160	736.759049821451	1
0	4161	736.998977944983	0
0	4168	737.62655090244	1
0	4170	737.966152485174	2
0	4172	742.018321616008	1
0	4177	742.667215136491	0
0	4190	746.34479636463	1
0	4191	746.371419986784	0
0	4195	747.453938459462	1
0	4200	750.436801831117	0
0	4220	754.211960026092	1
0	4222	754.238815781664	2
0	4225	754.516663686144	1
0	4234	756.1815228497	0
0	4245	757.507048335075	1
0	4247	758.118565790037	0
0	4303	770.170502070117	1
0	4304	770.336673211998	0
0	4353	784.60135909853	1
0	4354	785.311798651594	0
0	4381	789.027287299053	1
0	4384	789.267210294726	0
0	4397	790.909645479568	1
0	4398	791.354134551872	0
0	4404	791.773748400424	1
0	4407	792.695675768459	2
0	4409	793.003666955299	1
0	4415	793.370195046473	2
0	4416	793.83697201777	1
0	4420	793.937268978573	2
0	4423	793.989490429315	1
0	4428	794.172449899046	0
0	4434	794.920710291086	1
0	4437	795.964619069395	2
0	4439	796.849163989588	3
0	4440	797.371789682426	2
0	4446	797.472387585996	3
0	4447	797.75414320338	2
0	4452	798.249239474252	1
0	4458	799.818244706396	2
0	4459	799.971132366439	1
0	4467	801.139751911851	0
0	4486	803.231286272858	1
0	4489	803.505160340688	2
0	4490	803.536476965869	1
0	4495	803.597746637951	0
0	4501	804.229841846023	1
0	4506	805.51800670362	0
0	4528	809.46897515692	1
0	4530	810.211669257976	2
0	4532	810.816535568561	1
0	4538	810.958493412587	2
0	4540	811.709699875768	3
0	4541	812.075610719035	2
0	4548	812.443754188487	1
0	4553	812.911463685659	0
0	4567	814.711059635861	1
0	4568	814.969694884737	0
0	4635	823.174927775476	1
0	4636	824.075331642477	0
0	4656	832.341654803635	1
0	4660	834.353366797278	2
0	4661	834.387021944722	1
0	4665	834.467603344098	2
0	4668	835.748344990551	1
0	4674	838.110659640022	0
0	4680	838.116694002102	1
0	4682	838.183944249141	2
0	4684	838.429878570869	3
0	4685	839.479443030525	2
0	4690	840.419094042734	1
0	4698	842.47018544134	2
0	4700	842.614478725847	3
0	4701	843.098247418511	2
0	4706	843.575145881435	1
0	4715	845.38998058844	0
0	4749	849.981285879666	1
0	4751	851.196043885456	0
0	4761	852.186627053285	1
0	4762	852.51502585156	0
0	4836	866.674157605018	1
0	4839	867.478682129855	0
0	4907	878.004165020799	1
0	4908	879.633106642709	0
0	4928	883.200153785089	1
0	4931	884.747712386701	0
0	4942	885.470429464627	1
0	4943	885.8596208989	0
0	4986	891.816372443743	1
0	4991	892.495746309513	2
0	4995	893.266863275356	3
0	4996	893.283528554197	2
0	5002	893.608415534892	3
0	5004	894.089040628901	2
0	5010	894.641311965523	3
0	5013	894.998525961582	4
0	5015	896.001838129744	3
0	5020	896.402211627986	2
0	5026	896.795618658765	3
0	5028	899.786818564539	2
0	5033	900.023793787152	1
0	5039	900.0873768624	2
0	5040	901.620696233039	1
0	5045	901.869567551064	0
0	5074	906.171484567354	1
0	5077	906.522893677702	0
0	5116	910.276991410128	1
0	5117	910.305756722146	0
0	5140	912.740769741153	1
0	5141	912.782132216349	0
0	5155	916.198991226092	1
0	5157	917.17040592775	0
0	5184	924.590878056075	1
0	5189	926.082476302015	2
0	5190	926.371550333919	1
0	5195	926.577550363661	0
0	5209	928.29219717814	1
0	5210	928.300710784597	0
0	5237	932.636203844998	1
0	5242	933.167983391257	0
0	5248	934.633208112411	1
0	5250	934.885756664017	0
0	5281	939.996904243213	1
0	5284	940.659643240409	2
0	5285	941.354180325492	1
0	5291	942.890322552743	0
0	5305	944.0248350986	1
0	5306	944.093762421103	0
0	5337	946.467091926169	1
0	5338	946.811929652594	0
0	5344	947.272607558917	1
0	5345	947.643344017466	0
0	5384	956.392425564839	1
0	5386	956.839553229999	0
0	5403	958.456733261441	1
0	5405	958.768347736196	2
0	5407	958.770664485595	3
0	5409	958.876063149695	4
0	5410	959.014819972213	3
0	5423	960.710122959529	4
0	5425	960.727962419384	5
0	5430	961.720134364154	4
0	5437	962.220296668249	5
0	5439	963.185995823855	6
0	5440	964.37347646678	5
0	5445	964.416799103949	4
0	5451	964.470289321856	5
0	5452	965.856959446024	4
0	5458	965.969365034516	5
0	5460	967.024943359909	6
0	5461	967.746716868889	5
0	5469	968.249813786067	6
0	5470	968.570680310985	5
0	5475	968.657907627967	4
0	5479	968.95816742248	5
0	5482	969.857106699487	4
0	5491	971.254358175705	3
0	5495	971.344633592105	4
0	5498	973.869701105521	3
0	5504	976.130469040443	4
0	5508	977.431012904398	3
0	5513	977.531102000342	2
0	5519	978.346492393704	3
0	5520	978.471778252362	2
0	5525	979.749253776389	1
0	5529	979.967489679303	2
0	5533	982.106496913217	1
0	5538	982.958078114606	0
0	5542	983.637389197045	1
0	5544	983.995316594424	2
0	5554	986.428845159405	1
0	5560	986.591858275269	0
0	5567	987.121803922781	1
0	5572	987.462025353916	2
0	5574	987.966605924766	3
0	5580	989.131700198685	2
0	5585	989.470990631155	1
0	5590	989.928797957261	0
0	5601	990.370445503037	1
0	5605	991.057852528123	0
0	5621	993.363869962191	1
0	5626	994.6356415771	2
0	5629	995.162654266267	1
0	5634	995.768167652213	0
0	5640	995.905732376868	1
0	5642	996.313384418115	2
0	5643	996.815065446137	1
0	5649	997.213636405964	2
0	5650	997.400180170525	1
0	5655	997.977054206776	0
0	5659	998.125484533711	1
0	5661	998.162709977007	2
0	5666	999.510450137938	1
0	5672	999.654843312848	2
0	5674	1000.547151594761	3
0	5675	1000.657340477009	2
0	5680	1000.860795230695	1
0	5686	1001.427015087085	0
0	5697	1002.092764215059	1
0	5700	1002.512987063555	0
0	5728	1006.359398564919	1
0	5729	1006.413217798018	0
0	5771	1010.331173225287	1
0	5772	1010.757306167001	0
0	5787	1011.719641289472	1
0	5789	1011.885548399893	2
0	5791	1012.23564857413	3
0	5795	1014.721892519846	4
0	5798	1016.81104044637	3
0	5803	1016.904586358487	2
0	5808	1016.996186551827	1
0	5814	1017.573643327449	0
0	5820	1018.497800822196	1
0	5821	1018.98647433695	0
0	5833	1020.367030090084	1
0	5835	1020.832459656313	2
0	5837	1021.757454656021	1
0	5844	1022.218490728452	2
0	5845	1022.423809259108	1
0	5852	1023.209064684111	0
0	5866	1024.110327350587	1
0	5867	1024.316854324357	0
0	5888	1028.244765423063	1
0	5896	1030.742543589765	0
0	5904	1030.888775005111	1
0	5906	1031.989193933638	2
0	5907	1032.365017094305	1
0	5915	1034.43370957337	0
0	5928	1034.928868218488	1
0	5931	1035.308981078269	0
0	5952	1036.43077073567	1
0	5953	1036.586381224591	0
0	5977	1040.865397363025	1
0	5978	1041.137823346043	0
0	6009	1044.844893132271	1
0	6013	1046.6963614152	2
0	6014	1046.899609189978	1
0	6022	1048.108620484275	0
0	6040	1051.989596795561	1
0	6043	1052.539851391387	0
0	6054	1053.791416826331	1
0	6056	1054.727035555047	2
0	6061	1055.335199796566	1
0	6066	1055.477261322269	0
0	6070	1055.514571563793	1
0	6073	1056.9606981714	0
0	6084	1058.365398830356	1
0	6087	1059.155254991872	0
0	6101	1060.271931907027	1
0	6102	1060.359096435535	0
0	6127	1063.31304714612	1
0	6130	1064.681454602894	0
0	6177	1072.584691368451	1
0	6178	1072.751495167682	0
0	6200	1075.727860584986	1
0	6201	1075.772805190173	0
0	6220	1078.641539270446	1
0	6222	1080.200491868187	2
0	6225	1081.743268645211	1
0	6229	1081.779844309293	2
0	6232	1082.286339597669	1
0	6239	1084.052094553094	0
0	6245	1084.134795364173	1
0	6248	1084.602790621147	0
0	6285	1097.493542394512	1
0	6286	1098.02454511942	0
0	6299	1098.869674831377	1
0	6300	1099.002348692477	0
0	6345	1109.936312991868	1
0	6346	1110.260154114872	0
0	6463	1134.488288789289	1
0	6464	1134.564323047833	0
0	6490	1140.51065565601	1
0	6492	1141.143444047341	2
0	6495	1141.378144655749	3
0	6498	1143.838062206441	2
0	6504	1143.872510711037	3
0	6506	1144.15656438686	2
0	6512	1144.991297853751	1
0	6519	1145.453991010698	2
0	6520	1145.521207964484	1
0	6528	1146.791239532296	2
0	6529	1146.967268076928	1
0	6534	1147.216900349234	0
0	6561	1150.058581129563	1
0	6563	1150.297421387402	2
0	6564	1151.01697131748	1
0	6571	1151.86422863132	2
0	6573	1152.293153525539	1
0	6578	1152.563955444995	0
0	6603	1161.10090427978	1
0	6604	1162.085176395131	0
0	6627	1165.538329478304	1
0	6628	1166.400246039492	0
0	6697	1183.315265379076	1
0	6699	1183.898833184231	0
0	6714	1184.716660652941	1
0	6718	1185.908976355939	2
0	6719	1186.074531519259	1
0	6725	1186.730090912697	2
0	6728	1186.936357289593	1
0	6736	1187.850554924879	0
0	6742	1187.975962915913	1
0	6744	1189.079242929024	0
0	6767	1190.347185060869	1
0	6769	1190.941492619381	0
0	6795	1194.709193162183	1
0	6799	1196.709148288581	0
0	6820	1201.101135677609	1
0	6823	1201.542270807863	0
0	6829	1202.165660490559	1
0	6831	1202.632687401216	0
0	6838	1202.728954344414	1
0	6839	1203.002633350677	0
0	6853	1204.299610734112	1
0	6854	1205.12628061872	0
0	6870	1208.862734878513	1
0	6873	1209.76507544154	0
0	6884	1210.51573846116	1
0	6885	1211.07769949486	0
0	6893	1211.443278281336	1
0	6895	1211.732198834077	0
0	6918	1220.311466305969	1
0	6919	1220.556620039234	0
0	6925	1220.612404827455	1
0	6926	1220.808798642286	0
0	7008	1232.206327769653	1
0	7009	1232.334262845522	0
0	7020	1232.461126445707	1
0	7021	1232.477954188753	0
0	7071	1242.456870109654	1
0	7072	1242.632908812436	0
0	7080	1242.930806220452	1
0	7081	1243.216315379382	0
0	7087	1244.131620964696	1
0	7088	1244.96074222696	0
0	7092	1245.902167707031	1
0	7096	1247.618919010857	2
0	7099	1247.889486107392	1
0	7103	1248.209611622602	2
0	7106	1249.350934327142	1
0	7113	1249.752189217605	0
0	7119	1250.258786684012	1
0	7121	1250.586914731611	2
0	7128	1251.979986880775	1
0	7133	1253.154166506875	0
0	7155	1258.253695627492	1
0	7156	1258.316162043509	0
0	7160	1258.779687691051	1
0	7167	1260.450198970005	0
0	7193	1261.811938876456	1
0	7195	1261.878103122515	2
0	7196	1261.979663586331	1
0	7206	1263.936033084112	2
0	7207	1264.172833066097	1
0	7211	1264.192271486611	2
0	7213	1264.233984972847	3
0	7215	1264.490111164387	4
0	7220	1265.837951022689	3
0	7228	1268.262112277122	2
0	7232	1269.486835031875	3
0	7234	1270.381034439941	4
0	7237	1270.883319034367	3
0	7244	1272.19980510013	2
0	7251	1272.272025939266	1
0	7255	1273.294584845195	2
0	7258	1274.729887514879	1
0	7262	1275.800100113681	2
0	7266	1277.36026126373	3
0	7267	1277.433380020417	2
0	7276	1278.893687791786	1
0	7282	1280.954402124976	2
0	7286	1282.737526960486	1
0	7291	1283.829312016138	0
0	7299	1285.088979211927	1
0	7303	1287.893880380059	2
0	7308	1288.545184651307	1
0	7312	1289.214070597114	2
0	7318	1291.625932672636	1
0	7323	1292.357641896363	0
0	7329	1292.545286909265	1
0	7330	1292.561359172287	0
0	7362	1296.838015260601	1
0	7363	1296.857192010302	0
0	7369	1297.117390086442	1
0	7371	1297.577910991901	0
0	7377	1297.898814467855	1
0	7380	1300.23962027489	0
0	7401	1305.424805326594	1
0	7403	1305.448158016319	2
0	7405	1305.491096806722	3
0	7406	1305.84331829564	2
0	7411	1306.800885468343	1
0	7416	1306.861433683588	0
0	7422	1306.952640126859	1
0	7424	1307.708020472797	2
0	7426	1308.289470666434	1
0	7431	1308.635052503851	0
0	7461	1313.231169023888	1
0	7463	1313.363050948453	2
0	7467	1314.16223342296	1
0	7471	1314.341461053731	2
0	7475	1315.365080263265	3
0	7477	1316.085828063178	4
0	7479	1316.201714386184	5
0	7486	1317.312853622096	4
0	7493	1318.101520219593	3
0	7498	1318.159521074755	2
0	7503	1318.674976186147	1
0	7509	1321.454427203174	2
0	7510	1321.763996617417	1
0	7514	1322.531755643977	2
0	7519	1325.561774185289	1
0	7527	1327.842493383794	0
0	7549	1330.610274238231	1
0	7552	1330.970272205106	0
0	7558	1331.937092590256	1
0	7559	1331.991255731802	0
0	7590	1339.461835681266	1
0	7591	1339.766583163549	0
0	7622	1343.19596228035	1
0	7625	1343.465574672664	0
0	7644	1345.434479772097	1
0	7645	1345.695177918089	0
0	7666	1347.54363855086	1
0	7670	1348.485248540026	2
0	7671	1348.967357940746	1
0	7678	1349.768762639477	0
0	7693	1351.874701192394	1
0	7694	1351.955095092066	0
0	7706	1353.342791237549	1
0	7707	1353.548841512946	0
0	7719	1355.857025281828	1
0	7727	1357.301476886809	0
0	7739	1357.540937401815	1
0	7741	1358.012560852374	2
0	7742	1358.378047303792	1
0	7751	1361.486743144901	2
0	7754	1362.430844302087	1
0	7761	1363.862861686412	0
0	7780	1366.246081896722	1
0	7782	1367.257040076699	2
0	7788	1367.947631000583	1
0	7793	1368.141118490027	0
0	7799	1368.1942714171	1
0	7800	1368.502936655104	0
0	7816	1369.035872769823	1
0	7819	1369.238521661437	2
0	7821	1369.568087046976	3
0	7823	1369.708969527044	4
0	7826	1370.601202984172	5
0	7827	1370.611983451393	4
0	7833	1370.688227359428	5
0	7834	1370.990798856099	4
0	7840	1371.057963727906	3
0	7846	1374.579802540542	4
0	7848	1375.0410782094	5
0	7849	1375.192980223465	4
0	7854	1375.328369578883	3
0	7863	1376.365058048253	4
0	7864	1376.984861957053	3
0	7869	1377.111402094607	2
0	7873	1377.229940255168	3
0	7881	1380.072500796972	2
0	7888	1380.492473250426	1
0	7893	1381.056450093425	0
0	7901	1382.589080023864	1
0	7902	1382.703462486497	0
0	7924	1384.643520765332	1
0	7927	1385.010369554919	0
0	7940	1385.76040641496	1
0	7943	1386.446005443452	2
0	7945	1386.830909633689	1
0	7951	1386.9890451557	0
0	7963	1388.464502809592	1
0	7966	1388.933322460058	2
0	7967	1389.044957427581	1
0	7973	1389.811275053712	0
0	7987	1390.939211298379	1
0	7990	1391.218537105401	0
0	8011	1391.533626996168	1
0	8012	1391.699691170089	0
0	8028	1393.039917592639	1
0	8030	1393.18138298216	2
0	8033	1393.517976531882	3
0	8036	1394.463227665321	4
0	8038	1394.762309720325	5
0	8039	1395.200105377704	4
0	8046	1396.647526947046	3
0	8053	1396.93979589597	4
0	8056	1397.007402189137	5
0	8058	1397.663351747147	6
0	8060	1399.11041754535	7
0	8061	1399.225464909359	6
0	8066	1399.886616852744	5
0	8072	1400.061327720852	4
0	8078	1400.397895592623	3
0	8087	1400.737427078926	2
0	8092	1400.929594538058	1
0	8099	1402.076304058114	0
0	8112	1404.137337228645	1
0	8114	1404.915092772495	2
0	8115	1405.672222642983	1
0	8120	1405.709071022708	0
0	8148	1412.801765690749	1
0	8149	1414.411693483425	0
0	8155	1415.831708719693	1
0	8158	1416.298836418798	0
0	8164	1417.161448569224	1
0	8165	1417.52804682911	0
0	8169	1417.735515837734	1
0	8171	1418.210365195241	2
0	8173	1419.477797238868	3
0	8175	1421.105851944409	4
0	8177	1421.759413651974	5
0	8184	1422.578828946875	4
0	8191	1424.265044777349	3
0	8196	1424.586500289742	2
0	8202	1425.325198345002	3
0	8204	1425.464085038594	4
0	8205	1427.053299231497	3
0	8210	1427.336573278147	2
0	8214	1428.445277371037	3
0	8218	1430.249398978621	4
0	8223	1431.699846047243	3
0	8227	1433.105811601941	4
0	8229	1433.199737601758	5
0	8231	1433.607989962562	6
0	8234	1434.325439239207	5
0	8242	1436.029145233994	6
0	8243	1436.326111082934	5
0	8249	1436.81930096406	6
0	8250	1437.847547164181	5
0	8255	1438.661159899158	4
0	8260	1439.005737099932	3
0	8267	1439.842021709616	4
0	8269	1440.390597109591	5
0	8270	1440.515389736598	4
0	8276	1440.624732429154	5
0	8279	1442.343209225276	4
0	8283	1442.453787410402	5
0	8285	1443.211323484932	6
0	8288	1443.984557480732	5
0	8293	1444.161559281036	4
0	8297	1444.66646210796	5
0	8300	1446.041465127031	4
0	8305	1446.374734079564	3
0	8312	1447.174386257504	2
0	8317	1447.63162000136	1
0	8321	1451.256621030409	2
0	8324	1453.149497367147	1
0	8328	1454.991531093244	2
0	8332	1456.144328545466	3
0	8335	1456.749070435957	2
0	8340	1457.535492708028	1
0	8345	1458.632904118073	0
0	8359	1460.409159622913	1
0	8360	1461.756482822982	0
0	8364	1461.77376780552	1
0	8368	1463.885099572899	2
0	8370	1464.600104503694	3
0	8372	1466.307860615506	4
0	8376	1466.917085732429	5
0	8377	1467.620826837428	4
0	8385	1469.701570658581	5
0	8389	1470.796872425082	4
0	8398	1471.894259699344	5
0	8399	1473.454056175734	4
0	8404	1474.241879565157	3
0	8409	1475.325666794906	2
0	8413	1475.473685402062	3
0	8416	1476.115048794538	2
0	8423	1476.733019036854	1
0	8428	1476.781430571218	0
0	8451	1478.956680001746	1
0	8452	1479.948679199044	0
0	8485	1482.658228401915	1
0	8486	1482.692038227758	0
0	8520	1488.5907368021	1
0	8523	1490.204790968259	0
0	8542	1494.914914473171	1
0	8548	1496.011432149508	0
0	8557	1497.02418390905	1
0	8558	1497.548495451684	0
0	8565	1497.694860385328	1
0	8566	1497.991132818917	0
0	8586	1500.301664257713	1
0	8588	1501.52847054039	2
0	8589	1502.479211060324	1
0	8596	1503.043827081422	2
0	8597	1503.250003167867	1
0	8602	1503.30081628337	0
0	8621	1505.824786395177	1
0	8625	1506.426662811284	2
0	8627	1506.837436356476	1
0	8632	1507.347052284453	0
0	8638	1507.566827809795	1
0	8639	1507.747716925341	0
0	8645	1507.7528007931	1
0	8649	1509.030368224579	2
0	8651	1509.982451878125	1
0	8657	1510.756313332465	0
0	8670	1511.899873656907	1
0	8671	1512.080879354464	0
0	8690	1513.628325110924	1
0	8692	1514.21179929404	2
0	8695	1515.01148787403	3
0	8697	1515.501440045681	2
0	8704	1516.266357561694	3
0	8706	1516.555118763777	2
0	8711	1517.405525272549	1
0	8719	1519.535850382627	0
0	8733	1521.540663227126	1
0	8734	1522.34633247565	0
0	8747	1523.249969940316	1
0	8748	1523.288039937282	0
0	8766	1526.311682765785	1
0	8769	1527.203768589874	0
0	8780	1528.282312220549	1
0	8785	1529.811329401205	0
0	8797	1530.996171377084	1
0	8798	1531.001432741582	0
0	8808	1532.75102626197	1
0	8809	1534.18678122469	0
0	8815	1534.412866439939	1
0	8818	1534.715284038679	2
0	8824	1535.772779295288	3
0	8826	1536.016818870233	2
0	8831	1536.391511046001	1
0	8837	1537.175132545016	2
0	8838	1537.441653692025	1
0	8843	1537.551770553284	0
0	8855	1538.518048493535	1
0	8856	1538.809605675699	0
0	8872	1543.116687213673	1
0	8873	1543.122891526646	0
0	8896	1545.05399663368	1
0	8897	1545.10495325006	0
0	8931	1549.344910154105	1
0	8933	1549.694349520393	2
0	8934	1550.107187306948	1
0	8939	1550.522375038124	0
0	8962	1553.757430279458	1
0	8964	1553.989375884672	0
0	8972	1554.3858123714	1
0	8976	1554.753784337299	2
0	8977	1555.104232694205	1
0	8982	1555.136551352677	0
0	8996	1556.059918807865	1
0	8998	1556.099148620837	2
0	9002	1556.774030587528	3
0	9003	1556.937966327202	2
0	9009	1557.232619871337	3
0	9010	1557.741441738715	2
0	9015	1557.791976107426	1
0	9021	1558.104178461276	2
0	9029	1559.093543966112	3
0	9030	1559.409387493829	2
0	9037	1560.168094558956	1
0	9043	1560.988462544359	2
0	9044	1561.868201106409	1
0	9049	1562.620485798057	0
0	9064	1563.552093448429	1
0	9067	1564.187528112819	2
0	9071	1567.64698301057	3
0	9079	1570.354167565288	4
0	9080	1572.902206966361	3
0	9085	1573.634804392601	2
0	9090	1573.710830809509	1
0	9095	1574.284067424972	0
0	9108	1574.995990213965	1
0	9109	1575.04346070609	0
0	9123	1576.397476743721	1
0	9128	1577.566867694965	2
0	9131	1579.198082024607	1
0	9136	1579.326328348589	0
0	9147	1579.540306566954	1
0	9148	1579.59417359628	0
0	9154	1579.693025885002	1
0	9157	1581.624720520013	2
0	9158	1583.051422832394	1
0	9163	1583.20566787873	0
0	9216	1589.099688586335	1
0	9219	1589.445012986352	0
0	9233	1591.605695621169	1
0	9237	1592.32359356554	2
0	9238	1592.884045173752	1
0	9244	1593.431743111445	0
0	9250	1594.144387857678	1
0	9252	1594.484005590661	0
0	9268	1595.842956395653	1
0	9274	1598.828994165145	2
0	9275	1599.338044131737	1
0	9280	1599.482752268617	0
0	9284	1600.545391600999	1
0	9289	1602.835823461856	0
0	9293	1603.206681606086	1
0	9295	1604.195370244323	2
0	9301	1605.733452971848	3
0	9304	1606.18487319816	2
0	9309	1606.469568733136	1
0	9314	1606.537653017132	0
0	9321	1606.847440953461	1
0	9323	1607.270322852973	0
0	9330	1607.977633236518	1
0	9331	1608.151106598994	0
0	9364	1612.378476823401	1
0	9367	1613.594244986792	0
0	9410	1620.189882238016	1
0	9411	1620.489963766916	0
0	9417	1621.543121188726	1
0	9418	1623.431019131793	0
0	9462	1630.902812923072	1
0	9463	1631.019033363184	0
0	9480	1632.148633991915	1
0	9481	1632.195705317463	0
0	9523	1637.894153956741	1
0	9526	1639.156520117919	0
0	9538	1639.723429911173	1
0	9539	1640.881209450793	0
0	9560	1643.856438307201	1
0	9562	1644.178257012558	2
0	9564	1644.513551749898	1
0	9570	1644.682240374519	2
0	9571	1645.083359780466	1
0	9578	1645.399264820884	0
0	9585	1645.660063956482	1
0	9589	1646.479204778887	0
0	9703	1666.903424606984	1
0	9704	1667.132681132648	0
0	9711	1667.979755394717	1
0	9714	1668.794035859524	2
0	9717	1669.904515275517	3
0	9719	1669.967090808473	4
0	9721	1670.169392403419	3
0	9726	1670.326242562617	2
0	9731	1670.36210622738	1
0	9736	1670.756340841272	0
0	9742	1671.00269442314	1
0	9745	1671.041757269116	2
0	9748	1672.118208852652	3
0	9749	1672.61849514687	2
0	9754	1672.952080184577	1
0	9759	1673.09460909298	0
0	9793	1677.618933804425	1
0	9798	1678.136455658887	0
0	9825	1682.57505262686	1
0	9826	1682.949437092437	0
0	9832	1683.165554273574	1
0	9833	1683.178234698309	0
0	9868	1699.87768207307	1
0	9869	1700.664208989114	0
0	9884	1702.734422482869	1
0	9886	1703.151310636171	2
0	9887	1703.215419874118	1
0	9895	1704.417169280288	0
0	9904	1705.603222979523	1
0	9905	1705.955407149833	0
0	9919	1706.872487887696	1
0	9921	1707.622552921978	2
0	9922	1707.830142020375	1
0	9927	1708.881204450186	0
0	10010	1735.887289290833	1
0	10018	1738.057308795633	0
0	10040	1740.549407774435	1
0	10044	1741.613027321746	2
0	10047	1743.338528748941	3
0	10049	1743.65107683445	2
0	10054	1743.738615849554	1
0	10059	1744.876172511884	0
0	10065	1745.954108928134	1
0	10066	1746.388549445878	0
0	10074	1746.754681177976	1
0	10075	1747.656371130508	0
0	10081	1747.674709637106	1
0	10083	1748.359813015058	2
0	10085	1748.851733986915	3
0	10087	1749.106891834559	4
0	10089	1749.465418547405	5
0	10091	1749.710277382907	6
0	10094	1750.682766643006	5
0	10099	1750.964856013367	4
0	10106	1752.221734614467	5
0	10107	1752.337513370438	4
0	10112	1752.406547229577	3
0	10117	1752.546011024558	2
0	10121	1752.74276202007	3
0	10123	1753.448068299437	4
0	10127	1753.742211327071	5
0	10129	1754.240802463627	6
0	10131	1754.48390430424	7
0	10133	1754.540467719535	8
0	10134	1755.41212309924	7
0	10139	1755.65794189107	6
0	10144	1756.919126001607	5
0	10150	1757.09263643799	6
0	10152	1757.700521745455	7
0	10155	1759.334234251234	6
0	10162	1760.366265341197	5
0	10167	1760.522663727754	4
0	10173	1762.875283758389	5
0	10175	1762.888733956635	6
0	10176	1762.920622341392	5
0	10183	1765.58553167032	4
0	10191	1766.364118990855	5
0	10192	1766.506627908441	4
0	10198	1766.942063536631	3
0	10203	1767.531521124276	2
0	10209	1769.601025151232	3
0	10212	1770.503163181906	2
0	10218	1771.397312080144	3
0	10221	1773.900443026475	2
0	10226	1774.374241811577	1
0	10234	1778.08131447529	0
0	10259	1782.704157885716	1
0	10261	1783.21385677565	0
0	10271	1783.922035291804	1
0	10272	1784.451562151041	0
0	10278	1784.463142902056	1
0	10281	1785.0275669996	2
0	10284	1785.638563438296	3
0	10285	1786.122308982105	2
0	10292	1786.841044143781	1
0	10298	1788.244498358556	0
0	10337	1791.470544652111	1
0	10341	1792.342888211479	2
0	10344	1793.548075103429	1
0	10350	1794.394478384903	2
0	10352	1794.592223232961	3
0	10354	1794.723636820827	2
0	10360	1795.400538599228	1
0	10365	1795.427453558752	0
0	10483	1814.790634709992	1
0	10485	1815.254482998894	0
0	10554	1834.48049662338	1
0	10557	1834.866721656778	2
0	10559	1835.926171323317	3
0	10561	1836.019815336931	4
0	10563	1836.605199876514	5
0	10566	1836.753772893119	4
0	10572	1836.843501638325	5
0	10574	1837.715996552223	6
0	10576	1838.866387866946	5
0	10581	1838.922392578039	4
0	10586	1840.346500848802	3
0	10592	1840.971067211919	2
0	10598	1841.166166296404	3
0	10599	1842.019876739681	2
0	10605	1842.04745354698	3
0	10607	1843.402616751471	2
0	10616	1844.425904616157	1
0	10623	1847.826635310787	0
0	10636	1850.446461642771	1
0	10638	1851.120302837324	0
0	10651	1852.338000630288	1
0	10653	1852.477660747394	2
0	10655	1852.586178550198	3
0	10657	1853.217928572286	4
0	10658	1853.238208751924	3
0	10667	1854.629241345998	4
0	10670	1854.822842534223	5
0	10672	1855.009335712534	6
0	10675	1856.305150261824	5
0	10682	1856.715052035216	6
0	10684	1856.761294858977	7
0	10686	1857.055221604775	8
0	10687	1858.448860796509	7
0	10693	1858.694035790898	8
0	10694	1858.967630933083	7
0	10698	1859.771390180802	8
0	10700	1860.387449268025	9
0	10706	1863.83007240035	8
0	10712	1864.155892191402	9
0	10713	1865.481230643097	8
0	10717	1866.017638927845	9
0	10720	1866.647960353462	8
0	10724	1867.008525534435	9
0	10727	1867.649742706131	8
0	10731	1867.945945493239	9
0	10735	1868.866862649184	10
0	10736	1869.34203802671	9
0	10742	1869.525011947818	10
0	10743	1869.582365285079	9
0	10750	1871.402994237733	8
0	10754	1871.43512137045	9
0	10756	1872.321027561895	10
0	10760	1873.503695870645	11
0	10761	1873.601870886959	10
0	10766	1873.784297703167	9
0	10776	1880.177738507993	8
0	10784	1881.719667897801	7
0	10789	1882.348759289826	6
0	10794	1882.48639229223	5
0	10800	1884.307615075972	4
0	10806	1884.349646307357	5
0	10807	1885.154402850625	4
0	10811	1885.321905422063	5
0	10816	1886.60950045221	4
0	10823	1890.922757038273	3
0	10827	1891.174920566986	4
0	10830	1891.567087131586	3
0	10836	1892.213431268747	4
0	10837	1892.496233218767	3
0	10844	1894.013532514646	2
0	10855	1895.446422049367	3
0	10856	1895.744556924567	2
0	10864	1896.858083184376	3
0	10866	1897.610655624717	4
0	10868	1897.828053529584	5
0	10873	1899.240432340583	4
0	10879	1899.783463944827	5
0	10880	1901.348968682892	4
0	10884	1901.816743400886	5
0	10886	1901.990381809741	6
0	10888	1902.033702864903	7
0	10890	1902.514367090513	8
0	10894	1902.747822296163	9
0	10898	1903.508957001007	10
0	10900	1903.856166437536	11
0	10902	1904.670216530588	12
0	10903	1905.185856292243	11
0	10908	1906.096766631494	10
0	10912	1906.292378218503	11
0	10916	1907.69351580043	10
0	10921	1908.169330058181	9
0	10926	1908.307045097504	8
0	10930	1908.460133343626	9
0	10932	1909.423696286028	10
0	10936	1909.668183406867	11
0	10938	1909.881420661371	12
0	10940	1909.918729255705	13
0	10941	1910.986744957818	12
0	10945	1911.282862768015	13
0	10947	1911.652801946253	14
0	10950	1911.949394100305	13
0	10955	1912.260932806957	12
0	10962	1913.065348860202	13
0	10965	1913.77709946981	12
0	10972	1914.227481622762	11
0	10977	1915.516913309182	10
0	10981	1916.671341066268	11
0	10983	1917.72915319206	12
0	10986	1918.899799207917	11
0	10990	1919.240996319041	12
0	10992	1919.864726801586	13
0	10996	1920.77557029869	14
0	10997	1922.375230931864	13
0	11002	1922.666645720669	12
0	11008	1924.715604483574	13
0	11009	1925.055479317951	12
0	11014	1925.275171695851	11
0	11018	1925.478347781893	12
0	11021	1929.082902227907	11
0	11030	1930.86853406118	10
0	11036	1931.37855369629	9
0	11041	1932.549500387289	8
0	11046	1933.07325077776	7
0	11056	1935.842475358201	6
0	11063	1938.268886377602	7
0	11065	1938.510006934578	8
0	11068	1939.919355184284	7
0	11074	1940.208935020883	8
0	11079	1942.385274826311	7
0	11084	1942.431698334519	6
0	11091	1943.050123525175	5
0	11096	1943.08354281158	4
0	11101	1943.178385342555	3
0	11107	1944.035470420596	4
0	11108	1944.327056141519	3
0	11114	1946.094216088821	4
0	11119	1946.812255558754	3
0	11124	1947.09509113604	2
0	11130	1947.749793846461	3
0	11131	1947.784969855208	2
0	11135	1950.381912558049	3
0	11141	1953.132781678561	2
0	11147	1953.449104744742	3
0	11148	1954.059960730871	2
0	11154	1954.438038634653	3
0	11155	1954.852032735687	2
0	11161	1955.547957420578	3
0	11163	1955.807603644798	4
0	11164	1955.993840590767	3
0	11169	1957.121244573146	2
0	11175	1959.330718359214	1
0	11180	1960.04169911224	0
0	11193	1964.184332893054	1
0	11194	1965.473852510687	0
0	11218	1966.507107088583	1
0	11220	1966.691204500359	2
0	11221	1967.521076885263	1
0	11228	1968.371768389981	2
0	11230	1969.659929061343	1
0	11238	1972.483123688657	0
0	11262	1975.416990708556	1
0	11264	1975.554011136146	2
0	11268	1978.149561265356	1
0	11274	1978.260879693958	2
0	11275	1978.387693738324	1
0	11282	1978.906928154551	0
0	11294	1981.226053784445	1
0	11297	1983.730989095658	2
0	11298	1983.939241286323	1
0	11303	1984.103384600357	0
0	11326	1987.475741460262	1
0	11329	1988.495612271174	0
0	11335	1988.524310765399	1
0	11338	1989.304090002179	2
0	11339	1991.137856376106	1
0	11344	1991.208341983542	0
0	11350	1991.248641013879	1
0	11351	1991.561712820555	0
0	11357	1991.623583473023	1
0	11358	1991.971287421432	0
0	11364	1992.411443943639	1
0	11366	1992.560667199801	2
0	11369	1992.800176032556	1
0	11374	1993.047296732613	0
0	11388	1993.29940568959	1
0	11389	1993.51456939821	0
0	11442	1999.48951842692	1
0	11443	1999.620307879425	0
0	11452	2000.309138623653	1
0	11454	2003.144109125957	2
0	11456	2004.084850165791	3
0	11460	2005.226658813459	4
0	11463	2005.740683982807	3
0	11470	2006.591069575494	2
0	11477	2006.770857234486	3
0	11479	2006.880146549079	4
0	11481	2007.267650202881	5
0	11485	2007.76436580925	4
0	11490	2007.952574077521	3
0	11497	2008.869804845364	2
0	11502	2009.137526193296	1
0	11513	2010.026989456737	2
0	11519	2010.427092560468	1
0	11524	2011.599488891075	0
0	11531	2012.907467878297	1
0	11533	2013.168120679024	2
0	11534	2013.597363793083	1
0	11539	2013.639900828156	0
0	11545	2014.044276708701	1
0	11546	2014.211517878929	0
0	11566	2019.220968564593	1
0	11568	2019.66424520195	0
0	11581	2020.54321781121	1
0	11582	2020.629796595281	0
0	11604	2021.571563460849	1
0	11605	2021.584565683541	0
0	11609	2021.712109763904	1
0	11614	2022.974243485579	0
0	11618	2023.06096936005	1
0	11624	2024.275616915484	0
0	11630	2024.3387039706	1
0	11632	2024.611219338988	0
0	11663	2028.310457383355	1
0	11665	2028.355384977996	2
0	11673	2029.175262079458	3
0	11674	2029.702969278051	2
0	11680	2030.269549654428	1
0	11686	2030.615622623101	2
0	11689	2031.364425118684	1
0	11695	2031.609874116424	0
0	11706	2032.159369393463	1
0	11707	2032.840721005154	0
0	11711	2033.441115298088	1
0	11713	2034.149801438244	2
0	11717	2034.953397563011	1
0	11722	2035.183903882792	0
0	11728	2035.643722577885	1
0	11733	2037.756455232578	0
0	11739	2038.762363124788	1
0	11740	2038.892878895812	0
0	11746	2039.653976975951	1
0	11748	2039.720480910614	2
0	11751	2040.532431940399	1
0	11757	2041.102571993621	0
0	11761	2041.179941707624	1
0	11765	2042.735626739058	0
0	11787	2045.741665078792	1
0	11788	2045.858406384805	0
0	11809	2048.576711743628	1
0	11810	2048.739674265606	0
0	11835	2051.449307447266	1
0	11837	2051.728126603884	0
0	11848	2052.008456949549	1
0	11849	2052.744985742486	0
0	11875	2054.896260855542	1
0	11880	2056.017775417319	0
0	11903	2059.3046377371	1
0	11904	2059.337288694469	0
0	11921	2060.653225006105	1
0	11922	2061.139352882344	0
0	11936	2062.284074698789	1
0	11938	2062.351479227671	2
0	11942	2062.436186034245	3
0	11946	2063.088502054632	2
0	11951	2063.151332309871	1
0	11961	2066.647024913151	0
0	11967	2067.420368619561	1
0	11969	2067.52702047176	2
0	11971	2067.594669027202	3
0	11976	2069.865364712053	2
0	11983	2070.818832501055	1
0	11988	2071.392499064375	0
0	12000	2073.338856697586	1
0	12007	2074.713611503616	2
0	12008	2075.015648108127	1
0	12013	2075.151222546685	0
0	12032	2078.087389929083	1
0	12039	2079.713477953205	0
0	12064	2082.316283832027	1
0	12066	2082.320729247313	2
0	12068	2082.973359248632	3
0	12072	2083.937859468022	2
0	12077	2084.335885954603	1
0	12085	2086.201549646618	0
0	12099	2087.189127928351	1
0	12103	2089.234297361511	0
0	12114	2090.103489461562	1
0	12116	2090.146155440648	2
0	12119	2093.371482981253	3
0	12120	2093.513101614547	2
0	12126	2094.059470661624	1
0	12135	2095.576879964876	2
0	12136	2096.125366029277	1
0	12142	2097.726584454588	0
0	12169	2103.818110197767	1
0	12171	2105.065677663328	2
0	12173	2108.072237212182	3
0	12175	2110.026199718667	4
0	12177	2112.483692897461	5
0	12179	2115.147571983494	6
0	12183	2116.703738261599	5
0	12189	2116.804119429467	6
0	12190	2117.225832364853	5
0	12195	2117.342427741735	4
0	12200	2117.570605580906	3
0	12207	2117.891881572971	2
0	12212	2117.931176851433	1
0	12222	2119.18005345569	2
0	12225	2120.952266658369	3
0	12229	2121.853712241917	2
0	12234	2122.076384633524	1
0	12243	2123.211088009108	2
0	12244	2123.478188015027	1
0	12250	2123.695263582298	0
0	12271	2125.87525653142	1
0	12272	2126.327500420711	0
0	12283	2128.016732618916	1
0	12285	2130.35738335843	2
0	12288	2130.626366503835	1
0	12303	2132.527840662039	0
0	12309	2133.252337656166	1
0	12310	2133.450169241387	0
0	12344	2136.582371794515	1
0	12345	2136.687195004316	0
0	12351	2137.227936178011	1
0	12354	2138.130968756059	0
0	12365	2138.16630622034	1
0	12366	2138.219994232796	0
0	12392	2140.627129538303	1
0	12395	2142.298777996248	0
0	12407	2143.136810860067	1
0	12408	2143.13989656817	0
0	12414	2143.392010924426	1
0	12416	2143.971285261319	0
0	12422	2144.266897443296	1
0	12424	2145.87116898315	0
0	12464	2152.759750676742	1
0	12466	2152.862487085737	2
0	12469	2153.820642581745	1
0	12474	2153.853651579701	0
0	12488	2155.448009334671	1
0	12492	2156.726369679195	0
0	12522	2162.081558641458	1
0	12523	2162.288850851055	0
0	12559	2166.393610137787	1
0	12563	2169.224107196028	0
0	12575	2170.573704883052	1
0	12579	2171.855901573243	2
0	12580	2174.271452915008	1
0	12586	2174.313868440749	2
0	12587	2174.793438016735	1
0	12592	2175.056568736563	0
0	12598	2175.170546791008	1
0	12600	2176.625288650647	0
0	12611	2177.937481722792	1
0	12613	2178.589069736078	2
0	12619	2179.464229837927	1
0	12625	2179.694433608524	2
0	12626	2179.704333955182	1
0	12632	2180.402071961808	0
0	12653	2182.994162257508	1
0	12659	2184.066686032586	2
0	12662	2185.501528528933	1
0	12667	2185.606390208094	0
0	12725	2192.052291678948	1
0	12727	2194.816331643736	2
0	12730	2195.860122194959	1
0	12737	2196.320864295004	0
0	12750	2197.635223533277	1
0	12752	2198.00539909663	2
0	12754	2198.615822131141	1
0	12759	2198.823919773894	0
0	12773	2200.146831879459	1
0	12775	2200.200604681626	2
0	12777	2200.222777615989	3
0	12778	2200.268950277408	2
0	12783	2200.422491352579	1
0	12788	2200.519593233636	0
0	12818	2203.484458392286	1
0	12822	2203.846667669729	2
0	12824	2203.870711583806	3
0	12826	2204.31627709093	2
0	12832	2205.275602682839	3
0	12836	2206.147981334215	4
0	12838	2209.356408171256	5
0	12846	2210.724827120258	6
0	12848	2210.804847293341	7
0	12852	2211.318993428551	6
0	12858	2211.624225333976	7
0	12859	2211.792860901298	6
0	12864	2212.323214520486	5
0	12869	2213.244991874101	4
0	12876	2214.988336600431	5
0	12878	2216.456961812285	6
0	12880	2217.330928145108	7
0	12881	2217.992807101585	6
0	12885	2218.234909056865	7
0	12890	2219.506591409667	6
0	12895	2219.727348557998	5
0	12901	2220.336825358072	6
0	12902	2220.511061996825	5
0	12906	2220.926390921998	6
0	12908	2221.569562818907	7
0	12911	2222.411717844541	6
0	12918	2223.35375777699	5
0	12926	2224.949126431689	4
0	12932	2225.073728974451	5
0	12935	2226.072231023827	4
0	12941	2226.138576780443	5
0	12942	2226.417678416477	4
0	12949	2226.540385736165	3
0	12953	2226.816703748639	4
0	12960	2229.918720682672	5
0	12962	2231.365478596566	4
0	12969	2232.896460154813	5
0	12970	2233.015168936445	4
0	12976	2233.456751008366	3
0	12983	2233.807617192281	2
0	12989	2233.971653436837	1
0	12995	2233.978479799169	2
0	12998	2234.604325344792	1
0	13004	2236.902921350975	2
0	13011	2237.365347378648	1
0	13016	2238.584792670958	0
0	13020	2238.973330108314	1
0	13024	2239.655982962411	2
0	13031	2241.099648583049	3
0	13034	2241.481389048057	2
0	13040	2241.694344590632	3
0	13043	2242.63865504296	2
0	13047	2244.057492070262	3
0	13050	2244.606223537629	2
0	13056	2246.066827968175	3
0	13057	2247.353038016376	2
0	13062	2248.093119219634	1
0	13066	2248.381269042298	2
0	13070	2248.771508558974	3
0	13072	2249.165551122516	2
0	13077	2249.382434865092	1
0	13084	2251.650712614197	0
0	13096	2252.128318290872	1
0	13097	2252.261551702126	0
0	13105	2252.498563283415	1
0	13107	2253.773330744592	0
0	13115	2254.152565002477	1
0	13117	2255.03745441038	0
0	13156	2260.783893210333	1
0	13158	2260.797271391351	2
0	13160	2260.961024721831	1
0	13164	2261.59675543517	2
0	13166	2264.543627878226	3
0	13171	2266.471514114182	2
0	13176	2266.624634297547	1
0	13181	2267.551547185161	0
0	13185	2269.494344796898	1
0	13187	2270.167928875666	2
0	13189	2270.178681802635	3
0	13191	2270.416665724679	4
0	13199	2272.382763345427	5
0	13200	2272.724535163132	4
0	13205	2274.291252547763	3
0	13209	2274.310277161859	4
0	13211	2274.476111058471	5
0	13217	2275.548831707553	6
0	13220	2276.356307903176	5
0	13225	2277.761693898474	4
0	13229	2278.805749051398	5
0	13232	2280.284289720936	4
0	13238	2281.215411572745	3
0	13243	2281.231256819106	2
0	13249	2281.47900316713	3
0	13250	2281.699634992322	2
0	13254	2282.124509479137	3
0	13257	2284.298020553987	2
0	13262	2284.685491343098	1
0	13266	2284.740580974234	2
0	13269	2287.725373592761	1
0	13275	2289.073193051336	2
0	13276	2289.353921924453	1
0	13282	2289.577567992332	2
0	13286	2292.013983949863	1
0	13292	2292.402868685822	2
0	13295	2292.746306740655	3
0	13297	2293.478262458098	4
0	13299	2293.675020594169	5
0	13304	2294.411635317972	4
0	13311	2295.120395541784	5
0	13312	2295.876314675165	4
0	13319	2296.054579398195	5
0	13321	2296.24210032229	6
0	13322	2296.244527530571	5
0	13327	2296.307638019529	4
0	13331	2296.627796678446	5
0	13336	2297.782552846307	4
0	13340	2297.908949356159	5
0	13342	2298.398225274321	6
0	13345	2299.148857335627	5
0	13352	2299.797951667514	4
0	13358	2299.983583008285	3
0	13363	2300.858221685853	2
0	13368	2301.081084196196	1
0	13374	2301.446055687369	2
0	13376	2302.146388594329	3
0	13384	2304.078742061841	4
0	13385	2304.200249984579	3
0	13390	2304.381638361027	2
0	13395	2304.856173405464	1
0	13403	2309.475115946015	2
0	13406	2309.798922442469	1
0	13413	2310.227329765946	0
0	13432	2315.324651270709	1
0	13434	2316.221269466089	0
0	13476	2321.926439279816	1
0	13483	2324.321263453351	2
0	13485	2324.337451770997	3
0	13488	2325.518862089061	4
0	13493	2326.084323568643	3
0	13499	2327.159045500515	4
0	13501	2327.264554373765	3
0	13507	2327.386896939415	4
0	13510	2329.341122983492	3
0	13515	2329.440693560611	2
0	13523	2329.634083119493	3
0	13526	2330.082354765425	2
0	13531	2330.837831891623	1
0	13538	2331.654126251911	2
0	13540	2331.897160849975	3
0	13542	2332.211980290338	4
0	13543	2332.29394868021	3
0	13553	2333.594648087489	4
0	13554	2333.788705517232	3
0	13559	2334.588287329023	2
0	13564	2335.217441055659	1
0	13569	2336.221255861748	0
0	13573	2336.398554738536	1
0	13575	2336.670591332199	2
0	13578	2337.874756797623	1
0	13582	2338.157005524233	2
0	13587	2340.298469616411	1
0	13594	2342.903148324953	2
0	13595	2343.020652058847	1
0	13604	2343.681811561738	0
0	13617	2348.043218870488	1
0	13619	2349.672324218451	0
0	13623	2350.371530909874	1
0	13627	2351.073610504851	0
0	13638	2351.538471201682	1
0	13639	2351.678133083493	0
0	13643	2354.595328733989	1
0	13647	2355.199780611762	0
0	13658	2356.802102194607	1
0	13661	2356.928378325069	0
0	13667	2357.32375550877	1
0	13668	2357.351959602451	0
0	13695	2359.974274648617	1
0	13698	2360.798309223796	0
0	13712	2362.057722815945	1
0	13714	2362.554181498328	2
0	13715	2365.216734726532	1
0	13720	2365.250733380496	0
0	13769	2374.034721662379	1
0	13771	2374.474972532051	2
0	13773	2375.645027834751	3
0	13775	2376.252829792267	4
0	13778	2376.447504864137	3
0	13783	2376.553766737045	2
0	13792	2377.177196572345	1
0	13800	2377.315552007851	2
0	13802	2379.921909745223	1
0	13808	2380.430032121827	0
0	13822	2384.995679724525	1
0	13827	2385.760175429736	0
0	13858	2389.768903528756	1
0	13861	2389.95185657261	2
0	13862	2390.322011343306	1
0	13867	2390.352545355132	0
0	13908	2395.704251250271	1
0	13910	2395.937015505197	2
0	13912	2396.465077813563	3
0	13914	2396.883953618489	4
0	13916	2398.037274188365	5
0	13918	2399.01484000918	6
0	13920	2399.335893575222	7
0	13922	2399.555281434843	8
0	13924	2399.808667639035	9
0	13928	2401.126614654772	8
0	13934	2401.224866966069	9
0	13939	2402.578892571887	10
0	13940	2402.971703170221	9
0	13946	2402.988628781571	10
0	13948	2403.689261612629	9
0	13953	2403.824434555109	8
0	13958	2403.945204588911	7
0	13963	2404.052511004343	6
0	13968	2404.469631674716	5
0	13973	2405.817788777683	4
0	13979	2406.374253096477	5
0	13981	2406.937901900577	6
0	13983	2407.512539310686	7
0	13986	2408.187803990189	6
0	13996	2410.003979835676	7
0	14004	2412.053970025227	6
0	14009	2412.454585770739	5
0	14017	2413.018694636478	6
0	14018	2413.287941920026	5
0	14025	2414.020931263245	4
0	14036	2417.079592632216	3
0	14041	2417.794251471267	2
0	14045	2418.133801376068	3
0	14049	2418.290204671737	4
0	14053	2418.589594809709	3
0	14060	2418.963134406421	2
0	14067	2419.555426076568	1
0	14073	2421.637979989492	2
0	14078	2423.178120637292	3
0	14079	2424.512181155016	2
0	14086	2425.588039895391	3
0	14090	2425.769424151554	4
0	14091	2425.906788768147	3
0	14096	2426.008690244117	2
0	14102	2427.411337480729	3
0	14103	2427.475697442779	2
0	14108	2427.483080172076	1
0	14112	2427.831964247974	2
0	14115	2428.363564155211	1
0	14120	2430.027890623411	0
0	14124	2431.085470739805	1
0	14126	2431.194860551012	2
0	14129	2431.615949977381	1
0	14139	2433.248073751433	2
0	14141	2435.035660904756	1
0	14148	2435.293568483821	0
0	14156	2436.102029869412	1
0	14157	2436.378823292935	0
0	14195	2440.036738376938	1
0	14198	2441.238963976016	0
0	14222	2443.847619337773	1
0	14223	2444.033305588755	0
0	14236	2447.693415275706	1
0	14241	2448.147221560926	2
0	14242	2448.297540382724	1
0	14247	2448.59812582519	0
0	14286	2452.680520363796	1
0	14289	2452.954366273063	0
0	14297	2453.342865174802	1
0	14302	2454.618168556984	0
0	14318	2458.54816109278	1
0	14319	2458.850171874323	0
0	14330	2459.795881294634	1
0	14332	2459.886776325079	2
0	14333	2459.931588539825	1
0	14339	2460.627389092171	0
0	14373	2465.085722024663	1
0	14374	2465.292141391863	0
0	14388	2467.878957814137	1
0	14389	2468.069755072516	0
0	14397	2469.648244038377	1
0	14398	2470.052708868273	0
0	14404	2470.410053227368	1
0	14408	2471.917618195669	2
0	14409	2472.104801754412	1
0	14417	2472.370035757021	2
0	14418	2472.384890172663	1
0	14424	2472.901797508766	0
0	14430	2473.529522518997	1
0	14431	2473.657467888723	0
0	14440	2475.591146229033	1
0	14441	2475.7275938048	0
0	14447	2476.220921066331	1
0	14449	2476.300726632675	2
0	14450	2476.406249043564	1
0	14454	2478.744692461052	2
0	14456	2478.905921330267	3
0	14460	2480.792148775224	4
0	14462	2481.248157956901	5
0	14463	2481.919704456584	4
0	14469	2481.971313135448	5
0	14470	2482.137240524871	4
0	14474	2482.457502779215	5
0	14480	2483.258992408618	4
0	14485	2483.689769721671	3
0	14492	2484.642173656343	2
0	14498	2485.649513852673	1
0	14503	2485.967087431394	0
0	14549	2493.349425260174	1
0	14557	2494.303653784127	2
0	14558	2494.733692420836	1
0	14566	2495.639778152841	2
0	14567	2495.77689224949	1
0	14574	2497.312243531911	0
0	14591	2499.812407215981	1
0	14593	2500.43488440633	2
0	14594	2500.671230475393	1
0	14599	2501.103816738969	0
0	14606	2501.800764194653	1
0	14607	2501.936468649036	0
0	14644	2510.623369740593	1
0	14645	2510.915657715473	0
0	14652	2511.801490102226	1
0	14654	2512.957215505969	0
0	14671	2515.32211076468	1
0	14672	2515.683384701877	0
0	14690	2517.513444482688	1
0	14691	2518.176321269412	0
0	14713	2519.388749078598	1
0	14714	2519.666683813508	0
0	14726	2520.564565742496	1
0	14728	2520.575926083309	2
0	14729	2520.73672178097	1
0	14734	2521.527337019997	0
0	14747	2523.102047233946	1
0	14749	2524.590125945532	0
0	14784	2527.121180685849	1
0	14786	2527.19861994924	2
0	14787	2527.437703844216	1
0	14795	2527.726664697402	0
0	14813	2531.275751830715	1
0	14815	2531.752118708654	2
0	14818	2531.917749193597	1
0	14826	2533.891973338908	0
0	14832	2535.111322285158	1
0	14835	2536.042974203674	0
0	14839	2537.96297951326	1
0	14843	2539.05455164491	2
0	14847	2539.322944790626	1
0	14853	2541.154362426721	0
0	14893	2544.749861625532	1
0	14894	2545.299326478355	0
0	14909	2546.973763999188	1
0	14911	2546.989747837671	2
0	14912	2547.11498611343	1
0	14917	2547.169125101315	0
0	14934	2552.333048505015	1
0	14937	2553.837188150503	0
0	14949	2555.2913376749	1
0	14950	2555.463186064685	0
0	14956	2556.045372088235	1
0	14957	2556.400586627238	0
0	14961	2557.173969225658	1
0	14963	2557.441005471583	2
0	14967	2557.9154183519	3
0	14968	2558.917928028226	2
0	14973	2559.562076021363	1
0	14977	2559.622467685897	2
0	14979	2559.823942089525	3
0	14989	2562.241560084658	2
0	14997	2563.368569442589	3
0	14999	2564.189279951816	4
0	15000	2565.287980354919	3
0	15006	2565.570403124293	4
0	15008	2565.816875663134	5
0	15009	2565.824301723337	4
0	15014	2565.949903690229	3
0	15019	2567.463957096427	2
0	15024	2568.752808750402	1
0	15033	2570.945068310045	0
0	15039	2572.004151833473	1
0	15041	2572.167425664411	2
0	15043	2572.283171898235	3
0	15044	2573.461507751836	2
0	15048	2573.474807533994	3
0	15050	2573.824664005835	4
0	15052	2573.952180181055	5
0	15055	2577.000868243251	4
0	15059	2577.701862268129	5
0	15061	2578.694276261704	6
0	15067	2581.039487221711	7
0	15068	2581.344314303833	6
0	15074	2582.306534791893	5
0	15080	2582.335498697997	6
0	15081	2582.609908465735	5
0	15087	2584.290696848624	6
0	15090	2587.43309931366	5
0	15095	2588.704555957759	4
0	15100	2589.306089407011	3
0	15106	2590.208290314569	2
0	15112	2592.064711570768	1
0	15119	2592.476051504528	0
0	15136	2594.108371329448	1
0	15137	2594.139737294025	0
0	15145	2595.17025040836	1
0	15148	2595.898269534354	0
0	15165	2597.408132704441	1
0	15170	2598.832646336115	2
0	15172	2598.861959708819	3
0	15174	2600.493805190138	4
0	15176	2601.169681715334	3
0	15181	2601.404176008982	2
0	15187	2601.624869140224	3
0	15189	2601.885863920534	2
0	15198	2602.230924688646	3
0	15200	2602.443267227805	2
0	15206	2602.448080466489	3
0	15209	2604.968963019063	2
0	15214	2605.146013223743	1
0	15219	2606.13089113793	0
0	15227	2607.668184605405	1
0	15229	2607.824778184231	2
0	15231	2607.97327902622	3
0	15232	2608.006224317392	2
0	15238	2608.265570916856	3
0	15240	2609.05413271877	2
0	15246	2609.143867766082	3
0	15248	2609.666126723341	4
0	15251	2610.014667643404	3
0	15258	2610.33016383638	4
0	15259	2611.929638432894	3
0	15265	2612.187212244661	2
0	15270	2612.370942843445	1
0	15275	2613.210369178626	0
0	15279	2615.182649814949	1
0	15281	2616.778566225056	2
0	15284	2617.165067639074	1
0	15288	2617.732442028932	2
0	15293	2618.322858173043	1
0	15298	2618.856878925805	0
0	15314	2622.156127966208	1
0	15319	2623.553484219008	2
0	15321	2623.881609941835	3
0	15322	2625.619221352521	2
0	15328	2625.735241008713	3
0	15331	2626.175172826585	2
0	15335	2626.788184186833	3
0	15341	2629.026997974016	4
0	15345	2630.84550155562	3
0	15351	2630.868726343446	4
0	15352	2630.891924670621	3
0	15358	2631.507596396925	4
0	15360	2631.866302357285	5
0	15364	2633.328662078283	4
0	15371	2634.69985681931	3
0	15380	2636.591222786708	2
0	15386	2639.169138293436	3
0	15392	2639.614681904949	2
0	15397	2640.053952541742	1
0	15403	2644.070573787886	2
0	15405	2644.213066084915	3
0	15406	2645.315986854756	2
0	15410	2646.037241098865	3
0	15413	2647.06102192269	2
0	15418	2648.500470668534	1
0	15428	2649.790859647134	2
0	15429	2650.292317240685	1
0	15439	2651.711382896149	0
0	15448	2652.599161825399	1
0	15449	2652.881142046608	0
0	15455	2653.238485200506	1
0	15456	2653.276832128399	0
0	15468	2654.463435839677	1
0	15470	2655.158317804356	2
0	15473	2656.42306032832	1
0	15479	2656.612735654424	2
0	15480	2656.779406432319	1
0	15484	2657.878342775407	2
0	15487	2660.111925461839	1
0	15493	2660.596450308401	2
0	15495	2660.937520434423	3
0	15503	2662.89308176036	4
0	15505	2662.938612648467	5
0	15507	2663.488122819341	6
0	15509	2664.016827800194	7
0	15510	2665.496825105463	6
0	15516	2665.729808298589	7
0	15517	2666.241627775579	6
0	15522	2666.503217324342	5
0	15526	2666.608145509838	6
0	15530	2667.126804043102	7
0	15531	2668.746046219264	6
0	15537	2669.055229627067	7
0	15539	2669.132277749087	8
0	15542	2670.892906616063	9
0	15545	2671.288701420002	8
0	15552	2671.885528876447	7
0	15557	2672.788535040122	6
0	15564	2674.123684391912	5
0	15569	2676.798278900257	4
0	15575	2677.087773859814	5
0	15576	2677.152462498336	4
0	15584	2678.644012415428	3
0	15589	2679.664957437781	2
0	15595	2681.113686169402	1
0	15600	2681.419340711325	0
0	15617	2683.269351430512	1
0	15619	2683.717560999268	2
0	15623	2684.14495772051	1
0	15629	2687.560620773456	2
0	15630	2687.68474025649	1
0	15634	2688.762204946995	2
0	15637	2689.471732395472	1
0	15642	2689.585399179001	0
0	15648	2691.913717899822	1
0	15652	2692.029889215705	2
0	15655	2692.765548720483	3
0	15657	2693.028184465062	2
0	15662	2693.643225252434	1
0	15669	2694.722677465716	0
0	15675	2696.215055221776	1
0	15676	2696.853076665942	0
0	15685	2699.356130552585	1
0	15686	2699.748453619037	0
0	15709	2701.78228557146	1
0	15713	2702.141600098958	0
0	15719	2702.14922561923	1
0	15724	2703.782880899776	0
0	15733	2704.30822196771	1
0	15735	2704.921633172117	2
0	15738	2705.625355105201	1
0	15743	2706.086905000409	0
0	15749	2707.075037171925	1
0	15751	2707.182263882779	2
0	15752	2707.314762172333	1
0	15757	2707.416017294751	0
0	15763	2708.779458668612	1
0	15767	2710.459992901319	0
0	15792	2713.178056280018	1
0	15795	2714.255982502755	0
0	15819	2717.782145360499	1
0	15821	2717.915977256174	0
0	15834	2720.646911934197	1
0	15835	2721.664853921218	0
0	15841	2721.75464307875	1
0	15844	2722.37442176494	0
0	15856	2724.844399364701	1
0	15861	2725.599677921522	0
0	15890	2731.345277931855	1
0	15899	2734.485467542317	0
0	15910	2737.755482089031	1
0	15911	2737.87177793116	0
0	15917	2738.520513418469	1
0	15918	2738.617965576439	0
0	15924	2738.665958978835	1
0	15925	2738.98006376994	0
0	15931	2739.077676251851	1
0	15933	2739.091994912326	2
0	15939	2742.170207210165	1
0	15945	2743.11809666902	2
0	15946	2743.502847132859	1
0	15952	2743.57333535462	2
0	15955	2743.862966865258	1
0	15959	2745.315029784375	2
0	15964	2746.152835193523	1
0	15968	2748.477380250336	2
0	15970	2749.147116924598	3
0	15974	2750.979859188258	2
0	15982	2752.812993131668	1
0	15988	2753.786212151677	0
0	15995	2756.299904838366	1
0	15997	2757.788720453226	2
0	15998	2758.37915322645	1
0	16003	2758.393052770234	0
0	16020	2760.327522508022	1
0	16021	2760.357146352586	0
0	16039	2761.572329491615	1
0	16040	2761.655118884545	0
0	16062	2764.670497030543	1
0	16064	2764.763833751701	2
0	16065	2764.964351515402	1
0	16072	2765.656652689302	0
0	16114	2771.698546233508	1
0	16116	2772.618394774026	2
0	16118	2773.329787304235	3
0	16120	2773.612560553524	4
0	16122	2774.25629936327	5
0	16126	2774.941202879256	4
0	16131	2775.502100558883	3
0	16137	2775.650366114851	2
0	16143	2775.873347946045	1
0	16148	2776.992456432248	0
0	16173	2779.379503246698	1
0	16176	2780.093654368316	0
0	16185	2781.197447189443	1
0	16191	2782.983675044687	2
0	16193	2783.854571661221	3
0	16197	2784.64553192513	4
0	16198	2785.311860696334	3
0	16202	2785.448783947415	4
0	16205	2785.838601345375	3
0	16209	2786.093108611841	4
0	16211	2786.713613581197	5
0	16221	2792.015185823485	6
0	16223	2792.078528557809	7
0	16224	2792.260155450684	6
0	16229	2792.586319502155	5
0	16234	2793.284423125963	4
0	16239	2793.507872028314	3
0	16245	2793.745957606043	4
0	16246	2794.320744793596	3
0	16251	2794.687360102385	2
0	16255	2795.073571393705	3
0	16262	2796.765785616848	2
0	16267	2797.444935834326	1
0	16272	2797.547716718748	0
0	16289	2799.572695095666	1
0	16292	2800.85445344637	2
0	16296	2803.528456890972	3
0	16297	2803.625638042022	2
0	16302	2805.580612309629	1
0	16309	2806.273280739764	0
0	16315	2806.387825788474	1
0	16317	2806.668751899464	2
0	16318	2806.800806937519	1
0	16323	2807.108416731379	0
0	16327	2807.177787771362	1
0	16333	2808.126539624328	2
0	16336	2808.607694220595	1
0	16342	2808.706658926831	2
0	16345	2810.452536191717	1
0	16354	2812.047123928378	0
0	16380	2813.766405701842	1
0	16383	2814.093852704222	0
0	16394	2816.601096595512	1
0	16395	2816.615058819781	0
0	16406	2817.765357625202	1
0	16408	2817.962049959418	0
0	16426	2820.117202108128	1
0	16430	2821.177029163032	0
0	16442	2822.465113182968	1
0	16445	2823.367940914955	2
0	16447	2824.396515711699	1
0	16453	2825.262657486721	0
0	16486	2830.443485050059	1
0	16487	2830.477105244332	0
0	16505	2835.24699376683	1
0	16506	2835.416508820314	0
0	16522	2837.879635358607	1
0	16524	2839.210135966986	2
0	16528	2840.776743914873	3
0	16534	2843.547994218221	2
0	16540	2844.310638676897	1
0	16545	2844.782119969625	0
0	16551	2845.011753883972	1
0	16552	2845.021804622691	0
0	16589	2847.551475760422	1
0	16591	2847.967225852055	2
0	16592	2848.454341145512	1
0	16598	2848.841565617515	2
0	16599	2848.931732241595	1
0	16606	2849.06260083809	0
0	16621	2850.848779570495	1
0	16622	2851.294047073433	0
0	16656	2856.637608020469	1
0	16658	2856.739452762248	2
0	16660	2857.113119890366	3
0	16667	2859.883800172455	4
0	16670	2860.037260670172	5
0	16671	2860.088206347147	4
0	16683	2862.583864926865	3
0	16689	2863.042640092539	4
0	16690	2863.218008278303	3
0	16699	2864.4611006189	2
0	16705	2864.787761851883	3
0	16709	2865.165346428905	4
0	16710	2866.42369483416	3
0	16720	2868.219954489243	4
0	16721	2869.099886524316	3
0	16726	2869.208620016119	2
0	16731	2869.622768221817	1
0	16738	2870.006190649333	0
0	16742	2870.015550504796	1
0	16747	2872.078550501566	0
0	16775	2875.632180322538	1
0	16777	2876.890652483275	2
0	16779	2877.148239814851	3
0	16780	2877.334137479911	2
0	16786	2877.735067653444	1
0	16794	2879.940338417196	0
0	16813	2881.647668191571	1
0	16817	2882.531871931537	2
0	16819	2883.651103779005	3
0	16820	2883.704984175473	2
0	16826	2883.763795839183	3
0	16827	2884.424841982972	2
0	16832	2885.023364247564	1
0	16837	2885.053380034232	0
0	16844	2885.344868725054	1
0	16845	2885.557810905435	0
0	16863	2886.964422269226	1
0	16865	2887.108634508106	2
0	16868	2887.414620316808	3
0	16869	2887.495948586445	2
0	16874	2887.851197832672	1
0	16879	2887.999756300221	0
0	16895	2889.628853754323	1
0	16899	2890.13575832717	2
0	16900	2890.898939804638	1
0	16904	2891.559065150536	2
0	16907	2894.485402547776	1
0	16911	2895.125252864801	2
0	16915	2896.826893339507	3
0	16916	2897.259875810931	2
0	16922	2898.703433829444	1
0	16928	2899.824135855977	0
0	16947	2901.624552843087	1
0	16950	2902.992849432364	0
0	16958	2904.547746359072	1
0	16967	2908.552803281648	2
0	16969	2908.79736589097	3
0	16974	2910.483550989237	2
0	16979	2910.636992929668	1
0	16984	2912.148352294921	0
0	16992	2915.07989357409	1
0	16993	2915.166128608561	0
0	17001	2917.622168483224	1
0	17002	2917.818020649694	0
0	17008	2919.823915266788	1
0	17013	2920.75299209073	2
0	17016	2922.211548432807	3
0	17021	2922.802507750777	2
0	17027	2924.063923012721	1
0	17033	2924.463654560903	2
0	17034	2924.618731535015	1
0	17038	2924.89025464294	2
0	17042	2926.321954455178	3
0	17043	2926.431434821517	2
0	17047	2926.798375240208	3
0	17049	2926.947755907566	4
0	17052	2927.77316568376	3
0	17058	2928.520941292989	4
0	17061	2930.125217383007	3
0	17068	2930.588467959784	2
0	17074	2932.648136325056	3
0	17077	2932.819775773847	4
0	17078	2933.400569165207	3
0	17086	2934.520635579339	2
0	17091	2934.634133727847	1
0	17098	2935.460402515165	0
0	17128	2937.086450767942	1
0	17132	2938.332187165564	0
0	17143	2938.489051226127	1
0	17144	2938.575750645392	0
0	17148	2939.490824989399	1
0	17159	2941.6867236376	0
0	17190	2943.291882423699	1
0	17191	2944.466277992336	0
0	17198	2945.309828396908	1
0	17199	2945.388305662473	0
0	17231	2949.9403344103	1
0	17233	2950.020011935415	2
0	17234	2950.521993065809	1
0	17240	2951.315910024305	0
0	17246	2951.343877565795	1
0	17248	2952.251612509278	0
0	17269	2954.394944088078	1
0	17270	2954.400363049923	0
0	17284	2956.928124245828	1
0	17285	2957.406515342268	0
0	17293	2957.726177960201	1
0	17294	2957.922236458332	0
0	17307	2958.466533449118	1
0	17311	2959.114321370042	0
0	17317	2959.428461312566	1
0	17319	2960.058303546923	0
0	17326	2961.492351945642	1
0	17329	2961.711582340158	0
0	17337	2962.946732059896	1
0	17341	2963.619532857671	2
0	17343	2965.500186747386	3
0	17344	2966.110967175517	2
0	17349	2966.547271493503	1
0	17356	2966.765324570414	0
0	17377	2969.193814356908	1
0	17379	2969.518198493547	2
0	17381	2970.613921645308	1
0	17388	2972.402120146149	0
0	17394	2973.678636950079	1
0	17396	2973.998370294837	0
0	17409	2974.533139795454	1
0	17410	2974.930748970685	0
0	17445	2978.952362176867	1
0	17448	2980.142683497738	0
0	17452	2980.894455493095	1
0	17454	2980.900082590503	2
0	17458	2981.85789969697	3
0	17460	2981.873309291946	4
0	17463	2983.132421036791	3
0	17470	2984.953857554972	2
0	17475	2985.224460455799	1
0	17480	2985.931955795538	0
0	17495	2987.760707594172	1
0	17500	2988.873284635271	0
0	17507	2989.763894759753	1
0	17509	2991.205305468806	0
0	17515	2991.27627738572	1
0	17516	2991.484560179039	0
0	17536	2993.661373766408	1
0	17538	2993.866064081643	2
0	17540	2996.288167500007	3
0	17543	2996.786026406762	2
0	17547	2996.887268836909	3
0	17549	2996.951619389192	4
0	17551	3000.34669438505	5
0	17556	3001.620507595983	4
0	17563	3004.213753644261	3
0	17569	3004.293487160646	4
0	17571	3004.440581847027	5
0	17574	3006.928594548778	6
0	17575	3007.134837898679	5
0	17580	3007.240883319194	4
0	17585	3007.484039099367	3
0	17593	3010.472860929082	4
0	17596	3011.3430729835	5
0	17601	3012.857258263225	4
0	17607	3014.889883853091	5
0	17608	3015.283924452554	4
0	17613	3015.721703928074	3
0	17618	3016.617801473918	2
0	17624	3017.889599951306	3
0	17625	3018.221960796616	2
0	17630	3018.98278166634	1
0	17635	3019.797887865502	0
0	17666	3025.177446920312	1
0	17669	3026.144484780778	2
0	17670	3026.174506102704	1
0	17675	3026.488470808377	0
0	17757	3045.554144920592	1
0	17758	3045.710672575711	0
0	17764	3046.039596227583	1
0	17766	3046.390081800179	0
0	17787	3047.363481971144	1
0	17789	3047.432868852873	2
0	17793	3048.674357121265	1
0	17800	3048.87463397747	0
0	17812	3049.282636685669	1
0	17814	3049.580120632167	2
0	17817	3049.894845713307	3
0	17818	3050.470958279758	2
0	17825	3051.876186330917	3
0	17826	3052.439431846943	2
0	17831	3052.473886715955	1
0	17836	3054.427036079644	0
0	17840	3056.014620852619	1
0	17843	3056.979501320218	0
0	17847	3057.40181870289	1
0	17851	3058.012880649503	0
0	17855	3058.19577814654	1
0	17857	3060.711464820793	2
0	17859	3060.738910007316	3
0	17865	3063.019969798621	4
0	17867	3063.160946124893	5
0	17870	3063.810559435629	4
0	17874	3064.323283129737	5
0	17878	3066.05233185094	4
0	17884	3066.657841222288	5
0	17885	3067.063987083963	4
0	17891	3067.706666653383	5
0	17892	3067.938304823121	4
0	17898	3068.45056220231	5
0	17900	3069.437740458451	6
0	17902	3069.526967361419	7
0	17906	3069.648583829656	8
0	17908	3069.916028429742	9
0	17909	3070.336762457781	8
0	17914	3071.530494087217	7
0	17920	3072.309982088896	8
0	17921	3072.81034926303	7
0	17927	3073.552887866067	8
0	17928	3075.449608597965	7
0	17933	3077.502919187137	6
0	17937	3077.684172490413	7
0	17941	3078.598404827743	8
0	17942	3078.801095351099	7
0	17951	3079.765701700358	6
0	17956	3080.090615501074	5
0	17960	3080.334955909954	6
0	17964	3080.438260823585	7
0	17967	3080.76593746569	6
0	17972	3081.92994906417	5
0	17978	3083.267032803239	6
0	17979	3083.396102162189	5
0	17983	3084.047845839211	6
0	17987	3084.78490429015	7
0	17990	3085.064279961941	6
0	17994	3085.207672384949	7
0	17996	3085.782113912536	8
0	17999	3087.414831513448	7
0	18007	3088.203037697244	8
0	18008	3088.820301721926	7
0	18013	3088.95876992855	6
0	18017	3089.190599264324	7
0	18020	3089.623960577463	6
0	18028	3093.093300561388	7
0	18029	3093.381852023669	6
0	18035	3095.295754187056	5
0	18040	3096.079517478292	4
0	18046	3096.209501784429	5
0	18048	3096.925670854027	6
0	18050	3098.580610979891	5
0	18057	3101.08159534164	4
0	18061	3101.413459607541	5
0	18063	3101.825468060437	6
0	18069	3103.370115219039	7
0	18072	3103.689956798699	6
0	18078	3103.746198586239	7
0	18079	3103.88834783007	6
0	18084	3103.960948918973	5
0	18090	3104.11724620574	6
0	18091	3104.362335502689	5
0	18098	3106.522730377356	4
0	18102	3108.120174062937	5
0	18106	3108.418773071336	6
0	18107	3108.746852343158	5
0	18117	3109.884128248338	6
0	18120	3110.178196017522	5
0	18124	3111.098535374416	6
0	18128	3112.557862243413	7
0	18131	3113.531741381946	6
0	18136	3115.287378462679	5
0	18145	3117.860985311285	4
0	18151	3119.304283368511	3
0	18157	3119.652948115607	4
0	18159	3119.845329262346	3
0	18164	3120.152073557668	2
0	18169	3120.645113897415	1
0	18175	3121.944877303003	2
0	18176	3123.028711038393	1
0	18180	3123.512710986144	2
0	18183	3124.487791892502	1
0	18189	3125.467009879461	2
0	18191	3126.660467407724	3
0	18192	3127.156665601495	2
0	18197	3128.670343422982	1
0	18201	3129.343701552673	2
0	18203	3129.931869663721	3
0	18205	3130.59203806338	4
0	18207	3130.912664311748	5
0	18210	3131.605104152297	4
0	18216	3133.028405064445	3
0	18221	3133.723676630737	2
0	18227	3135.384234568536	3
0	18229	3135.539501259245	4
0	18232	3137.11427209259	3
0	18240	3137.711350023363	4
0	18242	3139.458540095568	5
0	18245	3140.083621048397	4
0	18251	3140.661352940508	5
0	18254	3142.490488154239	4
0	18259	3143.364011729967	3
0	18263	3145.016149126817	4
0	18266	3147.144434439941	3
0	18270	3147.166736797806	4
0	18272	3147.668023877543	5
0	18274	3149.676011212622	6
0	18276	3150.002333484477	7
0	18279	3150.782665250098	6
0	18284	3151.192336789205	5
0	18292	3152.462466862934	6
0	18293	3152.637716631625	5
0	18298	3153.703066282605	4
0	18303	3154.210957484687	3
0	18308	3157.882031690667	2
0	18314	3158.496493527031	1
0	18320	3158.730722209544	2
0	18322	3158.732610399233	3
0	18324	3158.865568899413	4
0	18325	3159.18606369396	3
0	18329	3161.774477791349	4
0	18333	3163.411423692476	5
0	18335	3163.672869732932	6
0	18337	3163.840246105752	7
0	18338	3164.310983597228	6
0	18346	3165.237997252691	7
0	18348	3165.419881537619	8
0	18349	3166.033775739848	7
0	18357	3166.722307095025	8
0	18359	3167.291000899627	7
0	18364	3168.485101591137	6
0	18368	3169.150973754238	7
0	18370	3169.283036831035	8
0	18374	3170.938729073695	9
0	18378	3171.170326336597	10
0	18379	3171.488474564235	9
0	18387	3174.14382982161	10
0	18388	3174.8731359793	9
0	18394	3174.890608125736	10
0	18396	3175.067103382637	11
0	18398	3175.641932901878	12
0	18400	3176.328473060748	13
0	18401	3177.171146708053	12
0	18407	3177.322003693046	13
0	18408	3179.642283656102	12
0	18414	3181.638240014545	13
0	18420	3183.013850265071	14
0	18422	3183.553166143934	15
0	18423	3183.736325806289	14
0	18428	3184.233606292437	13
0	18432	3185.595802689398	14
0	18437	3187.542993053666	13
0	18441	3187.740254771741	14
0	18443	3187.844573864924	15
0	18446	3190.036118849514	14
0	18450	3190.150878035195	15
0	18454	3192.068187571842	16
0	18456	3192.422560884938	17
0	18459	3192.895207263067	16
0	18464	3194.882445739628	15
0	18471	3195.716774769681	14
0	18476	3196.993370499671	13
0	18483	3197.916776480809	14
0	18485	3198.814379503693	13
0	18491	3198.972255975125	14
0	18492	3199.43643218628	13
0	18498	3200.354544833326	12
0	18503	3200.855056646201	11
0	18508	3200.953179211061	10
0	18512	3202.62900899936	11
0	18514	3203.651373585264	12
0	18521	3207.396423077167	11
0	18527	3208.072542163779	12
0	18529	3208.8854673013	13
0	18530	3209.178919744566	12
0	18537	3210.725616651588	11
0	18543	3211.92747338837	10
0	18548	3212.876258797495	9
0	18554	3213.384091331326	10
0	18557	3213.996977141216	9
0	18563	3214.328872724249	10
0	18565	3214.754933652448	11
0	18567	3214.777144702218	12
0	18570	3215.224905379041	13
0	18572	3217.160502395087	14
0	18573	3217.798985887593	13
0	18578	3217.976056426322	12
0	18585	3218.84913092456	13
0	18587	3219.159446717065	12
0	18593	3219.3013675542	13
0	18594	3219.554258257246	12
0	18600	3220.178771253027	13
0	18601	3220.941274740565	12
0	18606	3221.669835387105	11
0	18612	3222.730738781087	10
0	18618	3222.74569334849	11
0	18620	3223.241225825998	10
0	18626	3224.041319787289	11
0	18628	3224.265098418321	12
0	18630	3224.555031456502	13
[...]
5	162888	28259.799100398432	57.772919904319
5	162900	28261.571104940867	49.174585230383
5	162947	28266.776978558501	53.514767160611
5	162960	28270.063662234272	54.297444449546
5	163007	28278.505194929277	57.963179608602
5	163016	28279.519434066948	58.697529005438
5	163026	28280.024769664575	57.226136467445
5	163035	28281.506229270859	55.064567003485
5	163048	28283.042297989181	53.739585956652
5	163057	28286.166270983683	53.388717017921
5	163068	28289.890734964373	56.504493266642
5	163197	28320.41311113829	78.870478040865
5	163225	28323.851768474005	79.688209727464
5	163292	28331.956194051807	87.507610860161
5	163298	28332.775320763738	82.030677888733
5	163303	28332.8314255066	78.679215386953
5	163312	28334.663043900079	79.646625994387
5	163319	28335.261459965788	75.243968778521
5	163335	28337.595572723424	74.929373126699
5	163345	28338.52459298628	74.378924077593
5	163356	28340.427769472834	69.65735521207
5	163398	28343.938850163624	72.731920725166
5	163412	28347.496458440488	72.993033695214
5	163431	28351.059582731593	72.267148876811
5	163481	28360.345495636561	78.518628601964
5	163494	28367.805100331072	82.898959947277
5	163603	28388.262257471546	102.62533258937
5	163612	28388.796577527501	81.438321843679
5	163633	28391.258416304672	81.694133384398
5	163652	28393.821630889183	84.050723076233
5	163657	28393.881336634707	79.776614224255
5	163662	28394.172024887512	73.871844605088
5	163669	28396.600169338406	75.275546083005
5	163679	28396.843784500863	72.536303066774
5	163686	28398.899490881628	71.750996658906
5	163699	28401.472561280627	71.996990473508
5	163710	28402.617128927763	68.044292301206
5	163718	28404.616733882781	68.474441195258
5	163726	28407.368842429923	70.03198746577
5	163739	28409.055878761741	68.238047595947
5	163750	28412.930044659297	71.615637634513
5	163777	28416.858970662766	74.382847361616
5	163783	28420.111603085401	76.731132343545
5	163791	28420.705873220376	74.14262383695
5	163796	28423.421601823915	70.267194512503
5	163805	28428.08816008337	71.048342039486
5	163824	28431.321788663819	73.162442070606
5	163834	28431.974354574987	73.387818654574
5	163841	28433.509563877665	74.59232665907
5	163852	28434.407537154155	68.201667281608
5	163871	28437.883730556132	70.978364198025
5	163882	28439.821715051507	67.381952456278
5	163895	28440.97280546355	65.186267672438
5	163916	28444.158567126579	55.802945924876
5	163923	28444.953412916227	41.01218237342
5	163939	28447.239408854975	39.166753025122
5	163953	28448.907354170046	37.548645220669
5	163966	28450.519030927987	37.367533113009
5	164030	28459.658796025567	43.266827591871
5	164043	28462.16439418277	41.777836443571
5	164053	28463.041162711786	35.098242181549
5	164058	28463.595394836238	32.556008299432
5	164065	28465.133919245587	32.474122341637
5	164082	28470.779307328902	37.047732960717
5	164185	28483.771060735742	47.38027814301
5	164190	28484.393468296691	45.622789645836
5	164197	28484.54209753873	44.75480631964
5	164207	28485.737591415619	42.181159767189
5	164224	28488.466038732999	43.010165529995
5	164252	28492.704523559638	44.469573737218
5	164270	28494.996658783069	41.968191697168
5	164281	28497.007637180315	36.16852937096
5	164298	28498.967372999955	35.049893814852
5	164307	28500.501174389102	34.736230427894
5	164317	28502.018624313099	22.212820090867
5	164326	28502.89259289562	18.382594668183
5	164339	28504.717570540437	19.707675895754
5	164344	28504.938901479221	17.83825947422
5	164350	28505.636792934677	17.54574312543
5	164356	28507.893196096011	18.564655672998
5	164363	28508.575980079984	19.122652179813
5	164374	28511.297559286776	21.306363894104
5	164379	28512.338373269848	21.27239662456
5	164384	28513.220543344366	17.032046417715
5	164393	28516.520396630583	16.181565238773
5	164409	28521.831030121406	20.346397367715
5	164467	28527.404469467664	13.798445286683
5	164485	28529.239887875631	10.064679568704
5	164498	28530.72249258648	9.26504045739
5	164509	28532.517395560264	9.659170761763
5	164516	28534.733868682064	10.443391608604
5	164528	28535.856380104937	9.900920217389
5	164532	28536.137061207493	10.08170301672
5	164564	28541.591122200062	1.908777083158
5	164581	28544.083367603798	1.432547225927
5	164588	28544.947699824925	0.335273432162
5	164613	28549.700341875606	0.204424589903
5	164625	28552.298529296351	0.455538143764
5	164659	28558.077370710147	4.066851210902
5	164684	28561.615992290435	4.65605555364
5	164691	28561.712086752945	4.638109027624
5	164696	28562.347896802959	0.714919897669
5	164713	28566.554961929146	2.437592606969
5	164769	28572.699999777655	8.303708841042
5	164783	28574.868119152175	2.513922451441
5	164787	28575.082403897314	0.522997267098
5	164798	28577.566502822634	1.005076816473
5	164812	28578.78736731594	0.221261181465
5	164838	28584.271876946296	3.567103308962
5	164869	28589.865469116126	1.207986121345
5	164920	28596.064636815069	6.893727315026
5	164925	28596.424845570811	2.591176256649
5	164960	28600.510364280149	2.61157219666
5	164969	28602.979934957271	5.041626304246
5	164975	28603.173699723776	3.702066566131
5	164982	28605.018496084467	2.266713690055
5	164996	28605.944044428647	0.175550546302
5	165008	28607.780284321688	0.830488269916
5	165029	28611.478565379555	0.229221614108
5	165054	28613.603010424793	1.901704620479
5	165122	28623.347431778788	5.220506559937
5	165136	28626.456305458042	1.75759869898
5	165155	28629.82660704614	0.964580558544
5	165173	28632.427642400114	1.35599158188
5	165183	28633.019108537492	0.695399943483
5	165205	28642.42456774348	3.608042735563
5	165214	28643.227296928907	1.728691468428
5	165246	28647.68188557031	0.887438556864
5	165367	28671.415465265675	8.898632293593
5	165381	28674.251647745026	10.646602512647
5	165403	28676.899738353483	11.369817586521
5	165410	28677.473282467995	9.518841726132
5	165422	28679.053886223743	10.859755539099
5	165520	28697.288694398134	1.777498913393
5	165562	28699.934420085538	0.709418496862
5	165594	28704.853497068501	0.589410503747
5	165647	28716.830640627816	5.372492803743
5	165681	28729.570002506214	0.144532025994
5	165698	28732.283733910201	1.597018271997
5	165727	28737.516554081025	0.410846280644
5	165739	28740.636336211065	0.922152492476
5	165752	28742.907245737337	2.966868321999
5	165793	28749.704281469857	7.867466059245
5	165806	28752.216278746939	9.521578492947
5	165814	28752.783059634795	7.084948566426
5	165829	28754.763791183523	8.743123798897
5	165873	28763.099373172084	15.845827610975
5	165902	28767.553613968671	15.625679774328
5	165911	28769.407933102438	16.045589456391
5	165916	28769.487157080181	7.686298084804
5	165921	28770.762716774965	5.526034441062
5	165928	28771.046112036711	4.14929023778
5	165943	28774.283930900488	6.035815159067
5	165947	28774.609147315233	0.385803989938
5	165956	28775.382072745961	0.168115611322
5	165981	28779.875622509111	0.041538102056
5	165997	28781.637617821042	1.708591187371
5	166064	28791.201376512627	9.794009890304
5	166068	28791.48621945315	5.581380898673
5	166081	28796.879075392505	1.735578951991
5	166090	28799.277537136795	1.3669952171
5	166125	28804.606521472123	1.276024814446
5	166133	28807.321260769426	0.164681109093
5	166213	28828.726167215091	9.735940442981
5	166256	28843.828746302958	0.975904474838
5	166286	28848.603649751093	0.163275383618
5	166293	28849.065813718693	0.109787051763
5	166312	28853.175962612175	2.166937800382
5	166352	28859.353346835825	1.424246192851
5	166375	28866.904543660663	6.528163471795
5	166381	28867.706893974185	2.580541004412
5	166388	28868.409986204254	1.798162465949
5	166443	28876.439470353709	3.68184840028
5	166495	28889.373341913693	16.399527717278
5	166504	28890.202437550732	16.643142079944
5	166524	28892.703308108244	18.959001088034
5	166531	28892.996338403685	19.248534673637
5	166572	28897.980456212238	23.207081187712
5	166577	28898.168719988532	16.81167548003
5	166584	28898.476363113136	8.288557003918
5	166596	28899.47924883556	5.785092215149
5	166600	28899.92305118591	0.87313845999
5	166616	28902.610977712558	0.462189345321
5	166645	28909.343542868721	1.6682970983
5	166669	28912.841372865424	2.129586759745
5	166690	28914.406250909805	3.520347125563
5	166695	28914.480466369166	1.803368947893
5	166699	28914.886048364739	2.092195131388
5	166726	28920.058800473602	0.795724283986
5	166806	28934.052341721722	3.315881043398
5	166817	28934.749395387748	2.18907971386
5	166822	28935.135154205263	1.111062464804
5	166827	28935.155181641885	1.062777008855
5	166832	28935.210234203207	0.580658243654
5	166836	28935.740510593942	1.043659313366
5	166852	28940.475722488618	3.959830669705
5	166864	28944.635748718385	2.228171676127
5	166879	28945.605168048239	3.065677818118
5	166890	28946.780423840181	1.64279755354
5	166913	28953.855138071433	0.842114400344
5	166922	28957.185037722061	0.011058051634
5	166966	28966.07164067082	0.673783434866
5	166994	28970.574698162687	2.025158531353
5	167001	28971.13145240551	1.403151941713
5	167010	28971.762132136652	0.756446276225
5	167088	28984.761565529488	9.121693646135
5	167092	28985.348339387001	1.995963335938
5	167115	28988.864845598778	0.303205630069
5	167216	29003.121750156344	11.07811236967
5	167239	29005.813455709979	10.539859042421
5	167244	29005.898606121659	6.894285088805
5	167251	29006.992041710183	4.802454068764
5	167356	29029.714798928871	13.04403314567
5	167416	29044.774931974129	27.052721174416
5	167448	29047.305825587053	25.528004513048
5	167468	29050.341237265375	27.633287657351
5	167486	29055.542892220497	27.999654267699
5	167495	29057.396880138961	26.980453366391
5	167515	29060.247823483829	26.48881232009
5	167575	29070.837801654775	36.552274719848
5	167585	29071.114166525564	29.10106902534
5	167590	29071.239897590772	25.413157839476
5	167597	29071.552830183012	18.275269380333
5	167607	29071.773575862571	18.460649016344
5	167615	29073.041901209863	17.890059969238
5	167628	29074.293361483905	17.356749346289
5	167636	29075.539773872185	16.749331423213
5	167653	29077.672013428794	13.414612554414
5	167664	29079.304690645473	14.433498536135
5	167672	29081.533235790665	15.389780690621
5	167677	29082.107726093671	12.360738725188
5	167681	29084.177380719999	10.074331456316
5	167727	29088.201689751563	0.591693026578
5	167758	29090.660177732692	2.648503617395
5	167772	29091.745332780063	2.783808058597
5	167783	29092.721845432541	1.375716655146
5	167816	29099.919904533292	0.903193252622
5	167823	29102.293554659712	2.663917519936
5	167827	29102.622630684809	0.995581809217
5	167834	29103.286640035364	0.161181202012
5	167858	29106.625125140959	2.38570598243
5	167873	29110.335732811408	0.779847643546
5	167877	29110.458297390685	0.525255301997
5	167916	29118.626445388274	4.935302409246
5	167922	29120.343678125481	5.611359983615
5	167930	29121.000904348256	4.14448714006
5	167946	29121.987011973383	4.525472675181
5	167962	29123.935247025543	0.14193913566
5	167988	29131.445032157015	0.544985513806
5	167999	29136.542479291713	2.265658541562
5	168024	29141.578018283366	0.472117788853
5	168054	29147.324659869436	2.005085535071
5	168058	29147.363599792793	1.344829684742
5	168094	29154.344591188674	1.574079320812
5	168196	29168.598510064026	14.815789875515
5	168201	29168.897511855429	7.795633515445
5	168205	29169.302166955361	3.932598117285
5	168232	29172.418067159951	0.340388549723
5	168253	29174.451372057041	0.174695450197
5	168261	29175.417700235927	0.123994769385
5	168299	29183.141635053205	0.212184511171
5	168349	29191.250022538023	6.573418113824
5	168354	29191.385261682209	5.870560938078
5	168362	29194.512087015993	0.253871285995
5	168374	29197.757597814494	1.659209446075
5	168435	29208.204178522604	1.604737190829
5	168450	29209.800096890497	1.210194291327
5	168465	29211.963387269828	0.433367497367
5	168523	29223.573754741096	3.9242569714
5	168542	29228.465721695659	7.637987259761
5	168555	29229.988145176432	7.372600371466
5	168564	29232.087155273774	2.437700112765
5	168574	29233.406192561963	2.396143697703
5	168594	29236.944669118707	1.235586792457
5	168632	29243.103029495732	4.794218759343
5	168639	29245.67371748762	0.161333315181
5	168759	29267.624901726843	0.002361033271
5	168795	29272.962737806413	0.419472942322
5	168829	29279.854499869986	4.941059113586
5	168866	29283.005656427116	5.647309583083
5	168873	29283.425416611704	1.858599771095
5	168880	29284.264054692878	2.61696636203
5	168906	29288.386406637263	1.651301370422
5	168953	29297.788939734387	9.253224938256
5	169089	29324.196732187058	32.910559341721
5	169109	29326.344032386375	29.587349012435
5	169142	29330.779818556898	28.863519179074
5	169147	29331.324130288079	28.583915537441
5	169152	29331.417979934423	23.514426548449
5	169161	29332.326130740907	23.800250891574
5	169174	29334.214381451706	20.159281318298
5	169181	29334.81187586056	17.684376341213
5	169186	29334.854882087991	6.872963433808
5	169193	29335.0689974034	5.585615186949
5	169206	29337.013479167455	1.995521236644
5	169257	29341.523610694293	3.658156772127
5	169266	29342.33102834748	4.138358005277
5	169270	29342.370425813711	2.385642255528
5	169295	29346.341434894059	1.960496308826
5	169317	29353.175770604644	0.760780737372
5	169581	29397.09214544841	40.5486159633
5	169586	29397.208430782952	38.72061632457
5	169594	29397.885053531382	39.299281114661
5	169603	29398.982884137617	40.241011019994
5	169619	29405.980631914416	45.10946139034
5	169635	29408.317649563929	43.04519715371
5	169644	29410.483742353875	42.971068239284
5	169654	29411.445396676574	35.748393235225
5	169669	29414.193254818202	31.861539028728
5	169681	29415.312876565028	29.670665685462
5	169686	29415.623431756514	27.777425027306
5	169697	29416.309846066159	26.043802638807
5	169724	29418.285882084742	26.917408313761
5	169737	29419.637633991158	26.358955840168
5	169745	29420.845644423002	26.179314461215
5	169791	29426.548266819557	28.709343861315
5	169802	29427.525035621273	29.089259239003
5	169807	29427.570484848914	28.106949872706
5	169812	29427.583780351248	25.620744198028
5	169817	29427.959839727259	17.60414172839
5	169830	29430.063818225171	17.918237787056
5	169840	29430.965233043517	16.388928175744
5	169845	29431.243138595684	12.882798543904
5	169850	29431.785355464267	10.37300159212
5	169856	29432.207641155039	10.12782335798
5	169864	29433.143380936466	10.975876664717
5	169869	29433.500990736202	9.197460717959
5	169874	29435.182404399805	5.854984708169
5	169884	29438.060438907832	5.467378669139
5	169919	29441.973141837664	2.616400040887
5	169952	29448.217974451016	2.137394433267
5	169990	29455.074869963537	1.145552463875
5	170000	29455.976740992279	1.081388749728
5	170101	29475.702658112179	6.797634943373
5	170168	29486.181262561312	0.883233932068
5	170202	29492.114589331579	1.080110631158
5	170229	29497.569902805663	1.188257333241
5	170241	29500.85773091945	0.404881886811
5	170276	29507.810244040428	5.509129991256
5	170287	29511.508128319154	8.998257315776
5	170308	29513.828819073022	10.840407064008
5	170322	29516.044403487885	8.791353613016
5	170346	29520.651613649498	4.90548598671
5	170371	29528.044145849803	6.910958485249
5	170416	29537.254610654371	8.383984225432
5	170423	29537.839092703012	0.267522466418
5	170495	29552.240961024662	9.122158754271
5	170544	29561.43283717065	17.219513387565
5	170549	29561.767283639078	7.5495049248
5	170554	29563.270601971669	5.422314993576
5	170558	29563.422125397285	2.395909331793
5	170579	29571.909162476391	0.186021404947
5	170593	29574.333777081069	0.309361249847
5	170627	29582.578782225254	0.501081768685
5	170653	29585.314080513349	2.143789800358
5	170672	29587.536988483806	3.989636930608
5	170679	29588.063999979565	2.221593103734
5	170687	29588.630927546799	1.082832515752
5	170700	29590.908572547934	0.113940683149
5	170734	29595.498970365939	2.730850825138
5	170750	29597.646550636293	3.274323851262
5	170770	29600.023396481391	3.503594932603
5	170811	29606.03789104074	0.312914794668
5	170858	29615.026512888507	1.621047655106
5	170869	29616.584509214965	1.832035735905
5	170879	29617.858570200826	1.38933446331
5	170883	29617.919839578769	1.38141393217
5	170944	29626.842879852291	6.131639538357
5	170952	29628.099351528096	6.169511496648
5	170960	29628.577184582463	6.411793836304
5	171011	29636.187175400059	2.187646794311
5	171019	29636.495991079724	0.195807936832
5	171051	29638.943399693787	0.375437816072
5	171058	29641.647462787159	0.256346970595
5	171065	29643.573251076362	0.221110736625
5	171090	29650.846223771425	0.499220869958
5	171109	29656.454621620751	0.964102322932
5	171116	29657.479412016791	0.110071866159
5	171124	29657.921188189332	0.425685842401
5	171134	29660.70409392507	1.741176669028
5	171142	29661.894895568498	1.540609395853
5	171174	29665.839252459814	3.248830989749
5	171196	29666.804215546224	4.18887563932
5	171202	29667.756905467369	2.430987543205
5	171217	29671.948343004219	6.048907442927
5	171237	29673.027572012402	3.83639586009
5	171241	29673.984125514762	2.344833564454
5	171284	29683.24388481241	7.484219169605
5	171309	29685.521273235512	7.804093979845
5	171313	29685.638251444062	0.323157435126
5	171330	29687.559713325052	0.327225293369
5	171362	29696.245651851045	0.901479748415
5	171438	29714.165587375383	8.33944332733
5	171486	29725.7448996363	19.100544847139
5	171495	29727.065577866074	19.275800474745
5	171535	29731.303465734306	22.677827190148
5	171605	29742.046267395316	31.80716006847
5	171611	29742.81925231522	30.489094898636
5	171617	29743.138408083938	28.811723899912
5	171622	29743.223586038427	26.06407803179
5	171631	29744.326791751042	15.836483661616
5	171650	29745.280054693114	16.027947591945
5	171657	29745.739147018887	10.143176155955
5	171692	29752.212454405423	1.235475628781
5	171745	29758.855625327941	5.703245263945
5	171755	29760.575320469984	3.700866857876
5	171762	29761.25024224863	3.210984244546
5	171769	29761.732132584882	3.459682584503
5	171787	29762.681337255154	0.826246018453
5	171803	29765.821852560272	3.719456484155
5	171832	29772.992706577521	3.771511044824
5	171840	29775.349697025816	0.167229224393
5	171863	29779.619513130589	2.927376013387
5	171873	29780.292629771804	2.028043861792
5	171910	29789.878614183109	1.235547982778
5	171919	29790.679856454551	1.018161269837
5	171928	29791.619287659061	1.152370077635
5	171940	29793.334129416805	1.486796172721
5	171954	29796.122433314752	3.161532066823
5	171968	29796.866151948202	1.139233894848
5	171987	29800.63468764315	1.122662211739
5	172004	29805.762180767069	1.979049007176
5	172050	29819.098331096994	9.205909373162
5	172059	29820.822141882581	3.485621761663
5	172075	29823.900871772036	0.293283701437
5	172109	29829.380036975955	0.99315996216
5	172121	29831.099599020686	0.05516902655
5	172209	29850.251026333864	0.031592536116
5	172240	29856.732250291009	3.503787937682
5	172258	29859.224872268695	0.688558381296
5	172291	29865.365776843462	3.338175744434
5	172297	29867.238442150429	3.367298986799
5	172303	29868.01971305497	2.896790536217
5	172348	29879.748805017455	2.46561291486
5	172363	29881.179120019422	0.273043864789
5	172549	29919.291632130515	32.396244681588
5	172557	29919.87717796375	30.947196106657
5	172574	29922.142687349625	26.26818060669
5	172579	29922.291634514118	22.694472858226
5	172584	29922.454656708926	18.949108550243
5	172591	29923.360656083073	17.354663595166
5	172608	29927.350833421967	19.830130294137
5	172672	29944.184894713767	32.250918146341
5	172677	29944.294884951502	31.792070221031
5	172689	29945.655165538131	32.935447101056
5	172716	29948.236346727713	33.315443227661
5	172728	29951.045604684462	34.116763609092
5	172744	29951.534661610292	33.971593231263
5	172751	29952.494695968868	33.903913922007
5	172762	29952.703098009446	33.756254056476
5	172768	29953.007367524339	25.331210801133
5	172782	29956.004189445798	25.651410006613
5	172799	29957.637665310818	24.786317832159
5	172805	29957.868245413327	23.277316245276
5	172812	29958.184276844771	11.812093101117
5	172825	29961.243027408831	11.600951259752
5	172841	29965.635371159637	11.157746487962
5	172846	29965.926180178627	3.469914415512
5	172869	29970.264414852073	4.74415186728
5	173003	29991.221421985186	17.951843986355
5	173013	29991.58568632214	7.854854290024
5	173023	29994.325284950298	9.456146548215

