version 2
run First-n3-5-20191016-14:52:43-8700
attr configname First-n3
attr datetime 20191016-14:52:43
attr experiment First-n3
attr inifile omnetpp.ini
attr iterationvars ""
attr iterationvarsf ""
attr measurement ""
attr network org.omnetpp.queueing.Pizza
attr processid 8700
attr repetition 5
attr replication ""
attr resultdir results
attr runnumber 5
attr seedset 5
param **.PS.maxInventoriedPS 3
param **.U1.interArrivalTime exponential(2s)
param **.U2.interArrivalTime exponential(4s)
param **.PS.serviceTimeForInventoryU1 exponential(0.8s)
param **.PS.serviceTimeForInventoryU2 exponential(1.0s)
param **.PS.serviceTimeDirectU1 exponential(1.2s)
param **.PS.serviceTimeDirectU2 exponential(1.4s)
param **.PS.probabilityProducing 0.5
param **.CS.serviceTimeU1 exponential(0.8s)
param **.CS.serviceTimeU2 exponential(1.0s)

vector 0 Pizza.EntryQueueU1 queueLength:vector ETV
attr interpolationmode sample-hold
attr title "queue length, vector"
vector 1 Pizza.CS queueLength:vector ETV
attr interpolationmode sample-hold
attr title "queue length, vector"
vector 2 Pizza.EntryQueueU2 queueLength:vector ETV
attr interpolationmode sample-hold
attr title "queue length, vector"
vector 3 Pizza.sink lifeTime:vector ETV
attr interpolationmode none
attr title "lifetime of arrived jobs, vector"
attr unit s
vector 4 Pizza.sink lifeTimeU2:vector ETV
attr interpolationmode none
attr title "lifetime of arrived jobs, vector"
attr unit s
0	0	0	0
0	5	0.502039955384	1
0	7	0.965195882806	2
0	9	1.869482112156	3
0	12	2.812875588987	2
0	17	4.297919186127	1
0	25	6.886510062585	2
0	30	8.927397378856	1
0	35	9.02143451979	0
0	49	9.568695461828	1
0	53	10.316418301134	0
0	67	10.923778614552	1
0	69	11.235132323748	2
0	76	14.12550412847	1
0	84	15.694006414355	2
0	89	18.100909706667	3
0	91	18.540458784907	2
0	97	19.019154831422	3
0	98	19.120123832559	2
0	103	21.199231037577	1
0	108	21.203832293184	0
0	114	22.406617329924	1
0	115	22.861296681843	0
0	119	24.606198081802	1
0	121	25.051898780376	2
0	124	25.315802623045	1
0	136	29.534407599296	0
0	159	30.173305419688	1
0	161	32.171379043634	2
0	163	32.683715834594	3
0	164	33.460428786901	2
0	169	33.839348535642	1
0	178	35.17598395585	0
0	186	36.076543838893	1
0	188	36.274423367304	2
0	189	36.569494563272	1
0	195	37.775423033851	0
0	212	38.579923165578	1
0	215	39.153092698932	0
0	227	41.750267347068	1
0	229	41.9281593591	2
0	230	42.160445367959	1
0	236	42.165033811609	2
0	238	43.01441575432	3
0	240	43.884378081718	4
0	243	44.096938344423	5
0	247	46.312911500179	4
0	252	46.341543827201	3
0	256	46.807538555798	4
0	260	47.138852408724	5
0	263	47.388863150619	6
0	267	48.470088166103	5
0	273	48.690337977252	6
0	274	49.048541171465	5
0	280	49.872133419556	6
0	281	50.337999449071	5
0	286	50.406635715532	4
0	292	51.301747646193	5
0	293	52.17084123582	4
0	298	53.524901478186	3
0	302	54.534688101078	4
0	306	55.739177297294	5
0	308	58.166833537205	6
0	314	59.159335005024	5
0	320	59.578795177955	6
0	321	61.61622581242	5
0	329	63.125245928422	6
0	332	63.789304108656	5
0	338	63.926957192649	6
0	341	64.491389761824	5
0	346	66.111454805764	4
0	354	69.349369969209	5
0	358	71.208681141704	6
0	359	73.427969861501	5
0	363	73.684768099873	6
0	369	76.103092799174	7
0	372	76.571228194392	6
0	380	77.919395721591	7
0	381	77.961109068857	6
0	387	78.823251046508	7
0	389	79.269999437972	8
0	390	79.29101821474	7
0	396	79.393954874995	8
0	398	79.884068786549	7
0	403	79.936468811467	6
0	408	81.687748503274	5
0	416	82.146133482278	4
0	422	82.749072875597	5
0	423	84.214577504143	4
0	429	86.073543134298	5
0	430	87.608025241065	4
0	441	90.595188634668	3
0	445	90.997510000819	4
0	449	91.71806745778	5
0	451	91.776864987898	6
0	452	92.511017868494	5
0	457	92.853896890709	4
0	462	93.686109262416	3
0	466	93.931059478586	4
0	468	95.211516864608	5
0	472	97.661370211271	6
0	474	98.215142140163	7
0	475	99.112698363317	6
0	483	100.887759891019	7
0	484	100.914199586123	6
0	490	101.348127071339	5
0	495	101.947357505358	4
0	500	102.307467201716	3
0	507	104.364335418415	2
0	511	104.424212621421	3
0	514	105.635327585275	2
0	518	106.276814663817	3
0	520	106.508029253562	4
0	523	107.524592404156	3
0	528	109.807504287979	2
0	533	111.624906198673	1
0	538	113.986334297195	0
0	565	116.581167720844	1
0	570	118.17252977809	2
0	573	120.592285986296	1
0	579	120.767554317875	2
0	580	121.335390336913	1
0	586	121.745861059057	2
0	589	121.972528573439	3
0	591	122.537228715339	2
0	596	122.596375032889	1
0	602	122.712427517826	2
0	604	122.738290162904	3
0	607	123.448287670743	4
0	609	123.572818271139	5
0	611	124.080715351751	4
0	617	124.616522951559	5
0	618	124.796382412201	4
0	623	125.325104643069	3
0	627	125.564958260592	4
0	629	125.867502172323	5
0	633	126.215449416926	6
0	638	127.873433952313	5
0	643	129.52531727683	4
0	647	130.699608543106	5
0	651	132.124166986561	6
0	655	132.492513104439	7
0	656	133.062869757838	6
0	660	133.391549521071	7
0	662	133.447758399857	8
0	666	136.389976381714	9
0	668	136.790494234585	10
0	672	138.444794630786	11
0	674	139.566043712942	12
0	676	140.51850728905	11
0	681	142.122661004323	10
0	688	144.384101214007	11
0	694	146.504621408827	12
0	696	146.84085552431	13
0	697	146.875068377925	12
0	702	146.875374756216	11
0	706	146.884834514438	12
0	714	148.428749867241	11
0	719	149.10040394266	10
0	725	150.620187536214	11
0	729	151.991122552338	12
0	730	152.804934559013	11
0	738	153.684709578589	12
0	739	154.715725202398	11
0	744	156.427295578065	10
0	750	159.832075892813	9
0	755	159.857070673734	8
0	760	161.536495020786	7
0	765	162.292997927638	6
0	770	164.879401173655	5
0	774	165.172869649457	6
0	776	165.866319979695	7
0	779	167.665324100273	6
0	783	167.875015154896	7
0	788	168.711694288167	6
0	793	168.860032840366	5
0	799	170.378255820636	6
0	801	170.801319118368	7
0	803	170.811150205943	8
0	806	172.822565352093	9
0	807	173.082202843695	8
0	812	173.358994865603	7
0	816	173.925499684819	8
0	818	175.034511462951	9
0	821	175.32152018414	8
0	825	175.564291049701	9
0	828	181.64484114263	8
0	832	182.042722338509	9
0	836	184.838973796195	10
0	838	186.119244262834	11
0	839	186.871750922958	10
0	843	186.91853785514	11
0	850	188.127462979404	12
0	851	188.510259252845	11
0	857	188.60663132131	12
0	858	188.654080914988	11
0	864	188.992945651772	10
0	870	189.451866489035	9
0	876	189.535167382247	10
0	877	189.737826915559	9
0	882	189.760158490823	8
0	886	190.721083967311	9
0	888	191.37525432544	10
0	896	192.113176843392	11
0	899	193.349918927172	12
0	900	193.433816951566	11
0	906	193.43601175461	12
0	908	193.721227074372	13
0	910	193.782268230919	14
0	911	193.829311495842	13
0	915	194.691431217409	14
0	918	195.611618895628	13
0	923	195.953137011798	12
0	929	199.580132782409	13
0	931	199.59339285801	14
0	935	200.14421316897	15
0	937	200.557499820654	14
0	943	200.619443086961	15
0	945	200.909323450342	14
0	950	201.960305972887	13
0	954	202.109497748226	14
0	957	202.277899565854	13
0	962	205.278392461011	12
0	969	206.815214084128	11
0	974	206.90356631558	10
0	979	207.11724697557	9
0	986	209.035491641625	8
0	996	212.15934880872	7
0	1001	212.277109144965	6
0	1007	215.135206438955	7
0	1009	216.299349549641	8
0	1011	216.417840705076	9
0	1014	216.816055007307	8
0	1019	219.197133855689	7
0	1023	219.502590042559	8
0	1028	220.512942403637	7
0	1033	220.715489223005	6
0	1039	222.415793122342	7
0	1042	223.301593842695	6
0	1046	223.747847513798	7
0	1052	226.511775947427	8
0	1054	226.949500969059	9
0	1056	228.388031383398	10
0	1059	230.063158812389	9
0	1063	231.280992070296	10
0	1066	231.407378270326	9
0	1071	232.133700981014	8
0	1078	234.565384111646	7
0	1084	235.794947392596	8
0	1086	236.315544423675	7
0	1091	236.531047765451	6
0	1095	236.570691653753	7
0	1102	239.179071147921	6
0	1108	240.139018922192	7
0	1109	241.679612656959	6
0	1114	243.259777446817	5
0	1118	243.405978199865	6
0	1120	244.245536425736	7
0	1124	246.996892749782	8
0	1130	248.897721474145	7
0	1135	249.049563067165	6
0	1140	250.199455865996	5
0	1145	251.796446156217	4
0	1149	252.803244908256	5
0	1152	253.510825500706	4
0	1159	255.997464554366	3
0	1165	257.322287764225	4
0	1167	258.834079480257	5
0	1169	259.099458049465	6
0	1171	259.116317812537	7
0	1172	261.608658270155	6
0	1178	261.944319611733	7
0	1181	262.164773639961	6
0	1186	265.190229757815	5
0	1194	266.676823989892	6
0	1198	267.103105315824	7
0	1201	267.643763487067	6
0	1206	267.971548135729	5
0	1215	269.76423082816	6
0	1218	269.843069243614	5
0	1224	270.157492016537	6
0	1226	270.622724429437	7
0	1228	271.36954366068	6
0	1233	271.761204397896	5
0	1237	271.96799793275	6
0	1240	273.337067797733	5
0	1245	276.192160249572	4
0	1251	276.680735726882	5
0	1253	276.801054914553	6
0	1255	277.676698340851	7
0	1257	278.375094703944	8
0	1259	278.416875836266	9
0	1261	278.808160216093	10
0	1265	279.147495404802	9
0	1271	280.472616035044	10
0	1272	280.618521853126	9
0	1276	281.055236728856	10
0	1278	281.295142605948	11
0	1280	281.714314689602	12
0	1286	282.855753370588	11
0	1291	284.229112896878	10
0	1301	286.64460655159	9
0	1309	287.403599326785	10
0	1310	288.112826211851	9
0	1314	288.229792401075	10
0	1317	288.526237638865	9
0	1322	290.147375664496	8
0	1329	291.382283549646	7
0	1336	291.681271762293	8
0	1337	291.741552379888	7
0	1343	292.246876275779	8
0	1345	292.417182118936	9
0	1347	292.729038107001	10
0	1348	292.839036354651	9
0	1354	293.549968615127	10
0	1355	293.751672091528	9
0	1360	294.02502764681	8
0	1366	296.438345611371	7
0	1375	297.489420895303	6
0	1380	297.597912577189	5
0	1385	297.907913372799	4
0	1394	298.984604645465	3
0	1399	299.929673007421	2
0	1403	300.93451797471	3
0	1407	302.901618912428	4
0	1409	303.245916692353	5
0	1412	303.637341136238	6
0	1415	304.164581814682	5
0	1420	304.193932496301	4
0	1425	304.380274347818	3
0	1430	304.548256533534	2
0	1435	304.848076850778	1
0	1441	306.612376043786	2
0	1443	306.919242015241	1
0	1448	306.995712477952	0
0	1464	308.376966865409	1
0	1466	308.595682179762	0
0	1492	311.41738595978	1
0	1495	312.09566015313	0
0	1499	312.151454611314	1
0	1504	313.705364659255	0
0	1513	315.6931154935	1
0	1517	318.291848287683	2
0	1520	319.396630419563	1
0	1532	321.903970113422	0
0	1554	324.221327075967	1
0	1556	325.120095269765	0
0	1577	327.030631973953	1
0	1579	327.816733145391	2
0	1580	327.847952902985	1
0	1586	328.283628976873	2
0	1588	328.994847548954	3
0	1590	329.060531059694	4
0	1593	329.948042446894	3
0	1600	330.412700044281	2
0	1605	330.592269441145	1
0	1610	330.67892895456	0
0	1627	333.312842836498	1
0	1629	333.654314038248	2
0	1631	334.390523129916	1
0	1636	334.473400782306	0
0	1665	343.992801131076	1
0	1666	344.045551163277	0
0	1680	344.571857426457	1
0	1682	344.743234851799	2
0	1685	345.49729969912	1
0	1691	346.316366448267	0
0	1706	351.038721860276	1
0	1707	351.247319153588	0
0	1721	353.145631612969	1
0	1723	355.236214128886	2
0	1728	355.949114242198	1
0	1737	356.191321219145	0
0	1748	358.188283981651	1
0	1753	360.114498540498	0
0	1757	362.58485037889	1
0	1763	365.265000862505	2
0	1766	365.489439675269	3
0	1767	366.036736631404	2
0	1774	366.140430657403	1
0	1780	366.439658046906	0
0	1784	366.723612172278	1
0	1788	367.12254523495	2
0	1790	367.471488496354	1
0	1795	367.50580466945	0
0	1821	372.876481854247	1
0	1824	373.751524870125	2
0	1825	373.784288320812	1
0	1831	374.589493376746	2
0	1833	374.880217447751	3
0	1834	374.970506172945	2
0	1842	376.84855765837	3
0	1843	377.602089521085	2
0	1849	377.736583993867	1
0	1856	378.624625091778	0
0	1863	378.910578780394	1
0	1864	379.387600988138	0
0	1870	379.389155440635	1
0	1871	379.397671043095	0
0	1879	380.446544779044	1
0	1882	383.202524664635	0
0	1888	383.603370670177	1
0	1891	383.889713889755	2
0	1892	384.47473777571	1
0	1898	384.520281180184	2
0	1899	384.663691347002	1
0	1904	384.933445503218	0
0	1910	385.308285182826	1
0	1916	386.043705729049	0
0	1922	386.362474429517	1
0	1929	386.952688157581	2
0	1931	387.861354555949	3
0	1933	387.990430859127	4
0	1935	387.99939778752	5
0	1937	388.01209526939	6
0	1939	388.589779902161	7
0	1940	390.086239085844	6
0	1946	390.487852947981	7
0	1947	392.367949506003	6
0	1954	393.20380563659	7
0	1956	393.716804301001	8
0	1957	394.687199260115	7
0	1963	394.997251126963	8
0	1965	395.625723268737	9
0	1966	395.692235668557	8
0	1974	397.106888155233	7
0	1979	397.326271395478	6
0	1986	399.115666174397	5
0	1995	399.898243032247	4
0	2001	400.328345558485	3
0	2006	400.66888139143	2
0	2011	402.226415006048	1
0	2017	402.608673171205	0
0	2043	405.000853434889	1
0	2045	405.087684317483	2
0	2046	405.399034152455	1
0	2052	406.402576156239	0
0	2072	408.496280323326	1
0	2074	409.468456138172	2
0	2076	410.270111923328	3
0	2081	411.273898201925	2
0	2089	412.030618398812	3
0	2091	412.800259589985	2
0	2099	414.75016737896	3
0	2100	415.028932853532	2
0	2105	415.080225847428	1
0	2111	415.676216307095	2
0	2117	418.559315345501	3
0	2119	418.75338635823	4
0	2125	420.638033901394	5
0	2127	421.307563329448	4
0	2135	422.093938441412	5
0	2137	422.100919254169	6
0	2139	422.919835333832	5
0	2145	423.145957172935	6
0	2148	424.29170757697	5
0	2153	424.603657872763	4
0	2160	425.092685120175	3
0	2166	425.818305440223	2
0	2170	427.023161745294	3
0	2172	427.882903221299	4
0	2174	428.065600081877	5
0	2176	428.216036028985	6
0	2182	429.121452555166	5
0	2187	429.4890454394	4
0	2192	429.707724526244	3
0	2196	431.09041542699	4
0	2199	432.896470052827	3
0	2204	433.429580359745	2
0	2209	434.480852710907	1
0	2214	437.342863875554	0
0	2242	440.123746543475	1
0	2249	440.417363433008	0
0	2257	441.234191561814	1
0	2259	441.956173219109	0
0	2273	442.804376981793	1
0	2275	443.046059393825	2
0	2276	443.160960062651	1
0	2282	443.618832048101	0
0	2294	444.007291114545	1
0	2296	444.142246852724	2
0	2297	444.217486243563	1
0	2303	444.548480410797	2
0	2306	445.003606949065	1
0	2312	446.050262853822	2
0	2314	446.120421745148	1
0	2320	446.658915884108	2
0	2322	448.105776187162	3
0	2324	448.131264186091	4
0	2325	448.499255006126	3
0	2331	449.139949590872	4
0	2333	450.445196131027	5
0	2337	452.75583004534	6
0	2338	452.97216936439	5
0	2342	453.343895633579	6
0	2346	453.640281768492	7
0	2348	454.241367856799	6
0	2354	454.611911496872	5
0	2360	457.524261389886	6
0	2361	458.193856147719	5
0	2365	458.352598239742	6
0	2367	458.354945532067	7
0	2372	461.39905648022	6
0	2376	462.07224199162	7
0	2383	463.578532727649	6
0	2388	463.795102528902	5
0	2395	464.704544053871	6
0	2399	465.350817592904	5
0	2408	466.112792608872	6
0	2409	467.050547220637	5
0	2417	468.048664805668	4
0	2425	468.536271505754	5
0	2426	469.232524785863	4
0	2431	469.704104966747	3
0	2437	470.772250080971	4
0	2438	471.061456515813	3
0	2444	471.940136226493	2
0	2449	472.017784843524	1
0	2455	472.304090021179	2
0	2458	472.752809864534	1
0	2464	472.893319776396	2
0	2465	473.275856268719	1
0	2471	473.772732245841	2
0	2472	474.960035431838	1
0	2477	475.983811165072	0
0	2493	477.387832144077	1
0	2494	477.76244080132	0
0	2498	478.068463941583	1
0	2500	478.169966767609	2
0	2508	480.279164701781	3
0	2510	480.638888898959	4
0	2513	482.096164621678	5
0	2515	482.191949990686	4
0	2520	482.449836061751	3
0	2529	485.937360698817	2
0	2535	486.393196391757	1
0	2541	487.29823008715	0
0	2552	487.889842531846	1
0	2554	489.874469195894	0
0	2566	492.647554882605	1
0	2568	493.098020377438	2
0	2569	494.223014902724	1
0	2576	495.37049790328	2
0	2580	495.858984767734	1
0	2587	496.331329982879	0
0	2595	498.245824315424	1
0	2596	498.512702339129	0
0	2610	500.950272668262	1
0	2611	501.419903904928	0
0	2617	503.485421717077	1
0	2618	503.931810657457	0
0	2637	506.893615190493	1
0	2642	507.591979913803	0
0	2654	509.062619297483	1
0	2655	509.335243208345	0
0	2669	511.156797766398	1
0	2675	511.63841506854	2
0	2678	512.192458133743	1
0	2686	514.827052421227	2
0	2687	515.492474240058	1
0	2693	515.605555766395	2
0	2694	515.908162904503	1
0	2701	517.379337691904	2
0	2702	518.285137606045	1
0	2708	518.58563597802	2
0	2709	518.931376834737	1
0	2714	519.364300022175	0
0	2718	520.185343132656	1
0	2722	521.867659042762	2
0	2723	521.897738620991	1
0	2728	522.981641880662	0
0	2732	523.279823231412	1
0	2735	524.007160753884	0
0	2746	525.406969644602	1
0	2747	525.80364109072	0
0	2751	526.513048870456	1
0	2754	527.002183084767	0
0	2770	528.932182205012	1
0	2773	529.682158983932	0
0	2779	530.023659265077	1
0	2782	530.732279024367	0
0	2798	531.808734583613	1
0	2799	532.159984405221	0
0	2808	532.983154279601	1
0	2811	533.008677252632	0
0	2821	534.581307093912	1
0	2825	535.462158282896	2
0	2826	535.842153980784	1
0	2834	536.485555888805	0
0	2842	537.225433229836	1
0	2844	537.931564896122	0
0	2848	538.222768297161	1
0	2850	538.232921010481	2
0	2852	538.337528833522	3
0	2857	539.693863149498	4
0	2858	539.968651366367	3
0	2864	540.306133183251	2
0	2869	540.484247613396	1
0	2873	540.74105712036	2
0	2876	542.78506116717	1
0	2884	544.334472647251	2
0	2885	545.199996877858	1
0	2890	545.853250297648	0
0	2896	546.080819967645	1
0	2898	546.094565936642	2
0	2901	546.735019957859	1
0	2907	547.047890230065	2
0	2911	547.195521577513	3
0	2913	547.591570799332	2
0	2919	547.769455452398	3
0	2922	548.802679635858	2
0	2928	549.168879955249	3
0	2929	549.315635748726	2
0	2935	549.524258413857	3
0	2936	550.539540135658	2
0	2942	550.867272165263	3
0	2943	551.107010464308	2
0	2951	554.192975020827	3
0	2952	554.87373180962	2
0	2958	556.252223106156	1
0	2963	556.712219856517	0
0	2967	556.946123704285	1
0	2971	557.042760839776	2
0	2975	557.752454978394	3
0	2976	557.836499665289	2
0	2980	557.953484677008	3
0	2982	558.260059598287	4
0	2985	559.290179529695	3
0	2990	561.378916119093	2
0	2994	561.387011586853	3
0	2998	561.986959986185	2
0	3003	562.081107473766	1
0	3008	563.175995169976	0
0	3014	564.065801473559	1
0	3015	564.648291097841	0
0	3023	565.658782998568	1
0	3024	565.77408397187	0
0	3036	569.085858389257	1
0	3037	569.614551506678	0
0	3055	571.155821722472	1
0	3057	571.443211444298	2
0	3062	572.311642896032	3
0	3065	573.235805547104	2
0	3070	573.557128894913	1
0	3074	574.131231715381	2
0	3077	574.818357168826	1
0	3084	577.973858139621	0
0	3096	581.80441065729	1
0	3100	582.98476714461	0
0	3115	583.818523057658	1
0	3119	584.289016985978	2
0	3123	585.27817061567	1
0	3129	585.422690762603	2
0	3130	585.84141486282	1
0	3136	586.013407362242	2
0	3138	586.059716862186	3
0	3139	586.072546756563	2
0	3149	588.033537489006	1
0	3156	588.989619472264	0
0	3193	597.844529656566	1
0	3195	598.275590999334	0
0	3209	601.306862059088	1
0	3210	601.411119879347	0
0	3216	601.690758759124	1
0	3218	601.82690581264	2
0	3222	602.585606946798	1
0	3227	602.613959794161	0
0	3247	604.538809123196	1
0	3254	605.986190326521	2
0	3256	606.185100122632	3
0	3257	607.05612077596	2
0	3262	607.07237236938	1
0	3268	608.887802532375	0
0	3272	609.150995386377	1
0	3279	611.00166454879	0
0	3283	611.634739321266	1
0	3288	613.650307001829	0
0	3326	620.851764101484	1
0	3330	621.809311085118	0
0	3338	621.928425142751	1
0	3339	621.989873908703	0
0	3348	622.724007074107	1
0	3349	623.415245124739	0
0	3375	629.80030164689	1
0	3376	630.165217866405	0
0	3426	635.014720708228	1
0	3432	637.273950705839	2
0	3433	638.158071071838	1
0	3441	639.034908852049	0
0	3464	641.599730502613	1
0	3465	642.114457041962	0
0	3473	643.362299491172	1
0	3474	643.625662723063	0
0	3490	647.181868590099	1
0	3491	647.411398832984	0
0	3500	648.439501860076	1
0	3504	648.753055139776	0
0	3526	653.887703592096	1
0	3527	654.133140049726	0
0	3533	654.262556338019	1
0	3534	654.419332039369	0
0	3562	659.057032148203	1
0	3566	661.003202389037	2
0	3567	661.978228450302	1
0	3572	662.661227178514	0
0	3578	662.731289438877	1
0	3580	663.430175238674	2
0	3581	664.049170359611	1
0	3587	665.049319866858	2
0	3591	666.476236179269	3
0	3595	667.359092924488	4
0	3596	667.4145724951	3
0	3602	667.864174044621	4
0	3603	668.317359975809	3
0	3609	668.349660143842	4
0	3610	668.43607801151	3
0	3615	668.844423452002	2
0	3622	669.282471855083	3
0	3624	669.696914770926	4
0	3625	670.162104914826	3
0	3630	670.342843495438	2
0	3634	670.964943064896	3
0	3638	674.000342049407	2
0	3645	677.245409261104	3
0	3647	678.241238541324	2
0	3652	678.280565121566	1
0	3656	678.521768026579	2
0	3659	679.723886238778	1
0	3666	681.222134950954	2
0	3667	681.79251418018	1
0	3672	681.996457720846	0
0	3676	682.138024959771	1
0	3678	682.335344229162	2
0	3680	683.259786882224	3
0	3683	685.272848886071	2
0	3691	687.089339307896	3
0	3695	688.186325894549	4
0	3696	688.368049773035	3
0	3701	689.003437655583	2
0	3706	689.290584756006	1
0	3711	691.367593090769	0
0	3719	692.943311448934	1
0	3723	693.436927732215	0
0	3736	693.977045563429	1
0	3737	694.194420568704	0
0	3748	695.377038393076	1
0	3749	695.95115475252	0
0	3771	700.508576050263	1
0	3774	702.456575035705	0
0	3793	705.685601327166	1
0	3798	708.521063388562	2
0	3799	709.106375323501	1
0	3807	709.984167180277	2
0	3810	710.361090094569	3
0	3811	710.410827144394	2
0	3816	710.72780234985	1
0	3823	711.250933110553	0
0	3849	716.318646167095	1
0	3850	716.517112619068	0
0	3862	718.002454051039	1
0	3863	718.643379724383	0
0	3873	719.90322455023	1
0	3874	719.991101158685	0
0	3888	723.316617787046	1
0	3889	724.978412078167	0
0	3906	728.856968948166	1
0	3911	731.009336953413	2
0	3912	731.101454104617	1
0	3919	731.603478072091	2
0	3921	731.685452419393	3
0	3923	732.298060466939	2
0	3928	732.603697895436	1
0	3934	732.705965490599	2
0	3937	733.992739551414	3
0	3939	734.228200934035	2
0	3944	734.509011631526	1
0	3950	734.611352625428	2
0	3951	734.697649975728	1
0	3956	737.638731844003	0
0	3962	738.233642402962	1
0	3964	740.582722174635	2
0	3969	743.235618104738	3
0	3971	743.724432836536	4
0	3972	744.501386590141	3
0	3977	744.581702047745	2
0	3981	745.84708433286	3
0	3984	747.202697228004	2
0	3988	747.286475446354	3
0	3991	748.270708556603	2
0	4000	749.756645284194	3
0	4001	750.019954531353	2
0	4006	750.365117948901	1
0	4010	751.227978777479	2
0	4013	753.606783374541	1
0	4018	754.493338199271	0
0	4022	755.673052315255	1
0	4025	757.994543961411	0
0	4029	758.024671366836	1
0	4033	760.705418766311	2
0	4035	760.838136726552	3
0	4038	761.244192571876	2
0	4043	761.714191829976	1
0	4053	763.570125667528	2
0	4054	763.991096517622	1
0	4059	764.809080044771	0
0	4063	765.164567779113	1
0	4067	765.512856460234	2
0	4069	766.075393836928	3
0	4072	766.57542662027	2
0	4077	766.946631779103	1
0	4082	767.541545636695	0
0	4096	769.919161105839	1
0	4097	771.210862054637	0
0	4132	777.306109599558	1
0	4133	777.756731135395	0
0	4139	778.041871598387	1
0	4143	779.151461987351	2
0	4146	781.131486446146	3
0	4147	781.711491695675	2
0	4152	781.781193919975	1
0	4157	783.317052761451	0
0	4193	786.859984486356	1
0	4194	787.134794936913	0
0	4198	787.285861952894	1
0	4204	788.245416574461	2
0	4205	788.331158614219	1
0	4210	788.701478948767	0
0	4254	794.383714497169	1
0	4256	795.617265733572	2
0	4259	796.241223489721	1
0	4264	796.606486723502	0
0	4273	796.98292017648	1
0	4276	798.004805291809	0
0	4294	803.810158951214	1
0	4297	803.972030861627	0
0	4330	809.662908589445	1
0	4333	810.072219164201	2
0	4335	810.351429297856	3
0	4336	811.684379772728	2
0	4341	811.8070008517	1
0	4350	813.52837421551	0
0	4356	813.581371822339	1
0	4357	815.124187597684	0
0	4375	816.525456057831	1
0	4377	817.610098573178	0
0	4411	824.373155372548	1
0	4415	826.779465987713	2
0	4418	829.880562317593	1
0	4423	830.051026765034	0
0	4432	831.243772161766	1
0	4436	833.075042341645	2
0	4437	833.281196344614	1
0	4444	833.456467576358	0
0	4450	834.231941913735	1
0	4451	834.372010219611	0
0	4493	839.468966679358	1
0	4494	839.812777215601	0
0	4512	841.670174994398	1
0	4517	843.760005221773	0
0	4525	844.493511206012	1
0	4527	844.539089342428	2
0	4529	845.610596985085	1
0	4534	845.803484941122	0
0	4547	846.097553500621	1
0	4550	846.927644923348	2
0	4552	848.038182193414	3
0	4553	848.068578485379	2
0	4560	848.463598058978	3
0	4561	848.827283585282	2
0	4566	848.976497063343	1
0	4570	849.709292462963	2
0	4572	849.864616921341	3
0	4575	850.22534977376	2
0	4582	853.492090819913	3
0	4587	854.128213479093	2
0	4594	855.057071531342	3
0	4598	856.5022794755	2
0	4603	857.185618531285	1
0	4611	859.972674809084	2
0	4615	861.785845675451	3
0	4616	862.239048844559	2
0	4622	863.347676397601	3
0	4623	863.395007102989	2
0	4629	863.955793109906	3
0	4631	865.107926102993	4
0	4632	866.480711415022	3
0	4637	866.866867995922	2
0	4642	868.451634391981	1
0	4648	869.472895349201	2
0	4651	870.014353840012	1
0	4657	870.702078770456	2
0	4658	871.514070597233	1
0	4662	871.726917808092	2
0	4665	872.271692136341	1
0	4677	874.049639479541	2
0	4678	874.625256196151	1
0	4684	876.852871922434	2
0	4688	877.658383243211	3
0	4690	878.18061718901	4
0	4691	878.188522427904	3
0	4696	879.740807176278	2
0	4700	879.787378157627	3
0	4702	880.879708187309	4
0	4705	882.526557011482	3
0	4713	883.544843958697	4
0	4715	884.402416521524	3
0	4721	884.714296234972	4
0	4722	885.178849905373	3
0	4726	885.687119155233	4
0	4731	887.971203308759	3
0	4737	888.517691215683	4
0	4741	889.685154465296	5
0	4742	890.584787519918	4
0	4746	891.483408073133	5
0	4748	892.231966091959	6
0	4752	892.757989630739	7
0	4754	893.008076219756	8
0	4755	894.4720264545	7
0	4762	896.090782786768	6
0	4767	896.493942592497	5
0	4771	896.641257113165	6
0	4773	897.55270859222	7
0	4775	897.824859850491	8
0	4780	899.386767664677	9
0	4781	899.520645763259	8
0	4789	901.012358979212	7
0	4794	901.175361951736	6
0	4801	902.470825929534	5
0	4807	902.917177037191	6
0	4808	904.350537902942	5
0	4814	905.031099594506	6
0	4815	905.754735904727	5
0	4819	906.181710340785	6
0	4822	906.535455319813	5
0	4828	908.044030091134	6
0	4830	909.602818042162	7
0	4835	911.450613213723	6
0	4841	912.772837011591	7
0	4846	914.828234347765	6
0	4851	915.454062104403	5
0	4857	916.186991269393	6
0	4859	916.385869806346	7
0	4861	916.45944471271	8
0	4863	916.966571983994	7
0	4868	917.591190980339	6
0	4873	918.335486469924	5
0	4878	922.194796052791	4
0	4884	922.371738815969	5
0	4885	922.395195394248	4
0	4889	923.743252933187	5
0	4891	924.908161795045	6
0	4897	926.635298611651	5
0	4902	926.914117623059	4
0	4906	927.287639437485	5
0	4909	928.485723892564	4
0	4914	929.193691912377	3
0	4920	929.928221393798	4
0	4924	930.814120494504	5
0	4926	931.128804902908	6
0	4927	931.656807744895	5
0	4931	931.893926984478	6
0	4933	932.845389062714	7
0	4936	933.126282180942	6
0	4940	933.477979937393	7
0	4946	934.691653885726	6
0	4951	934.729050614488	5
0	4956	935.73340679282	4
0	4962	936.045082899548	5
0	4963	936.290250748497	4
0	4968	936.929932551832	3
0	4974	938.927791640284	2
0	4979	939.200067306774	1
0	4983	939.616718221316	2
0	4987	940.328676253922	1
0	4992	940.733513883641	0
0	5003	941.476919190973	1
0	5004	941.539967899383	0
0	5034	945.574624088645	1
0	5036	945.744468207742	2
0	5038	946.29633728224	1
0	5045	946.855988580235	2
0	5047	947.534020351991	3
0	5049	947.657953618419	4
0	5050	948.213696352191	3
0	5056	948.652291533066	4
0	5059	949.047258391487	3
0	5064	949.658493965461	2
0	5070	950.300286751621	1
0	5075	950.365594532526	0
0	5086	953.098930743685	1
0	5090	954.439378604804	0
0	5117	956.797468792915	1
0	5119	956.854514174703	2
0	5120	956.915695074364	1
0	5126	957.907761714891	0
0	5138	959.757697093106	1
0	5139	959.855629866468	0
0	5143	959.884188852192	1
0	5145	961.09077044443	2
0	5150	963.256788405378	1
0	5155	963.316484512188	0
0	5171	966.445961915438	1
0	5173	966.451890181928	2
0	5175	966.526497768857	3
0	5176	966.55722201607	2
0	5183	969.564112944591	1
0	5189	972.37443984278	0
0	5198	972.541345809373	1
0	5200	973.377175197596	2
0	5201	973.880577516252	1
0	5206	973.881860455172	0
0	5233	977.396917458408	1
0	5234	977.926681917975	0
0	5238	978.055635888968	1
0	5240	978.410270813876	2
0	5243	978.611732374126	1
0	5248	979.202506759843	0
0	5252	979.700433796548	1
0	5259	982.891687299041	0
0	5277	985.326465141559	1
0	5282	987.771897733638	0
0	5291	989.482145695849	1
0	5293	991.263781371199	2
0	5296	991.992637930913	1
0	5300	992.289406643926	2
0	5302	992.306069233089	3
0	5304	992.401008796474	4
0	5306	992.91416687001	5
0	5309	995.020314479468	4
0	5315	995.615139934863	5
0	5317	996.735693438064	4
0	5324	998.584503161529	3
0	5329	998.68761241186	2
0	5336	999.750332201818	1
0	5341	1000.065305240737	0
0	5350	1003.749564625935	1
0	5352	1004.205329247631	2
0	5353	1004.629100028968	1
0	5357	1005.49781245742	2
0	5360	1007.256703611201	1
0	5364	1008.096672942428	2
0	5368	1010.024824689332	3
0	5370	1011.148203632309	2
0	5375	1011.920017260486	1
0	5381	1013.719098269674	2
0	5382	1014.156365810156	1
0	5386	1014.894426847143	2
0	5390	1015.829264642922	3
0	5391	1016.226875851606	2
0	5397	1017.313045762262	3
0	5401	1018.133227768376	4
0	5403	1018.641350442536	5
0	5405	1019.646053227567	6
0	5406	1019.982058923862	5
0	5410	1020.654304845023	6
0	5412	1020.963860722616	7
0	5416	1021.772390366695	8
0	5417	1022.327947718567	7
0	5422	1023.086833368809	6
0	5427	1023.736709401213	5
0	5431	1023.898387650438	6
0	5433	1025.526526288584	7
0	5436	1025.772234459665	6
0	5443	1027.412933847729	5
0	5449	1028.805261967286	4
0	5454	1029.038619059333	3
0	5459	1031.067338919649	2
0	5464	1031.867442242213	1
0	5469	1032.121538198622	0
0	5487	1033.817311995582	1
0	5489	1033.841781804256	2
0	5490	1033.899172665031	1
0	5495	1033.988883297729	0
0	5528	1042.514852773027	1
0	5530	1042.937813728355	2
0	5533	1043.371471356184	1
0	5541	1045.957042070582	0
0	5548	1047.127867546979	1
0	5549	1047.319827746594	0
0	5556	1047.524591442246	1
0	5558	1047.625889846091	2
0	5560	1047.818398593808	3
0	5562	1049.648820032056	2
0	5570	1051.16680875039	3
0	5571	1051.251324554042	2
0	5577	1052.597891177883	1
0	5583	1053.6127342106	2
0	5588	1055.105648456071	3
0	5589	1056.528463762551	2
0	5595	1057.330837363762	3
0	5596	1057.617719451542	2
0	5601	1058.200506009472	1
0	5607	1058.602614488695	2
0	5610	1059.289193016193	3
0	5612	1059.374828700272	4
0	5613	1059.896937340816	3
0	5619	1060.359217599931	2
0	5624	1060.38329052499	1
0	5628	1060.593515672058	2
0	5634	1061.976872554776	1
0	5639	1062.05259976203	0
0	5647	1062.776381518286	1
0	5648	1063.245780143872	0
0	5695	1070.135928185471	1
0	5698	1071.992910031393	0
0	5704	1072.189407499113	1
0	5705	1072.270583136022	0
0	5721	1075.306688278142	1
0	5723	1075.976278094956	2
0	5730	1076.854402108683	1
0	5737	1077.011450709263	0
0	5746	1079.182356853551	1
0	5750	1081.214454698948	2
0	5752	1081.290394164499	3
0	5755	1083.347381995529	2
0	5764	1086.538580684961	3
0	5765	1086.649470761632	2
0	5770	1086.703875473175	1
0	5776	1087.023513724496	2
0	5778	1087.909161480413	1
0	5783	1088.15548926584	0
0	5789	1088.236665820834	1
0	5790	1089.184272907574	0
0	5794	1089.313498716529	1
0	5796	1089.327719071317	2
0	5799	1089.977399015589	1
0	5805	1091.09064580814	2
0	5809	1091.699702556268	1
0	5814	1091.974004555466	0
0	5820	1092.139179856568	1
0	5827	1094.835315195936	0
0	5831	1096.405991941604	1
0	5835	1098.112693644377	0
0	5846	1098.652291739966	1
0	5848	1098.859633965935	2
0	5850	1099.583378330796	1
0	5855	1099.720789214704	0
0	5868	1103.031895942868	1
0	5871	1105.042602315777	0
0	5889	1106.544053703551	1
0	5890	1106.984710550804	0
0	5904	1107.849573646665	1
0	5908	1110.658424997571	2
0	5909	1110.951022893432	1
0	5915	1112.28554021029	2
0	5917	1112.304090399759	3
0	5918	1112.592356601711	2
0	5922	1112.977660955264	3
0	5924	1113.267498516055	4
0	5927	1113.446835545763	3
0	5931	1113.453988353864	4
0	5933	1113.874925719304	5
0	5936	1114.513032742768	4
0	5942	1114.766498239295	5
0	5944	1116.714916020457	6
0	5946	1117.051335696758	7
0	5948	1117.648152891065	8
0	5951	1117.973187307782	7
0	5956	1119.955242034213	6
0	5960	1120.543579107993	7
0	5962	1121.094773947774	8
0	5965	1121.54699645069	7
0	5970	1121.698311464185	6
0	5976	1123.527847160676	7
0	5978	1123.855099059809	8
0	5980	1123.974720652342	9
0	5981	1124.165670297801	8
0	5986	1127.039780169742	7
0	5995	1130.246231774226	6
0	6005	1132.38717915183	7
0	6006	1132.441156712978	6
0	6014	1133.602961038359	5
0	6019	1133.760448343153	4
0	6024	1133.949311097763	3
0	6030	1136.584311622899	2
0	6035	1137.273599211718	1
0	6043	1138.161773027432	2
0	6044	1138.536953474196	1
0	6048	1138.742240188912	2
0	6052	1140.219917674691	1
0	6057	1140.587531393467	0
0	6063	1141.823949096091	1
0	6065	1141.846792772551	2
0	6066	1142.124277822623	1
0	6072	1142.551451624557	2
0	6075	1143.625244238667	1
0	6079	1145.308138545436	2
0	6082	1146.753683265026	1
0	6087	1146.962849613141	0
0	6091	1147.542820243218	1
0	6095	1149.307957019288	2
0	6097	1149.689844151706	3
0	6103	1152.609630972655	4
0	6105	1152.872906485829	5
0	6108	1153.624503769554	4
0	6116	1154.812140995282	3
0	6121	1155.039637467772	2
0	6129	1158.361403395298	3
0	6130	1158.682745325756	2
0	6135	1159.987991565281	1
0	6139	1160.875047378694	2
0	6142	1161.186172064491	1
0	6147	1161.23823269881	0
0	6161	1162.744858386303	1
0	6162	1163.360721651451	0
0	6175	1165.512644899594	1
0	6176	1165.571852659967	0
0	6193	1168.468518123101	1
0	6195	1168.986491970439	2
0	6197	1169.092179733366	3
0	6198	1169.124388207339	2
0	6204	1169.263587733757	3
0	6205	1169.769171926405	2
0	6210	1173.836742025147	1
0	6214	1174.661315276353	2
0	6217	1174.842698936267	1
0	6223	1175.404740327088	2
0	6225	1175.579448816787	3
0	6226	1176.393227123134	2
0	6232	1177.266854837539	3
0	6233	1177.801363519394	2
0	6237	1178.01425694206	3
0	6242	1178.232739968402	2
0	6249	1179.653385575984	1
0	6254	1180.06096674565	0
0	6267	1182.412867589233	1
0	6271	1183.281326905825	2
0	6274	1185.383742819267	1
0	6280	1185.631074321657	0
0	6292	1187.230567434779	1
0	6293	1187.581644268126	0
0	6299	1188.274620039976	1
0	6300	1188.368808322925	0
0	6306	1188.56094487403	1
0	6308	1188.699738961412	2
0	6309	1189.175088864591	1
0	6315	1189.580730501859	0
0	6344	1191.916234085987	1
0	6352	1193.302448416459	0
0	6380	1197.029015281056	1
0	6381	1197.246580354702	0
0	6390	1198.393636189326	1
0	6392	1198.978481268569	0
0	6422	1203.340413520547	1
0	6424	1203.665509472782	2
0	6427	1206.942973643521	1
0	6436	1207.555913414707	2
0	6438	1207.99726344809	1
0	6443	1208.443648914491	0
0	6475	1212.854309630327	1
0	6476	1213.577580075009	0
0	6489	1214.730594402353	1
0	6490	1215.113999607678	0
0	6502	1216.29615953419	1
0	6504	1217.783902625372	2
0	6506	1218.387375659662	1
0	6511	1218.574211492794	0
0	6518	1219.0722099904	1
0	6519	1219.093653870022	0
0	6525	1219.41986592223	1
0	6528	1220.06929212753	0
0	6545	1223.147154001469	1
0	6547	1224.402921261199	0
0	6569	1226.849806502344	1
0	6571	1227.617420226067	0
0	6603	1231.154086483164	1
0	6608	1232.20738977138	2
0	6610	1232.399319459132	3
0	6611	1232.564314980494	2
0	6620	1233.121065307326	1
0	6628	1234.213767284143	0
0	6654	1235.99678489337	1
0	6659	1236.400800526352	0
0	6677	1240.508341171186	1
0	6682	1242.419992976823	2
0	6686	1243.494089422611	3
0	6687	1243.530711644055	2
0	6693	1243.548356331099	3
0	6696	1243.599233633478	4
0	6697	1244.61742645575	3
0	6704	1244.964141629098	4
0	6706	1245.531404799409	5
0	6711	1245.584185437877	4
0	6716	1246.032729866649	3
0	6723	1246.514074847027	4
0	6724	1246.702801347105	3
0	6731	1247.171618969504	4
0	6732	1247.25742808607	3
0	6737	1247.338546464027	2
0	6743	1248.307268069809	1
0	6748	1248.396086261619	0
0	6756	1249.5861408512	1
0	6758	1249.591746570218	2
0	6760	1249.717550065072	3
0	6762	1251.635110221585	2
0	6767	1251.783379095143	1
0	6771	1251.998429594427	2
0	6773	1252.16821705889	3
0	6776	1252.728703898834	2
0	6782	1253.895427090449	3
0	6786	1254.694870560261	4
0	6790	1255.033407489905	3
0	6795	1255.2728606497	2
0	6799	1256.68856412487	3
0	6802	1257.368214654495	2
0	6806	1258.198788415703	3
0	6812	1260.571948392378	4
0	6816	1263.308345471556	3
0	6822	1263.757707837837	2
0	6827	1264.386026665048	1
0	6833	1265.887996719589	0
0	6857	1269.308426563649	1
0	6858	1269.615264340607	0
0	6877	1272.933356986757	1
0	6880	1274.425136390534	0
0	6905	1276.91545872193	1
0	6907	1276.983775078197	2
0	6909	1277.612065762593	3
0	6910	1277.616869726366	2
0	6916	1278.236191578438	3
0	6920	1278.474854850451	4
0	6922	1278.509711382832	5
0	6925	1279.925631234571	4
0	6932	1280.427628502538	3
0	6938	1281.119639809597	2
0	6945	1281.589217028166	1
0	6950	1284.423129572553	0
0	6954	1285.52107629521	1
0	6956	1286.234999186339	2
0	6959	1287.319409025293	1
0	6967	1288.690719121085	2
0	6968	1288.907217659458	1
0	6974	1290.2929918998	2
0	6978	1291.411129006203	3
0	6979	1291.9921800317	2
0	6985	1293.207147991072	1
0	6990	1293.311818301827	0
0	7006	1293.85910546069	1
0	7009	1294.331941604324	2
0	7010	1294.44312276751	1
0	7014	1294.958138545425	2
0	7018	1300.021884425805	1
0	7025	1300.758525228846	2
0	7026	1301.748910746994	1
0	7034	1302.687712317532	2
0	7035	1303.07200050167	1
0	7039	1303.103573291544	2
0	7045	1303.90181853112	3
0	7047	1304.161220265052	4
0	7048	1304.365814818983	3
0	7054	1305.786824894687	2
0	7059	1306.1439515326	1
0	7063	1306.195193831402	2
0	7068	1308.879762232916	1
0	7073	1309.471946412625	0
0	7077	1312.096662255514	1
0	7079	1313.323625863372	2
0	7082	1315.804480983804	1
0	7091	1317.023193767857	2
0	7092	1317.674891446884	1
0	7098	1317.878831274628	0
0	7111	1318.698437801638	1
0	7116	1320.350245393415	2
0	7117	1320.403278337899	1
0	7122	1320.608073355994	0
0	7154	1325.045791836754	1
0	7157	1325.664696211352	0
0	7177	1332.806650174235	1
0	7180	1333.802481584555	0
0	7189	1334.256248216657	1
0	7194	1336.109437378688	0
0	7210	1338.808229617259	1
0	7211	1339.616472086475	0
0	7218	1340.06899992529	1
0	7220	1340.766177718398	2
0	7222	1340.837328489478	3
0	7223	1341.690663430442	2
0	7229	1342.887713245722	1
0	7235	1343.269001494698	0
0	7253	1345.480856684958	1
0	7258	1346.491578667235	2
0	7259	1347.474897885439	1
0	7265	1347.976397467939	0
0	7296	1351.491010336474	1
0	7299	1352.814909088888	0
0	7307	1353.070363483265	1
0	7310	1354.898813230032	0
0	7333	1356.70489530075	1
0	7336	1359.066205431118	0
0	7348	1360.066585346638	1
0	7349	1360.085458490745	0
0	7355	1360.177432296737	1
0	7357	1360.641955143903	2
0	7358	1360.933511078925	1
0	7362	1361.759357223997	2
0	7366	1362.530039341532	1
0	7371	1362.559933885994	0
0	7375	1363.096282481604	1
0	7383	1365.602364019898	2
0	7385	1366.865637271974	1
0	7392	1367.761597162404	0
0	7399	1368.661879998545	1
0	7400	1368.714983718031	0
0	7419	1371.482061267149	1
0	7423	1373.454140467261	2
0	7424	1373.511282284752	1
0	7429	1373.83470296943	0
0	7446	1374.937253997528	1
0	7450	1377.598715405459	0
0	7469	1378.498458574455	1
0	7473	1379.737106780604	2
0	7475	1380.042909534083	1
0	7480	1380.492899030727	0
0	7493	1382.110491386432	1
0	7497	1382.593954787612	0
0	7512	1384.446870468482	1
0	7516	1385.928993055921	0
0	7532	1387.262860758835	1
0	7533	1387.543377180438	0
0	7540	1388.101447449123	1
0	7541	1389.110679795627	0
0	7547	1389.275760842083	1
0	7549	1389.893859779922	2
0	7551	1391.185657670482	1
0	7556	1391.60440849908	0
0	7569	1393.028495448704	1
0	7572	1393.275729362911	0
0	7596	1394.63746475553	1
0	7600	1395.969272359134	2
0	7605	1399.341996570939	1
0	7611	1399.436972555493	2
0	7612	1399.798942774018	1
0	7621	1404.048008250201	0
0	7630	1405.410772601433	1
0	7631	1405.470979082143	0
0	7661	1411.786302774608	1
0	7662	1412.227509807024	0
0	7673	1413.645186784748	1
0	7677	1414.2884186239	2
0	7683	1415.706779561748	3
0	7685	1416.790051239322	2
0	7693	1417.61594031631	1
0	7699	1418.273943753797	0
0	7724	1419.89141610556	1
0	7726	1420.174855100792	2
0	7732	1422.109559658417	1
0	7737	1422.847681525625	0
0	7743	1423.023586588644	1
0	7745	1423.297528246511	2
0	7746	1423.574920359891	1
0	7758	1425.193857099345	2
0	7759	1426.559496410015	1
0	7765	1427.518640869723	2
0	7766	1428.338911846987	1
0	7770	1428.708537529349	2
0	7773	1429.326686950459	1
0	7778	1430.984059204414	0
0	7784	1431.217543277585	1
0	7785	1431.361364203065	0
0	7796	1432.551104374413	1
0	7797	1433.18971426675	0
0	7822	1435.796022114303	1
0	7823	1436.719666876938	0
0	7829	1437.179948366089	1
0	7832	1437.88942329995	2
0	7834	1438.075059598803	1
0	7839	1438.283903691485	0
0	7862	1441.338104546841	1
0	7865	1442.316414062514	0
0	7878	1443.053779151739	1
0	7879	1443.075245906921	0
0	7889	1444.484404080961	1
0	7892	1444.565439704259	0
0	7918	1448.541746194902	1
0	7919	1449.24436153102	0
0	7928	1449.300855934008	1
0	7933	1450.338815550857	2
0	7934	1452.317030653302	1
0	7940	1452.686831599616	0
0	7946	1452.980839738328	1
0	7947	1453.256468548486	0
0	7961	1454.854207740993	1
0	7962	1455.08112777265	0
0	7975	1456.254095532445	1
0	7978	1457.216672024843	0
0	7987	1457.7930921646	1
0	7993	1458.888889922803	0
0	7997	1458.914792015133	1
0	7999	1458.960137140739	2
0	8007	1461.708730047133	3
0	8008	1461.972548662166	2
0	8013	1463.288272752184	1
0	8017	1463.958953509169	2
0	8019	1464.62652270936	3
0	8021	1465.585191321903	4
0	8023	1465.648020455908	5
0	8027	1465.762578214102	6
0	8028	1465.803310234551	5
0	8032	1466.054967950631	6
0	8038	1468.129412502904	5
0	8043	1468.157622690272	4
0	8047	1468.250085255049	5
0	8051	1469.558029169538	6
0	8053	1470.004398467031	7
0	8056	1472.779832375435	6
0	8062	1474.431325958457	7
0	8064	1475.075060194429	8
0	8067	1476.043806579835	7
0	8072	1477.622445295458	6
0	8078	1477.929911902282	7
0	8080	1478.701203645841	6
0	8086	1478.862707292314	7
0	8087	1479.85030474649	6
0	8091	1480.370241587064	7
0	8096	1483.127877774417	6
0	8101	1484.4836352834	5
0	8105	1485.77262319997	6
0	8108	1486.022869652484	5
0	8112	1486.378611524896	6
0	8116	1487.292168528131	5
0	8121	1488.531594613698	4
0	8125	1489.011767086183	5
0	8129	1490.257011550889	4
0	8134	1490.294275432202	3
0	8140	1491.617820950838	4
0	8142	1491.735615955396	5
0	8144	1492.367627948145	6
0	8148	1493.415753848863	5
0	8153	1493.464367399463	4
0	8160	1493.826853913311	3
0	8165	1494.492701128921	2
0	8172	1495.411032714015	3
0	8174	1495.990137617196	4
0	8175	1496.426309690937	3
0	8180	1496.554080588874	2
0	8185	1498.850277883534	1
0	8192	1500.232920771426	0
0	8203	1500.566860731344	1
0	8206	1500.706951296469	2
0	8207	1502.117846751708	1
0	8212	1502.154158274435	0
0	8226	1503.51231918855	1
0	8231	1504.850172165194	2
0	8233	1505.135740927131	1
0	8243	1506.45079154553	2
0	8245	1506.498458845384	3
0	8247	1506.811855420784	4
0	8248	1507.941828801393	3
0	8254	1508.316920216256	2
0	8260	1509.500880428981	1
0	8265	1510.976839311263	0
0	8271	1511.149939614147	1
0	8273	1511.415694404134	2
0	8274	1511.570791360713	1
0	8278	1513.127870495921	2
0	8280	1515.810489381847	3
0	8282	1515.900507050082	4
0	8284	1516.111478917508	5
0	8290	1516.82826163267	6
0	8293	1517.133313767091	5
0	8299	1517.450183202636	4
0	8304	1517.482718662517	3
0	8310	1518.61187687213	4
0	8312	1519.139002340043	5
0	8314	1519.471530766946	6
0	8315	1519.798231016167	5
0	8321	1520.438183725896	6
0	8325	1520.676462760148	7
0	8327	1521.666618043312	6
0	8332	1522.156554200797	5
0	8338	1523.512214718021	4
0	8343	1523.616965586036	3
0	8348	1525.110749895763	2
0	8355	1526.365768262089	1
0	8359	1526.397093694525	2
0	8362	1528.004538626885	1
0	8369	1528.704205549977	0
0	8373	1529.632337411844	1
0	8376	1531.842506834527	0
0	8387	1534.837812040907	1
0	8389	1535.356834057917	2
0	8390	1535.367437458143	1
0	8396	1536.905556257664	0
0	8414	1538.607996101099	1
0	8415	1538.720220011812	0
0	8423	1539.728452531832	1
0	8424	1540.550575025408	0
0	8430	1540.722177369823	1
0	8431	1540.865054590931	0
0	8468	1544.889445873738	1
0	8473	1546.342304115838	0
0	8486	1547.100250221417	1
0	8487	1547.448592578265	0
0	8513	1553.951627929973	1
0	8515	1554.109811461834	2
0	8517	1554.743943198253	1
0	8522	1554.801201871754	0
0	8535	1555.970941383487	1
0	8540	1556.897845492214	0
0	8544	1557.32233402296	1
0	8546	1558.569839421338	2
0	8551	1560.001129765072	1
0	8556	1561.363157331932	0
0	8562	1562.238967859993	1
0	8565	1564.345735231366	0
0	8603	1572.675085765737	1
0	8604	1573.126947106293	0
0	8614	1574.142172677443	1
0	8616	1574.693073389292	2
0	8618	1576.689840193346	3
0	8620	1578.026390883265	4
0	8624	1578.806911729533	5
0	8625	1579.106453272634	4
0	8631	1580.82238969645	3
0	8636	1581.239546629232	2
0	8644	1581.633959913327	1
0	8649	1582.260061761396	0
0	8672	1584.755752630018	1
0	8677	1586.310610075912	0
0	8685	1586.965723427969	1
0	8688	1587.202546061185	0
0	8707	1588.644640481038	1
0	8709	1589.242620797181	2
0	8713	1589.648362585638	3
0	8716	1591.162505079478	4
0	8722	1592.612578961787	3
0	8728	1592.68851083216	4
0	8730	1593.059961657317	3
0	8735	1593.18023531763	2
0	8743	1594.466342300799	3
0	8744	1594.557350458214	2
0	8749	1594.606905865909	1
0	8754	1595.449134115372	0
0	8758	1596.036673737192	1
0	8760	1596.076289961342	2
0	8767	1597.998601198396	1
0	8774	1598.559751900705	0
0	8803	1600.009323491587	1
0	8806	1602.113018041728	0
0	8812	1602.204918662691	1
0	8813	1602.859725608829	0
0	8819	1602.968457176551	1
0	8822	1603.671174882228	0
0	8828	1604.645452353997	1
0	8830	1605.783569428952	0
0	8853	1608.00369158928	1
0	8856	1608.510693958611	0
0	8871	1614.108041759342	1
0	8875	1614.483390920175	2
0	8877	1615.316905718613	1
0	8885	1616.572136376544	0
0	8903	1618.827982379389	1
0	8906	1619.870401042975	0
0	8941	1625.78400594712	1
0	8945	1627.294495718926	0
0	8951	1627.81020781174	1
0	8954	1628.271398197064	0
0	8965	1630.495158583356	1
0	8966	1630.912111752896	0
0	8972	1630.935825581733	1
0	8973	1631.038747572223	0
0	8992	1634.290614176162	1
0	8998	1634.937522456394	2
0	8999	1636.085657737929	1
0	9005	1636.111458416679	2
0	9006	1636.180035826756	1
0	9016	1636.433583057212	0
0	9028	1637.986967325013	1
0	9031	1638.806086271612	0
0	9055	1645.576046446382	1
0	9057	1645.584082457925	2
0	9059	1646.122867517607	3
0	9067	1650.057460997111	4
0	9069	1650.140762749633	5
0	9070	1650.252548377612	4
0	9076	1650.403401446236	5
0	9077	1650.600607191971	4
0	9082	1651.15990626241	3
0	9089	1652.583202975077	2
0	9097	1653.14479352328	3
0	9099	1653.63816521962	4
0	9102	1654.620819295857	3
0	9108	1654.729475138253	2
0	9114	1655.069880818291	3
0	9115	1655.64456424155	2
0	9122	1657.446768027741	1
0	9128	1657.761415900731	0
0	9156	1664.295260289051	1
0	9159	1664.744153585838	0
0	9165	1664.793066134535	1
0	9169	1665.285819153063	0
0	9186	1668.845860818111	1
0	9190	1670.57504756095	0
0	9196	1670.641667734426	1
0	9197	1670.740705900653	0
0	9201	1671.44204237672	1
0	9208	1672.57668182836	0
0	9219	1673.23397101597	1
0	9221	1674.15921774047	0
0	9242	1676.106243080918	1
0	9243	1676.210162443481	0
0	9261	1677.982332866248	1
0	9265	1680.213434876382	2
0	9267	1680.287914364853	3
0	9268	1681.980874742056	2
0	9273	1682.226787227442	1
0	9278	1683.022894741259	0
0	9287	1683.204954856814	1
0	9289	1684.297768470227	2
0	9293	1686.990649022183	1
0	9300	1691.32447921068	0
0	9307	1693.869472188889	1
0	9309	1694.663627187969	2
0	9311	1695.345308920078	3
0	9313	1695.672400234326	2
0	9319	1697.36823931063	1
0	9325	1697.811591690893	0
0	9331	1698.363714995103	1
0	9332	1698.543800493809	0
0	9336	1698.568070834348	1
0	9340	1698.887630383188	2
0	9342	1699.921363076618	3
0	9344	1701.54856482673	4
0	9347	1703.866210593232	3
0	9351	1704.002138459088	4
0	9353	1704.43029843743	5
0	9357	1707.097834793492	6
0	9359	1707.280032748839	7
0	9361	1708.114824275244	8
0	9363	1708.384373867336	9
0	9367	1710.443163032228	10
0	9368	1711.23531722245	9
0	9375	1712.129026802481	8
0	9379	1712.681571960194	9
0	9381	1712.712274095824	10
0	9384	1713.52394304846	9
0	9389	1715.531111180522	8
0	9394	1717.320588011878	7
0	9403	1719.307161683888	6
0	9407	1719.310281171445	7
0	9409	1719.355768544265	8
0	9413	1720.49855224835	9
0	9415	1720.752182381526	8
0	9420	1721.286846914139	7
0	9425	1723.272771488674	6
0	9430	1725.096075847677	5
0	9436	1725.245562771676	6
0	9437	1726.037611286551	5
0	9441	1726.86912663204	6
0	9447	1727.458989580518	7
0	9448	1728.252304896057	6
0	9453	1728.850120413441	5
0	9457	1729.483558362342	6
0	9460	1730.146009746845	5
0	9466	1730.740921252838	4
0	9471	1730.775319846354	3
0	9477	1732.023711704459	4
0	9478	1732.056637827916	3
0	9484	1734.548519618181	2
0	9490	1734.88200353197	3
0	9492	1735.627453741081	4
0	9493	1735.671895529858	3
0	9500	1738.414799727718	2
0	9507	1740.452851704976	1
0	9511	1740.782959744073	2
0	9516	1742.723559369225	1
0	9522	1742.956876960762	0
0	9540	1744.953995023595	1
0	9546	1747.444979380269	2
0	9547	1748.418792336781	1
0	9552	1748.450027836293	0
0	9559	1749.973260378122	1
0	9561	1750.092504253458	2
0	9562	1752.598464638406	1
0	9567	1753.053201072678	0
0	9571	1753.203520506199	1
0	9578	1753.962071398526	2
0	9580	1754.653041144018	1
0	9586	1754.748136930696	2
0	9591	1755.789965935656	1
0	9596	1756.271798149726	0
0	9614	1757.942792034693	1
0	9616	1758.104494488207	2
0	9617	1758.400796560706	1
0	9622	1758.503684477737	0
0	9638	1762.536619347367	1
0	9640	1763.177871799539	0
0	9659	1765.052067888184	1
0	9661	1766.183449359487	0
0	9671	1766.740620674333	1
0	9673	1767.34273503668	2
0	9675	1768.048863331443	3
0	9680	1772.18395792559	2
0	9691	1773.290060863656	1
0	9696	1773.477232933374	0
0	9713	1774.91332537983	1
0	9715	1775.856528018956	0
0	9738	1782.614040969162	1
0	9740	1783.297748235179	2
0	9743	1784.939843989064	1
0	9749	1785.546225473979	0
0	9755	1785.672659167855	1
0	9758	1786.514730812201	0
0	9762	1787.288224595181	1
0	9765	1788.163718117598	0
0	9777	1790.609470248477	1
0	9778	1790.709101815634	0
0	9787	1791.639764626408	1
0	9791	1791.728567390721	2
0	9796	1793.397887623315	1
0	9802	1793.718608178956	0
0	9808	1794.018874576522	1
0	9809	1794.449668328686	0
0	9825	1796.84778438106	1
0	9827	1796.891889098147	2
0	9830	1797.51424401844	1
0	9839	1798.961491528209	0
0	9882	1802.496522285499	1
0	9884	1802.538405012972	2
0	9885	1802.78307916062	1
0	9891	1802.901970972385	2
0	9895	1803.939765057636	1
0	9900	1804.250264109034	0
0	9920	1806.224789295461	1
0	9922	1806.32934679502	2
0	9923	1806.388693189937	1
0	9928	1807.008307054702	0
0	9932	1807.458549963066	1
0	9936	1808.061823017459	0
0	9942	1808.563708186305	1
0	9946	1809.885766575575	0
0	9952	1809.918913430029	1
0	9955	1810.430182040775	0
0	9983	1814.161652256015	1
0	9987	1818.835819113266	2
0	9989	1820.142681945295	3
0	9994	1820.735182257577	4
0	9997	1822.31079368746	3
0	10002	1822.471545967614	2
0	10008	1822.639143358207	3
0	10012	1823.91866238171	2
0	10018	1824.725231981518	1
0	10024	1825.454901279926	2
0	10031	1827.696221608552	3
0	10032	1828.350073366246	2
0	10037	1828.580696854149	1
0	10043	1828.662251563424	2
0	10046	1828.688311807044	3
0	10047	1828.908376507335	2
0	10052	1829.170312729328	1
0	10058	1829.851357674692	2
0	10063	1831.080450027596	1
0	10072	1832.026260358545	0
0	10080	1833.775367210601	1
0	10082	1835.292781411359	0
0	10098	1835.876669348066	1
0	10100	1836.663513507017	2
0	10102	1837.862034954294	3
0	10105	1838.196605936469	2
0	10110	1838.649731368974	1
0	10116	1838.675154955492	2
0	10118	1839.314818038129	1
0	10124	1840.201066082434	0
0	10128	1843.394134490466	1
0	10130	1843.68677703604	2
0	10133	1844.183491647667	1
0	10140	1845.341813405234	0
0	10157	1847.295194038254	1
0	10158	1847.402863776068	0
0	10162	1847.606490604032	1
0	10164	1848.13811843425	2
0	10167	1848.895464252372	1
0	10171	1849.010053385597	2
0	10175	1850.055003302361	3
0	10177	1850.628477860575	2
0	10182	1851.006857551436	1
0	10186	1851.097837876688	2
0	10190	1851.401540411705	1
0	10194	1852.137620675638	2
0	10197	1855.002325569512	1
0	10203	1855.963092936563	2
0	10204	1856.437133500727	1
0	10211	1857.855599835531	0
0	10235	1859.650955133565	1
0	10243	1860.840196974674	2
0	10244	1861.422623606984	1
0	10252	1862.502096856791	0
0	10271	1863.668169193482	1
0	10272	1863.740213615178	0
0	10289	1865.46833118476	1
0	10291	1867.652751980173	0
0	10300	1869.122176713602	1
0	10304	1870.045062246848	0
0	10326	1874.46311174742	1
0	10327	1874.930090354393	0
0	10335	1875.131628031601	1
0	10337	1875.525807410934	0
0	10349	1876.006982931277	1
0	10350	1876.082021079822	0
0	10356	1876.181299960304	1
0	10357	1876.402438585672	0
0	10363	1876.748485962997	1
0	10366	1878.143527014831	2
0	10368	1878.484734589435	1
0	10373	1879.741535798132	0
0	10379	1879.881947091466	1
0	10380	1880.471848117783	0
0	10398	1881.757479180353	1
0	10399	1882.291977767495	0
0	10408	1882.425707748848	1
0	10412	1882.634111122285	2
0	10414	1882.708964716061	3
0	10416	1882.779414288118	4
0	10418	1883.284015043222	5
0	10423	1884.037660610385	4
0	10428	1884.400265733757	3
0	10434	1885.645390571381	4
0	10437	1885.828982066838	5
0	10439	1886.245090285633	6
0	10444	1887.294735094512	5
0	10449	1887.349413193512	4
0	10459	1890.709627287034	3
0	10464	1891.30868124861	2
0	10470	1891.470558107028	3
0	10472	1891.942043345998	2
0	10478	1893.365343552516	1
0	10483	1893.522049904337	0
0	10487	1895.210448287156	1
0	10496	1897.218884195594	0
0	10500	1897.476041118729	1
0	10502	1898.724888839288	2
0	10504	1899.302831413951	3
0	10507	1900.072803856462	2
0	10511	1902.356595970136	3
0	10517	1904.033602751398	2
0	10522	1904.466273658743	1
0	10527	1906.01687467483	0
0	10544	1908.546379497936	1
0	10545	1909.110398003856	0
0	10589	1917.804072482336	1
0	10591	1918.6506809573	2
0	10594	1918.952954401529	1
0	10599	1919.106175699459	0
0	10605	1919.149346914788	1
0	10606	1919.255936187795	0
0	10623	1921.708092331164	1
0	10625	1923.522609194872	0
0	10636	1924.104182422748	1
0	10640	1924.827298291309	0
0	10669	1931.786144724468	1
0	10673	1934.926918464153	0
0	10693	1937.952094249315	1
0	10698	1938.836521818902	2
0	10699	1938.852986973772	1
0	10706	1939.5077443465	0
0	10733	1942.043046731025	1
0	10735	1943.156872021467	0
0	10746	1944.221330265858	1
0	10748	1944.430422189497	2
0	10749	1944.504727161499	1
0	10756	1944.744261309793	2
0	10758	1945.352154836483	1
0	10764	1945.884226814228	2
0	10766	1945.895920586234	3
0	10767	1946.213948141893	2
0	10776	1947.801980462422	1
0	10781	1947.851929567825	0
0	10785	1948.639088844625	1
0	10789	1948.911515900763	2
0	10790	1949.122579333404	1
0	10794	1949.626254709249	2
0	10798	1951.858244264607	3
0	10799	1952.544458868671	2
0	10805	1953.051680741341	3
0	10811	1953.392399727173	4
0	10812	1953.625428134207	3
0	10817	1953.993934659511	2
0	10822	1954.527224236917	1
0	10830	1955.317086420675	2
0	10833	1955.443017163749	3
0	10836	1956.745181250161	4
0	10837	1956.785788078733	3
0	10843	1956.988241963687	4
0	10844	1958.485434043041	3
0	10850	1958.660029306911	4
0	10852	1959.113029577145	5
0	10855	1960.071430790848	4
0	10860	1960.108464063988	3
0	10866	1960.236489513138	4
0	10867	1960.41991605432	3
0	10876	1961.917990693941	4
0	10877	1962.339604642277	3
0	10885	1963.849790595299	4
0	10886	1964.406198520664	3
0	10891	1965.034692451726	2
0	10896	1965.041034942121	1
0	10901	1965.927732797777	0
0	10907	1967.375346678892	1
0	10909	1968.909298447014	2
0	10910	1970.270275078362	1
0	10915	1972.909851394704	0
0	10919	1973.630378529266	1
0	10923	1974.632619667482	2
0	10924	1975.028895034544	1
0	10928	1975.648499131024	2
0	10931	1977.396199082264	1
0	10935	1978.078269619988	2
0	10939	1979.865433651005	3
0	10944	1981.757607771239	2
0	10949	1982.383253905426	1
0	10954	1982.60543377138	0
0	10960	1982.978031553345	1
0	10961	1983.04314300903	0
0	10972	1985.027664117074	1
0	10973	1985.4651654895	0
0	10979	1986.018599974407	1
0	10981	1986.296515077472	0
0	11008	1987.647060419252	1
0	11011	1989.971461491134	0
0	11020	1990.507170278973	1
0	11024	1990.69665589873	2
0	11025	1991.229165162695	1
0	11033	1992.833954241495	2
0	11034	1992.99774277457	1
0	11039	1994.846517101755	0
0	11054	1996.823049963883	1
0	11055	1996.991903414222	0
0	11061	1997.145087949797	1
0	11062	1997.746794715748	0
0	11098	2001.284143466375	1
0	11100	2001.555160133206	2
0	11104	2004.767086695036	1
0	11113	2005.318839866677	0
0	11125	2005.667340635102	1
0	11131	2006.810786271032	0
0	11145	2008.013248237746	1
0	11148	2009.376878562541	0
0	11156	2009.648608392498	1
0	11158	2010.269774963845	2
0	11159	2010.439003354172	1
0	11165	2010.842430250156	0
0	11179	2014.790285167048	1
0	11181	2014.853958925734	2
0	11185	2015.732080712212	1
0	11192	2018.474026871377	0
0	11205	2020.73083617033	1
0	11208	2021.277916304113	2
0	11209	2021.433674508464	1
0	11215	2021.905691949053	2
0	11218	2022.938809661381	3
0	11219	2023.514267602162	2
0	11225	2023.960942233475	1
0	11232	2024.124297498693	2
0	11234	2024.456367507498	3
0	11235	2025.225313748563	2
0	11242	2026.722606528225	3
0	11243	2027.90544870248	2
0	11248	2027.940066186382	1
0	11254	2028.1048025288	2
0	11255	2028.15531953696	1
0	11264	2030.160313010431	2
0	11265	2030.228251286246	1
0	11274	2031.465645103724	2
0	11275	2032.312027812898	1
0	11281	2032.719812632277	2
0	11282	2033.177697537867	1
0	11287	2034.046370330533	0
0	11325	2036.765512374727	1
0	11333	2038.207183636775	0
0	11344	2039.412392106635	1
0	11347	2041.822502505435	0
0	11358	2042.382264503712	1
0	11360	2042.967069277197	0
0	11366	2042.978202269405	1
0	11370	2043.41246245092	2
0	11371	2043.606657316308	1
0	11376	2043.803144435346	0
0	11382	2044.41162013377	1
0	11389	2046.064352656495	0
0	11407	2047.324692118334	1
0	11409	2047.863898495133	0
0	11417	2048.408674841233	1
0	11418	2049.145717123991	0
0	11422	2050.12859707129	1
0	11425	2051.654546161171	0
0	11457	2057.665317535734	1
0	11458	2057.6735699868	0
0	11464	2057.709651149914	1
0	11466	2059.459260220132	0
0	11475	2059.95721803279	1
0	11479	2064.027689174574	0
0	11492	2064.693103604297	1
0	11496	2065.409372649674	2
0	11498	2066.046958615159	3
0	11503	2066.688578741781	2
0	11509	2066.778948048969	3
0	11510	2067.294767838901	2
0	11515	2067.488211769726	1
0	11519	2068.049910277393	2
0	11521	2069.112251124044	3
0	11526	2071.618065361103	2
0	11532	2071.824392525126	3
0	11535	2072.236317524746	2
0	11542	2072.485986242466	3
0	11544	2072.874125591541	4
0	11545	2073.397434488308	3
0	11551	2073.449985453956	4
0	11553	2074.010767719204	3
0	11558	2074.323176484034	2
0	11563	2074.61329857911	1
0	11570	2075.620531490039	0
0	11576	2076.167566170738	1
0	11581	2076.849418190887	2
0	11582	2077.529713205091	1
0	11588	2077.835771507864	2
0	11589	2078.404754914962	1
0	11595	2080.223648420675	2
0	11599	2080.999402168729	3
0	11604	2082.547466728009	2
0	11611	2083.450362683344	1
0	11616	2085.327968958118	0
0	11620	2085.634578109122	1
0	11622	2086.088316114899	2
0	11630	2087.997680972354	3
0	11631	2088.382697384836	2
0	11637	2089.990211670683	1
0	11642	2092.026053565526	0
0	11676	2096.097981823966	1
0	11677	2096.388040902519	0
0	11694	2098.255095697785	1
0	11696	2098.638510484452	2
0	11703	2100.14055545825	1
0	11708	2100.217081397365	0
0	11716	2100.848528324887	1
0	11718	2102.483616545069	2
0	11719	2102.503035492358	1
0	11726	2102.741580863791	2
0	11727	2103.556057512623	1
0	11732	2104.557043528375	0
0	11736	2105.223477213589	1
0	11741	2106.299641471874	0
0	11766	2108.782716592261	1
0	11770	2109.707319963511	0
0	11786	2111.635300271808	1
0	11787	2112.154432908513	0
0	11794	2112.491541466326	1
0	11798	2114.183824543652	0
0	11806	2115.098346171944	1
0	11810	2115.30487295189	2
0	11811	2116.525470620117	1
0	11816	2117.152627780312	0
0	11837	2117.977681971929	1
0	11838	2118.032264992358	0
0	11854	2120.476588121384	1
0	11856	2120.797649790772	2
0	11860	2121.192123710783	1
0	11866	2121.406034007192	2
0	11872	2123.45153262863	3
0	11873	2123.555447246978	2
0	11879	2123.699526174671	3
0	11880	2123.889276902748	2
0	11887	2124.503800552726	3
0	11888	2124.675943340725	2
0	11893	2124.817269993253	1
0	11898	2124.924849979851	0
0	11917	2130.287451711014	1
0	11925	2133.565838602464	0
0	11939	2134.765952100742	1
0	11941	2135.977568653408	2
0	11944	2137.567975211869	1
0	11948	2137.843008681053	2
0	11953	2139.14818261365	1
0	11961	2140.087645534784	0
0	11989	2144.535606154715	1
0	11990	2144.561854515387	0
0	12001	2145.134234442977	1
0	12002	2145.205309340031	0
0	12061	2156.981396725294	1
0	12062	2158.201973782316	0
0	12085	2163.195705662694	1
0	12086	2163.37435831542	0
0	12112	2167.040647589528	1
0	12113	2167.452136595817	0
0	12125	2169.721603760205	1
0	12126	2169.795663576287	0
0	12158	2174.043879304656	1
0	12159	2174.094222406192	0
0	12165	2174.432115284114	1
0	12166	2174.560924141923	0
0	12184	2176.965301622248	1
0	12188	2178.739415316754	2
0	12189	2179.738344966952	1
0	12194	2180.273258990792	0
0	12205	2180.984332971609	1
0	12207	2181.302655652817	2
0	12208	2181.639232705635	1
0	12213	2182.427400271182	0
0	12217	2182.521620806892	1
0	12221	2183.203727127426	0
0	12237	2184.523300967326	1
0	12240	2184.981318553321	0
0	12246	2188.369995879297	1
0	12247	2189.438931212763	0
0	12259	2194.816957045491	1
0	12262	2197.104253630758	0
0	12275	2198.371622814772	1
0	12278	2199.499672443406	0
0	12294	2201.090945319313	1
0	12295	2201.25238047024	0
0	12311	2203.641629902691	1
0	12313	2203.81200745174	2
0	12319	2205.240720273373	3
0	12321	2205.493942790907	2
0	12325	2205.889840282773	3
0	12328	2207.198799839624	2
0	12334	2207.893018529754	1
0	12338	2208.358308178503	2
0	12341	2209.283800060959	1
0	12345	2209.341301480929	2
0	12349	2211.184573049149	3
0	12357	2213.295801145669	4
0	12359	2213.447918567051	5
0	12361	2214.130374175294	4
0	12366	2215.356786218674	3
0	12371	2216.291899361045	2
0	12378	2217.582948417824	3
0	12380	2218.339730955991	2
0	12388	2218.945773225309	3
0	12389	2218.956858865849	2
0	12394	2219.391319206788	1
0	12399	2219.906848051312	0
0	12406	2221.77999384115	1
0	12410	2223.662908556446	0
0	12433	2226.687210556176	1
0	12435	2229.903065699956	0
0	12492	2237.682151686436	1
0	12494	2238.581850207008	0
0	12639	2270.944999379365	1
0	12640	2271.353760059611	0
0	12675	2275.848334034363	1
0	12677	2276.003479826359	2
0	12680	2276.395920497806	1
0	12687	2277.425340287285	2
0	12690	2277.65159269004	1
0	12697	2278.998274859862	2
0	12698	2280.079080878761	1
0	12703	2280.908891779991	0
0	12722	2281.642460654945	1
0	12726	2283.289579631962	0
0	12734	2284.307450752175	1
0	12735	2284.838621740152	0
0	12760	2287.614392891172	1
0	12763	2289.182784965717	0
0	12775	2293.019936300643	1
0	12777	2293.630236035673	2
0	12779	2294.556243782718	3
0	12783	2295.568205332909	2
0	12788	2295.955326914908	1
0	12793	2296.263631759158	0
0	12816	2300.555954682748	1
0	12818	2300.862831525015	2
0	12823	2302.519648812038	1
0	12829	2304.461379042141	0
0	12856	2310.469911534245	1
0	12858	2310.947608651938	0
0	12875	2313.401743476523	1
0	12877	2314.615512597352	2
0	12878	2314.96796237719	1
0	12883	2315.368496401655	0
0	12899	2316.889190811157	1
0	12901	2317.101468481365	2
0	12905	2318.294512760377	1
0	12909	2319.576499058789	2
0	12913	2319.693740285629	3
0	12916	2320.399241403112	2
0	12922	2320.706016528496	3
0	12923	2320.725575557893	2
0	12927	2320.950609823621	3
0	12929	2321.952515972782	4
0	12931	2323.013576574604	5
0	12935	2324.044297751154	6
0	12938	2324.534696565337	5
0	12944	2325.267004707832	6
0	12946	2325.730074905328	7
0	12947	2325.781964269331	6
0	12952	2326.340259607052	5
0	12957	2327.009555321769	4
0	12965	2329.428383691458	5
0	12966	2329.600469284788	4
0	12973	2331.225092935497	3
0	12978	2331.824122214501	2
0	12982	2333.046920466689	3
0	12984	2334.000313396296	4
0	12988	2335.224000046475	5
0	12989	2335.314205557325	4
0	12997	2336.946237896654	5
0	12998	2338.375294195316	4
0	13002	2339.714786162739	5
0	13006	2340.793945893643	6
0	13008	2340.989044120562	7
0	13010	2341.458511701759	6
0	13015	2341.700430721663	5
0	13022	2342.604790961646	6
0	13025	2343.582289765282	7
0	13026	2344.034400502554	6
0	13031	2344.117455224771	5
0	13036	2344.595064261402	4
0	13041	2346.604940698015	3
0	13049	2347.531081838637	2
0	13054	2347.724564653254	1
0	13059	2347.922202949861	0
0	13074	2349.894716893132	1
0	13075	2350.237119599954	0
0	13083	2351.556631904615	1
0	13085	2352.105233893124	2
0	13086	2353.210069939764	1
0	13091	2353.94938234043	0
0	13103	2355.141071600115	1
0	13105	2355.380302737159	2
0	13107	2356.170901778617	1
0	13112	2356.292780848491	0
0	13116	2357.334554488672	1
0	13120	2357.786666939204	2
0	13122	2358.156408145031	3
0	13123	2358.388905768474	2
0	13130	2360.978760935242	1
0	13135	2361.011739952962	0
0	13158	2361.821878873177	1
0	13159	2362.011573690452	0
0	13178	2363.973443155954	1
0	13181	2364.554791672838	2
0	13183	2364.685026194224	1
0	13189	2366.528074352973	0
0	13252	2381.17557829984	1
0	13255	2381.80755155977	2
0	13258	2382.697655090439	3
0	13260	2383.468452077801	4
0	13263	2384.691995057872	3
0	13268	2384.817354487154	2
0	13275	2385.148432231154	1
0	13282	2385.988227049579	0
0	13366	2399.848739869539	1
0	13368	2400.682552307259	2
0	13370	2401.472107650149	3
0	13371	2401.633433987356	2
0	13376	2401.643633488992	1
0	13382	2403.360976701637	0
0	13401	2404.91411300282	1
0	13403	2405.178239271423	0
0	13494	2420.02938645636	1
0	13495	2420.314406251327	0
0	13501	2420.33798069091	1
0	13503	2420.38783036709	2
0	13506	2421.525581571825	1
0	13512	2422.007889805091	2
0	13513	2422.669859569404	1
0	13519	2423.933778102106	0
0	13533	2426.292727298178	1
0	13534	2426.460132273599	0
0	13546	2427.363676313949	1
0	13548	2427.426604583067	2
0	13549	2427.483722470008	1
0	13557	2429.526524935845	2
0	13560	2430.60148322695	1
0	13566	2431.010630187496	2
0	13568	2432.489454571181	1
0	13573	2432.600843712133	0
0	13581	2435.464472071515	1
0	13582	2435.521215490947	0
0	13598	2436.938429352338	1
0	13602	2436.991180744065	2
0	13605	2438.597870252198	1
0	13609	2439.523609757178	2
0	13613	2440.47193666481	3
0	13618	2441.894572581085	2
0	13625	2443.128682345233	1
0	13630	2443.281783009942	0
0	13651	2445.343305802211	1
0	13652	2446.620677979551	0
0	13681	2450.97897163457	1
0	13684	2453.808773301101	0
0	13691	2454.46142495283	1
0	13692	2454.815345810761	0
0	13707	2456.908308916283	1
0	13708	2457.014316709288	0
0	13729	2458.905122350875	1
0	13730	2459.095866774014	0
0	13736	2459.306836900858	1
0	13739	2459.745615480227	2
0	13740	2459.851130978024	1
0	13745	2459.860614471211	0
0	13766	2461.696472374272	1
0	13773	2464.944388499137	0
0	13785	2465.749552693798	1
0	13788	2466.246714981063	0
0	13860	2489.098413725255	1
0	13861	2489.891698398007	0
0	13867	2491.038979039714	1
0	13868	2491.549184675285	0
0	13872	2492.15386176161	1
0	13875	2493.457553575701	0
0	13883	2494.573533005508	1
0	13884	2494.935221880497	0
0	13888	2495.477977369473	1
0	13890	2497.304862809015	2
0	13893	2497.742416743002	1
0	13897	2498.74270657623	2
0	13899	2499.895510556955	3
0	13902	2499.963590939431	2
0	13906	2500.338121544572	3
0	13908	2500.547521678302	4
0	13911	2501.30319544098	3
0	13916	2501.62877356015	2
0	13921	2501.731173503363	1
0	13926	2502.270621607284	0
0	13930	2502.782535279297	1
0	13932	2502.798379472138	2
0	13939	2504.720052203982	3
0	13940	2504.734663995564	2
0	13945	2504.741539851055	1
0	13951	2505.140127061398	2
0	13954	2505.625847407763	1
0	13964	2507.74706591879	0
0	13986	2510.953200056215	1
0	13988	2512.037146676392	2
0	13991	2512.584930423077	3
0	13994	2513.907383949114	2
0	13999	2515.145586826524	1
0	14004	2515.519932601212	0
0	14008	2516.121368878211	1
0	14012	2516.968645732247	2
0	14018	2518.341788086028	3
0	14021	2520.125332081	2
0	14027	2520.621782807019	3
0	14029	2521.049413355118	4
0	14030	2521.494222677639	3
0	14036	2522.493145004662	4
0	14037	2523.135816808149	3
0	14041	2524.09756164754	4
0	14043	2524.233990459924	5
0	14045	2524.969169087763	6
0	14050	2525.866468835843	5
0	14056	2526.95241260763	6
0	14057	2527.314251677128	5
0	14061	2527.644045061542	6
0	14064	2530.763247189544	5
0	14068	2531.133295264677	6
0	14071	2531.355277422743	5
0	14080	2534.055502178356	6
0	14082	2534.35273511491	7
0	14084	2535.023457735478	8
0	14085	2535.781938196309	7
0	14092	2535.886478416114	6
0	14099	2540.12063536743	5
0	14103	2540.884865988807	6
0	14107	2543.226765592412	5
0	14112	2543.497277056194	4
0	14116	2543.747403796434	5
0	14120	2544.689440987354	6
0	14121	2545.015852409284	5
0	14127	2545.473315885441	4
0	14132	2546.132252613257	3
0	14139	2549.085986828939	2
0	14146	2549.520494247193	1
0	14150	2549.622929374748	2
0	14155	2551.151158392857	1
0	14160	2551.940115262602	0
0	14164	2551.957451763375	1
0	14166	2552.159669494713	2
0	14169	2553.212607643247	1
0	14179	2555.232282741678	2
0	14181	2555.973076897179	3
0	14182	2555.989220078568	2
0	14187	2557.80665826341	1
0	14191	2557.90902187567	2
0	14194	2558.558003679648	1
0	14198	2558.80986258222	2
0	14202	2559.55682737878	3
0	14203	2559.643752428666	2
0	14215	2562.315744122912	3
0	14216	2563.600733459814	2
0	14220	2564.913984655336	3
0	14222	2567.806668659709	4
0	14226	2570.256217538778	5
0	14227	2570.401702503757	4
0	14232	2571.202250267918	3
0	14239	2571.869829277416	2
0	14243	2573.489891881077	3
0	14247	2574.69320256281	4
0	14255	2576.645004159335	3
0	14260	2577.1827430595	2
0	14265	2578.164951372049	1
0	14270	2579.278667536824	0
0	14290	2583.037177489065	1
0	14295	2585.506489282751	2
0	14296	2585.528691630023	1
0	14302	2586.399726225919	0
0	14319	2587.354367880604	1
0	14320	2587.385253323983	0
0	14338	2589.936367475636	1
0	14343	2593.675276670674	2
0	14344	2595.077087048414	1
0	14351	2595.910851689244	2
0	14352	2596.170296550423	1
0	14361	2599.097042979267	2
0	14363	2599.161491288031	1
0	14368	2599.911181075014	0
0	14380	2601.281740048357	1
0	14381	2602.174814678879	0
0	14395	2603.23200989121	1
0	14396	2603.839911412355	0
0	14417	2606.714403449181	1
0	14419	2606.870692135219	2
0	14426	2607.323350969935	1
0	14432	2607.923932170795	2
0	14434	2608.394478204327	3
0	14438	2611.029897424891	4
0	14439	2611.516742515929	3
0	14445	2612.593607358764	2
0	14449	2613.168230643659	3
0	14453	2613.266230543856	4
0	14454	2614.19299941124	3
0	14460	2616.643617596532	4
0	14461	2616.953544122454	3
0	14465	2617.270121587231	4
0	14468	2619.167232128019	3
0	14476	2619.972280507742	4
0	14478	2620.511061118936	3
0	14484	2620.805411042587	4
0	14485	2620.808236549787	3
0	14489	2621.257719513763	4
0	14491	2621.431522648877	5
0	14493	2622.342862479609	6
0	14496	2623.196085529701	5
0	14504	2624.999237166666	6
0	14505	2625.062680640677	5
0	14511	2625.226573409242	6
0	14513	2625.347404051646	7
0	14515	2626.006436582538	8
0	14517	2626.894388341181	9
0	14518	2626.972418914523	8
0	14524	2628.050088654827	7
0	14530	2628.439942523151	8
0	14531	2629.331432967701	7
0	14536	2630.469172459867	6
0	14541	2631.453671366411	5
0	14545	2632.659484007897	6
0	14549	2634.171538633375	7
0	14551	2635.337877140799	8
0	14554	2636.999103254596	7
0	14558	2637.775053219374	8
0	14560	2637.967190534054	9
0	14562	2638.345552908979	10
0	14566	2638.688960260946	11
0	14568	2639.696643728763	10
0	14573	2640.280163715526	9
0	14579	2641.333144992217	10
0	14580	2641.453827026215	9
0	14586	2641.858201477987	10
0	14587	2642.601703666968	9
0	14597	2643.757930366579	8
0	14603	2644.333170156888	9
0	14604	2645.372420552275	8
0	14608	2645.805360447362	9
0	14611	2646.875896175002	8
0	14615	2646.958041169935	9
0	14618	2648.436166916475	8
0	14622	2648.843641542641	9
0	14624	2649.077352709267	10
0	14626	2649.164429707587	11
0	14628	2649.27573528812	12
0	14634	2651.043393218316	13
0	14635	2652.528229611186	12
0	14640	2653.585332368882	11
0	14645	2654.388482559104	10
0	14650	2655.073468340637	9
0	14659	2656.500407748197	8
0	14664	2656.765638724766	7
0	14670	2657.804964901455	8
0	14671	2658.369987678928	7
0	14675	2658.425556517635	8
0	14678	2661.08931428327	7
0	14682	2661.335637482822	8
0	14684	2662.636525698693	9
0	14688	2663.502915624185	10
0	14690	2665.05504548922	11
0	14692	2665.345949283537	12
0	14694	2665.529726887509	13
0	14696	2666.031861237666	14
0	14698	2666.09789615326	15
0	14700	2666.158150233265	16
0	14701	2666.772231722434	15
0	14707	2669.008071994624	16
0	14708	2670.156322093257	15
0	14713	2674.096698557285	14
0	14718	2675.435185961654	13
0	14722	2675.574130253781	14
0	14729	2678.086260278569	13
0	14733	2678.493385003641	14
0	14737	2680.090086299297	15
0	14738	2680.549621944443	14
0	14743	2680.798504621811	13
0	14748	2681.499929935449	12
0	14754	2682.26362185423	13
0	14756	2682.421489725198	14
0	14757	2682.470704325274	13
0	14764	2684.162174100886	12
0	14768	2684.173833697884	13
0	14774	2684.72991250244	12
0	14779	2685.16419638025	11
0	14784	2685.67539095003	10
0	14788	2686.391392775732	11
0	14791	2686.595958620981	10
0	14797	2688.200896290859	9
0	14802	2688.323683529342	8
0	14806	2688.978001108539	9
0	14809	2689.944526278196	8
0	14814	2690.96367487658	7
0	14823	2697.22502607393	6
0	14827	2698.195403064486	7
0	14832	2699.405432020861	6
0	14836	2700.06707743217	7
0	14839	2701.581909750384	6
0	14844	2702.766318525213	5
0	14849	2703.461749056952	4
0	14853	2703.481042454216	5
0	14856	2705.846339934781	4
0	14861	2706.510669904338	3
0	14865	2707.93414950484	4
0	14867	2710.993755595721	5
0	14869	2711.898170407622	6
0	14874	2712.573327558794	5
0	14879	2713.101700649745	4
0	14884	2713.722167413494	3
0	14890	2714.142056109143	4
0	14893	2714.801783730122	3
0	14900	2715.794250861525	2
0	14904	2715.965545939003	3
0	14908	2720.091294916923	4
0	14909	2720.259328785645	3
0	14916	2721.715376592576	2
0	14920	2722.74349050494	3
0	14924	2723.273823287547	4
0	14925	2724.290233509102	3
0	14933	2726.082337374113	4
0	14935	2726.641164064861	5
0	14936	2728.235897504266	4
0	14940	2729.509709849265	5
0	14942	2729.565687173957	6
0	14945	2730.935076405553	5
0	14950	2731.975664377659	4
0	14955	2732.636797060437	3
0	14962	2734.487032396915	2
0	14969	2736.263689321789	3
0	14970	2736.962912001308	2
0	14975	2737.242479919207	1
0	14982	2738.931955961257	0
0	15008	2741.274617387717	1
0	15012	2742.912065531231	2
0	15015	2743.933675685366	1
0	15021	2746.850388175285	0
0	15046	2750.795539833136	1
0	15048	2751.257481834348	2
0	15051	2752.47477308026	1
0	15060	2753.261924748806	2
0	15061	2753.435245767635	1
0	15066	2753.757769767052	0
0	15070	2753.855057173499	1
0	15074	2755.306819856726	2
0	15077	2755.943687000077	1
0	15082	2756.509292584651	0
0	15088	2757.451473472476	1
0	15090	2757.758540742486	0
0	15100	2758.744832042729	1
0	15110	2760.535481334726	2
0	15111	2760.825195629997	1
0	15118	2761.351283831347	2
0	15119	2761.371595208624	1
0	15128	2763.291006325825	2
0	15129	2763.555786553665	1
0	15133	2763.79599161068	2
0	15136	2765.059591597413	1
0	15142	2765.914322870952	2
0	15144	2767.043935172998	3
0	15146	2768.115112940815	4
0	15148	2769.678144567939	5
0	15154	2771.018627382987	4
0	15161	2771.883853408772	3
0	15167	2771.921166158636	4
0	15168	2772.587390334728	3
0	15173	2773.021924290912	2
0	15178	2773.83065071797	1
0	15183	2775.28873834634	0
0	15194	2776.72448930122	1
0	15202	2778.717693975355	2
0	15205	2780.055576434748	1
0	15212	2780.374679911113	2
0	15213	2780.689921171473	1
0	15218	2781.167771290707	0
0	15246	2783.624816569931	1
0	15247	2783.870180578118	0
0	15262	2785.474084732629	1
0	15263	2785.69047946141	0
0	15269	2785.776257160182	1
0	15271	2785.885115901946	0
0	15324	2794.840209050213	1
0	15327	2795.023370898988	0
0	15348	2797.411252878191	1
0	15352	2798.092101688766	2
0	15354	2799.333339623976	3
0	15355	2799.354569776441	2
0	15360	2799.528236725001	1
0	15365	2799.670652762042	0
0	15381	2803.082588816749	1
0	15383	2803.104085584147	2
0	15386	2803.470599541665	1
0	15390	2803.480182674287	2
0	15394	2806.125766258795	3
0	15398	2808.463108492912	2
0	15405	2809.840595235522	3
0	15408	2810.232244974676	2
0	15414	2810.471351791725	3
0	15415	2810.51646260395	2
0	15421	2810.908252905389	1
0	15429	2812.021480045342	0
0	15436	2812.588190427057	1
0	15438	2812.715887454295	2
0	15439	2812.782704500046	1
0	15445	2813.949252548472	0
0	15452	2814.144483956038	1
0	15453	2814.193910849895	0
0	15490	2819.493038979162	1
0	15491	2819.829451765561	0
0	15504	2821.41800025364	1
0	15506	2821.766550955798	2
0	15508	2821.916699451892	3
0	15510	2823.004442703291	2
0	15514	2823.082309616803	3
0	15517	2823.747457687904	2
0	15523	2823.852170420937	3
0	15524	2824.678233470506	2
0	15529	2825.692596085887	1
0	15533	2826.72723890093	2
0	15535	2827.836902780577	3
0	15540	2828.305285371358	4
0	15541	2828.501240577108	3
0	15545	2830.070721100039	4
0	15548	2830.324031907297	3
0	15552	2832.413826625968	4
0	15554	2832.999364663025	5
0	15558	2834.579167009076	4
0	15563	2834.682230204281	3
0	15567	2835.257353953224	4
0	15569	2835.434610787954	5
0	15573	2837.052171109498	4
0	15580	2837.69508049119	3
0	15585	2839.182632650393	2
0	15590	2839.670218450597	1
0	15594	2839.718553588553	2
0	15598	2841.421977265719	1
0	15604	2842.329054931227	2
0	15605	2842.676826471962	1
0	15609	2843.160702219918	2
0	15614	2843.731221698276	1
0	15618	2844.844951669633	2
0	15621	2845.456380921085	1
0	15627	2846.894369915693	2
0	15630	2847.449058426626	1
0	15641	2849.98928875266	2
0	15644	2851.081457551819	1
0	15650	2852.11146633966	2
0	15654	2855.260447772716	1
0	15659	2856.202730958948	0
0	15663	2856.272294478321	1
0	15665	2856.741150072804	2
0	15668	2857.104393467021	1
0	15672	2857.665983976799	2
0	15675	2858.269273409913	1
0	15683	2859.128643898461	2
0	15684	2859.325051834409	1
0	15688	2859.347733457971	2
0	15696	2861.564189524181	3
0	15697	2861.719402805996	2
0	15704	2865.282298457452	1
0	15712	2866.274407534285	2
0	15715	2867.565219454059	3
0	15716	2867.68394063022	2
0	15722	2868.300551717088	1
0	15727	2868.581450730573	0
0	15745	2871.312424373746	1
0	15747	2872.486571708609	0
0	15766	2874.063682939545	1
0	15772	2875.595262857902	2
0	15773	2875.743988350702	1
0	15778	2877.043074876036	0
0	15817	2883.846750313684	1
0	15823	2884.608298433239	2
0	15824	2885.443939723175	1
0	15829	2885.70501551662	0
0	15854	2888.166758914857	1
0	15857	2889.196750167916	0
0	15871	2891.058170345449	1
0	15873	2891.063117630816	2
0	15874	2891.597661062434	1
0	15880	2891.609279208282	2
0	15882	2892.968002307074	1
0	15890	2894.6113517533	0
0	15937	2902.217164093788	1
0	15946	2903.622489451507	2
0	15948	2903.748461682575	3
0	15950	2904.388282145315	4
0	15951	2905.254133502649	3
0	15959	2906.284441522358	2
0	15966	2907.06477162204	1
0	15972	2907.370732476124	2
0	15975	2908.097517386065	3
0	15976	2908.206183246779	2
0	15982	2908.812739535073	1
0	15987	2909.17250868251	0
0	15998	2909.45826784214	1
0	16000	2909.744152688419	2
0	16005	2911.387662213137	3
0	16006	2911.602148901249	2
0	16013	2912.804911258351	3
0	16016	2913.729094582194	2
0	16021	2914.4431239975	1
0	16026	2914.84673451001	0
0	16061	2923.697399907157	1
0	16062	2923.871928199569	0
0	16071	2924.570595325353	1
0	16075	2925.760282502383	2
0	16080	2927.878504183953	1
0	16085	2927.937011751892	0
0	16093	2928.848283495745	1
0	16095	2930.696656283921	0
0	16117	2932.4781718665	1
0	16118	2932.642259321432	0
0	16124	2932.691597884518	1
0	16126	2933.036639879596	0
0	16135	2933.352031865407	1
0	16137	2935.006383119417	2
0	16141	2936.244630613305	1
0	16148	2936.703233661494	2
0	16150	2937.48668933366	3
0	16151	2937.733342632073	2
0	16161	2940.875498183624	1
0	16171	2942.009543755017	0
0	16199	2943.978736492111	1
0	16200	2943.987404822921	0
0	16206	2944.180303384242	1
0	16207	2945.677440776604	0
0	16219	2946.620723737418	1
0	16220	2946.883771052271	0
0	16224	2946.979238762608	1
0	16228	2948.563539548457	0
0	16275	2952.578802908728	1
0	16276	2952.693442645346	0
0	16282	2953.275260501603	1
0	16288	2955.410410336295	0
0	16311	2959.549348378631	1
0	16313	2961.15113342472	2
0	16314	2962.03254340087	1
0	16320	2962.615474013629	0
0	16332	2966.396406208538	1
0	16334	2966.797714527643	2
0	16335	2966.79976979576	1
0	16341	2967.577635363132	0
0	16360	2971.129292747858	1
0	16362	2971.605368204152	2
0	16365	2973.069131228359	1
0	16371	2973.696103038708	0
0	16377	2973.776877611096	1
0	16379	2973.801293227682	2
0	16380	2973.837369601031	1
0	16386	2974.20034937616	0
0	16395	2975.104485469572	1
0	16397	2975.133980597562	2
0	16399	2975.283197517335	3
0	16400	2975.688831664463	2
0	16408	2976.837978924627	3
0	16410	2976.846876307198	4
0	16412	2977.327245438699	5
0	16413	2977.349754387577	4
0	16418	2977.459878605125	3
0	16426	2979.380441080025	2
0	16431	2980.101066074178	1
0	16435	2980.207308606265	2
0	16438	2980.736110416163	1
0	16444	2982.536415497666	0
0	16465	2985.609487143802	1
0	16466	2985.774277157919	0
0	16486	2989.741286084188	1
0	16490	2989.843223748469	2
0	16492	2993.327384125791	3
0	16495	2993.498126926809	2
0	16501	2993.943214311505	1
0	16506	2993.960603911234	0
0	16521	2996.762296026515	1
0	16523	2996.923604221974	0
0	16530	2998.23481780177	1
0	16531	2998.463738107958	0
0	16560	3006.739265719181	1
0	16563	3009.086651459768	2
0	16566	3009.471525600718	3
0	16567	3010.393567140278	2
0	16573	3010.438522724055	3
0	16574	3010.633093370529	2
0	16580	3010.91104217135	3
0	16584	3011.641417779641	2
0	16590	3012.130325589948	1
0	16597	3013.290949514471	2
0	16599	3013.363430013533	3
0	16601	3013.943493921191	4
0	16602	3013.968526349474	3
0	16607	3014.927742365667	2
0	16615	3015.881576512487	1
0	16622	3017.663853598126	0
0	16641	3019.89986965512	1
0	16642	3021.221498952529	0
0	16649	3022.007168184303	1
0	16650	3022.044245484723	0
0	16672	3022.570031495028	1
0	16675	3023.042648502526	0
0	16681	3023.047750867238	1
0	16682	3023.058889823326	0
0	16688	3023.143856261884	1
0	16690	3023.691172495482	0
0	16694	3024.346547277692	1
0	16697	3024.855004475889	0
[...]
4	154605	28112.414316329116	3450.5476461838
4	154610	28112.63356142051	3442.9024284314
4	154626	28116.46206642272	3438.5330673965
4	154655	28119.56417282935	3440.7697478895
4	154666	28122.133219724287	3436.9529047157
4	154673	28122.709651663971	3436.2038164468
4	154692	28125.217486736001	3426.4324431061
4	154699	28126.685552990516	3424.4464201729
4	154708	28127.707301792094	3424.9605092902
4	154714	28127.751858176364	3424.7850073146
4	154725	28129.703899043035	3417.3769100781
4	154758	28134.733451124229	3422.0584748573
4	154771	28138.319986663918	3417.8549618168
4	154776	28138.367996977485	3407.2716302408
4	154781	28139.392406438139	3406.7676308861
4	154792	28142.483845561508	3406.915313642
4	154807	28143.297148213023	3406.7155221025
4	154819	28144.472742593345	3405.3486817991
4	154917	28161.475726060945	3421.5327514843
4	154922	28161.632662393037	3418.5048961451
4	154929	28162.591829879521	3414.4776185008
4	154976	28171.471245605959	3417.2675450776
4	154989	28172.769467969292	3418.5531650024
4	154995	28172.869478905973	3414.5976270525
4	155010	28175.705333437025	3416.2144309158
4	155049	28178.726676746289	3416.7950379467
4	155066	28182.98402859946	3416.8645712375
4	155088	28185.332852970143	3407.5850355089
4	155100	28186.104281982048	3407.0997605617
4	155115	28187.665035736737	3406.9201213131
4	155128	28190.965491928461	3406.3515499403
4	155149	28195.748373701467	3407.5977263173
4	155183	28199.519981112254	3405.3813286777
4	155188	28199.654545236342	3405.124015422
4	155207	28204.235942920405	3405.0444524357
4	155242	28209.372925759105	3407.8208390142
4	155252	28210.597218643306	3395.7419932957
4	155262	28210.690153450532	3391.7281712361
4	155272	28211.426911620286	3388.8702272459
4	155284	28212.954214120316	3388.8728912586
4	155291	28215.8644306106	3390.5919020794
4	155304	28217.279611650376	3391.8113020762
4	155346	28224.683745940193	3394.6388437298
4	155351	28225.346955255021	3394.720036433
4	155360	28226.902726808473	3391.3189957524
4	155369	28228.487284985884	3392.5734427157
4	155393	28235.33809386292	3398.0068149215
4	155434	28242.19804589943	3404.4729892571
4	155446	28244.932899784504	3405.8771507626
4	155453	28245.86226144736	3404.5313033874
4	155458	28247.178446048202	3401.9653539485
4	155466	28249.657038515374	3400.7259962713
4	155471	28249.699764279314	3397.9358532636
4	155480	28251.228620251495	3397.4731886936
4	155485	28251.696264757479	3397.1881555349
4	155491	28253.017312292275	3396.9536354606
4	155498	28253.505448068706	3382.8165989243
4	155518	28255.174291202011	3378.9961220714
4	155528	28257.022764924074	3380.2203053257
4	155547	28259.163547168283	3378.6619068258
4	155561	28262.562570222799	3378.7326080152
4	155592	28265.528315523382	3377.1233786444
4	155597	28265.982770978831	3375.3828386891
4	155602	28266.136435300797	3373.4053215305
4	155607	28266.324573209731	3363.7544799837
4	155612	28266.737362533754	3357.300652506
4	155617	28267.009518016868	3355.025044371
4	155622	28267.468662088686	3349.7680336624
4	155628	28269.37270863974	3348.0984933014
4	155633	28270.551300407926	3347.5972462785
4	155643	28272.685062243991	3346.5401360985
4	155654	28275.143223873467	3345.3779781069
4	155665	28277.176559920152	3341.0136980715
4	155684	28279.7860297708	3340.1529338865
4	155690	28280.083691534129	3338.3707369445
4	155695	28280.711832709436	3338.7964457263
4	155708	28284.205140229682	3335.7264345145
4	155740	28289.265869231799	3339.0789812747
4	155745	28289.597051835672	3339.0794842193
4	155759	28292.348164113447	3341.1743623525
4	155770	28294.051975325799	3340.7114567496
4	155813	28297.551911862843	3341.3566649352
4	155824	28298.419086346334	3341.2822270955
4	155831	28299.415325438421	3334.5405015744
4	155838	28300.472895975765	3334.0380315941
4	155843	28300.646178814198	3328.8082917179
4	155852	28304.546974778362	3321.0611618234
4	155863	28305.381483064814	3321.676297003
4	155881	28309.234339857631	3325.4187940833
4	155911	28312.247659487979	3318.5010969601
4	155930	28316.528029288106	3318.866801273
4	156000	28327.396340623239	3327.9275568747
4	156005	28327.804227446923	3324.3673162614
4	156012	28328.506788233887	3323.0967103307
4	156017	28329.354727769146	3323.9172120608
4	156031	28333.270245955829	3313.0069447209
4	156090	28344.273316503309	3321.4671375756
4	156099	28345.773813338951	3318.8348219643
4	156115	28347.48393686231	3320.238360117
4	156153	28354.155203027045	3324.6562594955
4	156158	28355.255081612912	3322.0585713582
4	156165	28355.648129817533	3322.0964622206
4	156176	28356.61667774093	3315.8178426004
4	156183	28357.617431682326	3315.2861542725
4	156190	28358.442387462341	3315.3400428635
4	156200	28359.066365445262	3311.3658289432
4	156210	28361.067601763788	3304.9093618758
4	156229	28364.635356370256	3294.0940535133
4	156235	28364.86437247619	3290.4536639872
4	156240	28365.034990267692	3278.4919589649
4	156247	28365.32047557066	3277.4006500602
4	156256	28365.679335450362	3277.0688722843
4	156277	28368.994263553119	3274.4228835165
4	156399	28392.177080893253	3284.3823661836
4	156404	28392.687670001319	3284.7251954491
4	156412	28394.955158720843	3281.2823753502
4	156427	28399.777211761655	3285.0993088834
4	156477	28405.445568935879	3271.3172237387
4	156505	28410.200846505184	3275.964034925
4	156517	28411.384756440653	3271.378368661
4	156523	28412.553557045085	3271.1044770375
4	156530	28413.299362002151	3270.2953494178
4	156540	28414.428762432202	3268.7560068646
4	156563	28418.918185251802	3265.859205383
4	156670	28442.724514053893	3279.8948407055
4	156698	28448.390302193936	3283.2051169182
4	156719	28450.248975058337	3283.5047158062
4	156724	28450.559050529588	3273.8404285411
4	156729	28450.728984709734	3273.4705327077
4	156738	28454.311145274389	3275.5259157084
4	156745	28456.870904117088	3277.9909035087
4	156758	28459.374718189013	3277.2230655227
4	156932	28488.321173292777	3297.3583231164
4	156937	28488.671976125154	3291.4102076683
4	156949	28490.757616736677	3288.4611117049
4	156975	28493.942537651289	3287.2195884744
4	157000	28496.499104899846	3284.7825936018
4	157042	28501.280776332547	3289.4465916862
4	157101	28509.778198816701	3294.3393633834
4	157106	28510.041833487122	3279.7427164891
4	157111	28510.452793666383	3279.6791631725
4	157116	28511.730999767652	3279.3688835874
4	157123	28512.436096203336	3263.5346091296
4	157135	28513.61673034327	3260.3130292426
4	157146	28515.766017895902	3240.0535187423
4	157166	28520.716680505482	3242.4540867758
4	157281	28543.757799028619	3265.4339991588
4	157288	28544.321189016028	3255.3812981527
4	157293	28545.128550124824	3255.8610110594
4	157298	28547.037760347541	3253.8535190383
4	157303	28547.34243180563	3250.7497390214
4	157311	28548.292326951684	3249.149552601
4	157319	28549.070325193661	3248.8153419812
4	157329	28552.756791881775	3251.8350417056
4	157348	28558.841563109956	3256.5632459116
4	157674	28626.686584954728	3321.7961974537
4	157684	28627.372568897787	3317.886872183
4	157697	28630.063194970567	3319.0309480684
4	157787	28646.308387339292	3326.4805296649
4	157801	28648.758610879066	3327.101906731
4	157812	28649.824018603557	3310.1773180521
4	157822	28651.331789689036	3305.2849064085
4	157837	28652.404096758757	3303.6798247849
4	157854	28654.482083691561	3303.612471671
4	157873	28658.381533894907	3307.337867156
4	157880	28659.767334675379	3306.0952019723
4	157886	28660.615929077203	3305.2351032376
4	157893	28661.024410603471	3303.9721532745
4	157908	28662.278368623522	3299.2425536729
4	157914	28662.476406656403	3298.8377475545
4	157924	28663.429722731999	3294.8732312218
4	157948	28664.858352072104	3288.5774455944
4	157962	28666.336608405503	3289.6108605149
4	157977	28669.438759082841	3283.0644772696
4	158009	28674.854675108065	3284.0553014295
4	158015	28676.891041565442	3279.8535947322
4	158022	28677.895957144706	3280.3375666263
4	158029	28678.847165151284	3276.9328384755
4	158050	28680.560735123594	3276.214814494
4	158057	28681.603870417411	3273.3108218314
4	158063	28682.199883714348	3269.4026133553
4	158068	28682.497207361643	3251.8363480233
4	158073	28682.513106036266	3250.0156403037
4	158083	28685.06993046663	3250.3376434602
4	158096	28686.319865665608	3249.5202608369
4	158107	28686.961756126223	3240.8203388684
4	158115	28687.631877074983	3238.5334363959
4	158126	28689.86249984025	3240.3827222869
4	158138	28692.064997781866	3240.6082740526
4	158143	28692.42210088597	3235.9949984675
4	158148	28692.729636681373	3234.4880231532
4	158155	28694.834067922392	3236.3131117185
4	158167	28697.466960957797	3228.4683782544
4	158173	28698.470796046169	3227.1668448508
4	158178	28699.127833293012	3226.2489251548
4	158186	28701.534891696722	3228.0066831795
4	158218	28704.230067400742	3223.9659501653
4	158247	28709.093506908131	3227.3553484337
4	158252	28709.404981065856	3227.2491226238
4	158257	28709.619706169876	3214.7572537473
4	158265	28711.502004579906	3216.3641231783
4	158286	28714.529594332759	3218.1516490814
4	158291	28715.013390448779	3217.0482334845
4	158296	28715.445703334696	3212.9845523399
4	158310	28717.714407761641	3214.7627038841
4	158331	28722.422543525293	3214.6555911068
4	158360	28728.165549319333	3218.4129393092
4	158727	28805.998456838557	3295.8872187714
4	158739	28807.459814278247	3296.4147570318
4	158744	28807.568305117153	3295.287844334
4	158749	28807.761841369938	3290.7873642503
4	158766	28814.006665913502	3295.2588607423
4	158913	28843.789985412532	3320.6831433575
4	158928	28845.129187998706	3316.7325970434
4	158942	28848.682614499247	3310.9377342027
4	158949	28849.960384220364	3311.281803555
4	158990	28855.525929565154	3316.5358621954
4	159000	28856.2036124384	3308.9488854559
4	159018	28861.349367594964	3308.9696580165
4	159173	28890.212522480096	3326.9629106788
4	159180	28891.791013937975	3326.7011338489
4	159188	28892.82977472209	3326.2521744722
4	159206	28894.592002595008	3325.3355387883
4	159211	28894.598856185475	3321.3246859952
4	159221	28895.957538957253	3321.5674332559
4	159244	28899.72135198288	3321.0017185509
4	159249	28899.766552144886	3316.447093051
4	159254	28899.785708287957	3315.8388560005
4	159274	28903.075685936311	3318.3251212868
4	159318	28910.458356852419	3324.4900423412
4	159325	28910.586371964623	3307.3273761168
4	159333	28911.050086161275	3302.5399935764
4	159341	28911.585785284178	3294.7808409566
4	159362	28918.663890626754	3300.1043052217
4	159476	28935.143909549929	3297.6767580204
4	159483	28936.465987010081	3297.5540640308
4	159490	28937.798784636337	3296.5778626673
4	159496	28938.19425682308	3296.6446537541
4	159509	28945.390139281837	3302.7210458404
4	159537	28949.326254305955	3303.7067780227
4	159544	28949.63933538707	3297.0412260311
4	159549	28950.201539913657	3295.8194316918
4	159558	28952.139547833793	3296.4570877717
4	159568	28952.390729809375	3294.0465829996
4	159596	28962.856022327833	3302.8891374269
4	159897	29019.012883961085	3354.7356861898
4	159909	29021.782781432988	3356.711280503
4	159914	29021.792864466569	3354.2775562877
4	159919	29022.619835847328	3351.8037538742
4	159924	29022.632255345696	3351.5340806573
4	159935	29023.829777482326	3350.6128138781
4	159962	29027.590525395284	3350.9538919705
4	159974	29028.974854278545	3351.1319974712
4	160003	29036.602157111168	3352.8498963113
4	160287	29094.009627727035	3408.7400515629
4	160292	29094.030861392089	3373.5475164241
4	160297	29094.098942537405	3369.1845376956
4	160312	29098.493452014414	3371.2362879139
4	160581	29147.632565855338	3414.486697102
4	160607	29151.718232489785	3415.625904354
4	160612	29151.720372358558	3414.2687953159
4	160621	29153.097191348162	3413.887180697
4	160634	29153.862066018219	3402.2605754713
4	160645	29155.626838391701	3396.7496289423
4	160651	29156.727638005503	3392.2510060004
4	160656	29157.804032112058	3389.6731297396
4	160671	29159.886762238357	3391.4100816584
4	160717	29167.744629845214	3399.1934869767
4	160722	29167.858926797485	3393.6158367372
4	160735	29169.137294706017	3392.3126410519
4	160770	29174.245166138645	3385.8515601356
4	160786	29178.553215950903	3380.1397277335
4	160798	29181.29389026303	3371.2369673971
4	160804	29181.855815505971	3353.7118093502
4	160812	29182.73353841812	3353.8729588355
4	160829	29186.621334117507	3356.4157783226
4	160850	29189.86450928382	3357.5026253631
4	160860	29193.491744598919	3359.9592496552
4	160876	29194.707199583881	3357.4399294189
4	160881	29195.107578754356	3355.6588545527
4	160886	29197.52459097952	3357.2299743146
4	160894	29199.491862150659	3357.3742225151
4	160904	29199.965434654155	3352.988200363
4	160914	29202.837923386795	3355.3973694034
4	160997	29213.859370823345	3362.2105621687
4	161011	29217.233026549996	3359.3718186225
4	161039	29220.350641405036	3362.0715191322
4	161048	29221.66933922201	3361.4402402779
4	161058	29222.701649098462	3359.1275501357
4	161065	29224.165014601326	3359.9813119584
4	161076	29225.402664693378	3355.9986953768
4	161094	29228.062418785621	3351.6746789193
4	161099	29228.824716781893	3349.9215208623
4	161105	29229.295454397227	3350.2228792614
4	161115	29232.113779948051	3352.9157164234
4	161131	29233.092068393624	3352.1582970616
4	161138	29233.483526788352	3350.8303696002
4	161144	29233.841008735917	3348.4816692102
4	161149	29233.866589249006	3346.5000045901
4	161154	29234.699217826145	3340.4689449069
4	161160	29236.012203677771	3341.4587138038
4	161165	29236.420375758862	3335.9939722333
4	161170	29237.45779862366	3336.8591880878
4	161175	29238.911970023322	3326.3586239179
4	161181	29240.362740117793	3325.8726765076
4	161188	29242.432401756724	3326.7572692091
4	161198	29244.381904203537	3327.9320975877
4	161215	29249.23901696132	3332.5937230647
4	161282	29265.096268280451	3346.3680926897
4	161287	29265.5594551772	3335.8242615011
4	161292	29265.934226436759	3335.5405490052
4	161303	29269.048556432945	3332.1672293018
4	161324	29273.309680223719	3330.4625323627
4	161358	29279.582658468197	3323.636513729
4	161364	29280.407075208029	3320.3957987835
4	161371	29280.996850267002	3317.9565330934
4	161403	29284.161906574844	3317.4402050458
4	161442	29294.031725890466	3322.362573029
4	161461	29296.244374216903	3323.4834132152
4	161467	29296.911949064475	3321.6662942443
4	161472	29297.075915508503	3312.5178519709
4	161479	29297.382748902048	3305.9734196248
4	161490	29298.014214613071	3304.5892902569
4	161497	29299.179118853132	3304.7252735782
4	161504	29299.977308305846	3301.4333973598
4	161549	29308.595287313542	3306.7852419029
4	161560	29311.397198685466	3307.9593941598
4	161565	29311.411964029007	3305.8220440021
4	161571	29312.069807554696	3303.216440005
4	161579	29313.108435515732	3303.9647009389
4	161586	29315.616789169555	3305.1764363622
4	161600	29316.306645049368	3305.4410467042
4	161616	29318.166711447605	3306.9778098294
4	161628	29319.113187153413	3303.8453617103
4	161642	29320.879735883505	3299.0113281249
4	161655	29322.033667637071	3298.1865203507
4	161665	29322.389918937092	3294.7293676526
4	161671	29323.061263224453	3284.7021104949
4	161676	29323.109228298824	3281.1317755248
4	161684	29326.181613797582	3282.1141373422
4	161706	29328.356969849746	3281.6407743503
4	161718	29330.053427143435	3279.3427741326
4	161731	29331.308036255826	3280.0151422928
4	161788	29338.148413790432	3283.7186490304
4	161793	29338.268266623305	3282.9828627741
4	161800	29339.705237632376	3283.2254458892
4	161805	29339.913233143917	3283.175539121
4	161821	29343.511272234009	3286.5741804626
4	162155	29409.292865451811	3349.6501044798
4	162160	29409.652740926708	3347.0099265419
4	162165	29410.574398735503	3342.5411493833
4	162181	29413.791072141162	3345.4209907825
4	162227	29421.59776377012	3348.3644962376
4	162238	29423.222116493675	3346.8757531416
4	162252	29424.37441434469	3346.5611144426
4	162263	29425.296956158594	3346.7016623556
4	162275	29429.12400712548	3342.2501938806
4	162300	29433.248926626689	3342.5646156865
4	162309	29433.780356636865	3340.6749018892
4	162316	29433.993844968227	3336.058100656
4	162328	29438.107550246476	3339.8156020995
4	162370	29444.621180272241	3341.9804276406
4	162383	29446.156747804276	3341.9680548529
4	162441	29455.517648802844	3350.9886704767
4	162458	29458.403311106443	3353.0780467216
4	162510	29464.218890551468	3357.4238784935
4	162572	29483.672145352009	3365.9955306696
4	162577	29483.839184013497	3360.5400579918
4	162586	29484.692853468069	3357.6058019675
4	162616	29488.919563094369	3359.7954487186
4	162663	29497.549022442891	3360.410885448
4	162740	29512.421774975275	3370.3587026159
4	162777	29518.075157060348	3375.3214310647
4	163118	29582.690587481659	3435.0359499945
4	163125	29583.054949278396	3433.7592669091
4	163137	29585.62550088423	3430.6292743998
4	163142	29585.788684601403	3430.3192855612
4	163147	29586.340400672825	3423.8217811924
4	163158	29590.325469252837	3427.6867078371
4	163168	29590.384376221677	3427.5558051703
4	163177	29591.857500680902	3428.4815871017
4	163249	29601.573769405998	3436.3701407672
4	163257	29606.143291957607	3438.3414873961
4	163282	29609.493480571385	3434.0274748631
4	163289	29611.085568986432	3433.0008026525
4	163303	29613.181918536366	3422.3109497059
4	163332	29617.661657281402	3426.68072512
4	163357	29621.120304501985	3429.6808381961
4	163391	29625.845778970932	3432.2944587748
4	163396	29625.98681310345	3432.2179337393
4	163401	29626.491720307532	3428.6833450887
4	163406	29627.39465658615	3428.4720602907
4	163413	29628.043702003622	3421.4730691827
4	163421	29628.42565789682	3419.4484428499
4	163426	29628.573948193489	3417.7089335689
4	163442	29631.765810117279	3398.3706464724
4	163482	29636.985701480856	3403.1748604267
4	163487	29637.383145052945	3400.1489074791
4	163494	29637.947586096127	3400.519080953
4	163503	29638.588705101463	3398.8159919032
4	163508	29638.665717243851	3398.5108808839
4	163518	29640.169517531898	3399.6931991077
4	163577	29650.899659175637	3409.9877300598
4	163584	29651.819091347982	3398.1306528003
4	163590	29653.520303094332	3394.5612332189
4	163596	29654.779579249964	3395.4846088323
4	163601	29655.05393815465	3395.1315578221
4	163623	29661.321088299184	3400.2137281239
4	163760	29683.722186469694	3422.2373137762
4	163775	29684.290522540352	3422.7931897098
4	163786	29685.952374525983	3417.1554198613
4	163791	29686.2640192033	3417.2853788197
4	163799	29688.865677151049	3418.389177321
4	163808	29690.939747532066	3411.6506842213
4	163814	29691.813685183664	3408.7780621477
4	163824	29694.219456939629	3406.2602432416
4	163837	29696.041617242124	3407.9257357287
4	163846	29698.494727720905	3410.0337031003
4	163866	29700.794595322741	3406.7728966815
4	163881	29703.55020998733	3402.3288329544
4	163911	29707.150034198617	3404.3639517012
4	164979	29919.62822219584	3612.4765436013
4	164985	29919.723011925578	3607.3747054011
4	164994	29920.379977322379	3605.0440017396
4	165008	29921.979123704374	3603.8544209464
4	165019	29924.213251534122	3604.3930734148
4	165024	29924.250570581587	3604.3011316018
4	165029	29925.427653292023	3599.0672345826
4	165034	29926.095326717048	3599.0187660667
4	165041	29927.611884872325	3596.7689524166
4	165052	29930.485224565701	3585.493958197
4	165061	29933.16164487627	3584.5824106475
4	165141	29946.891835429843	3595.6146746505
4	165146	29947.545079607591	3590.1096095937
4	165151	29947.815479893456	3586.8946549995
4	165162	29951.975040777448	3586.7303039898
4	165172	29953.152377711703	3570.2743649509
4	165178	29955.464074036255	3571.978978729
4	165188	29956.621761928474	3565.7477738379
4	165210	29959.333870020099	3565.4411180511
4	165216	29960.539239398321	3562.1156508605
4	165224	29962.813027750346	3560.3313141724
4	165243	29965.837830660186	3559.5652802125
4	165250	29966.474355978246	3559.4678478216
4	165264	29968.384725161941	3557.8406433275
4	165280	29973.192822255223	3557.4098544493
4	165292	29975.990587064815	3554.9631933821
4	165310	29977.588379600925	3556.3574617012
4	165323	29979.997486866161	3547.1451613933
4	165334	29981.658553074646	3526.4235958059
4	165349	29984.61544031661	3527.6121295543
4	165370	29987.215798690521	3521.0237748517
4	165379	29987.805636427168	3517.7385020419
4	165395	29989.854241399454	3517.9294964908
4	165406	29995.648410535104	3522.8934875375
4	165423	29999.332648007467	3524.1978595163

