version 2
run First-n2-19-20191016-17:04:04-8508
attr configname First-n2
attr datetime 20191016-17:04:04
attr experiment First-n2
attr inifile omnetpp.ini
attr iterationvars ""
attr iterationvarsf ""
attr measurement ""
attr network org.omnetpp.queueing.Pizza
attr processid 8508
attr repetition 19
attr replication ""
attr resultdir results
attr runnumber 19
attr seedset 19
param **.PS.maxInventoriedPS 2
param **.U1.interArrivalTime exponential(2s)
param **.U2.interArrivalTime exponential(4s)
param **.PS.serviceTimeForInventoryU1 exponential(0.8s)
param **.PS.serviceTimeForInventoryU2 exponential(1.0s)
param **.PS.serviceTimeDirectU1 exponential(1.2s)
param **.PS.serviceTimeDirectU2 exponential(1.4s)
param **.PS.probabilityProducing 0.5
param **.CS.serviceTimeU1 exponential(0.8s)
param **.CS.serviceTimeU2 exponential(1.0s)

vector 0 Pizza.EntryQueueU1 queueLength:vector ETV
attr interpolationmode sample-hold
attr title "queue length, vector"
vector 1 Pizza.CS queueLength:vector ETV
attr interpolationmode sample-hold
attr title "queue length, vector"
vector 2 Pizza.EntryQueueU2 queueLength:vector ETV
attr interpolationmode sample-hold
attr title "queue length, vector"
vector 3 Pizza.sink lifeTime:vector ETV
attr interpolationmode none
attr title "lifetime of arrived jobs, vector"
attr unit s
vector 4 Pizza.sink lifeTimeU1:vector ETV
attr interpolationmode none
attr title "lifetime of arrived jobs, vector"
attr unit s
vector 5 Pizza.sink lifeTimeU2:vector ETV
attr interpolationmode none
attr title "lifetime of arrived jobs, vector"
attr unit s
0	0	0	0
0	18	3.069921891541	1
0	20	3.086285159072	2
0	23	4.736737406642	1
0	28	5.37381641914	0
0	54	11.205233952584	1
0	55	11.553586747173	0
0	70	17.048712698567	1
0	71	17.821733937525	0
0	77	17.857160436948	1
0	80	18.092162852118	0
0	93	19.746031762408	1
0	95	20.220529347486	0
0	99	20.693882087365	1
0	104	21.533349393329	2
0	106	21.980395264857	3
0	108	22.070739866065	4
0	110	22.554344804261	3
0	116	22.638959942489	2
0	122	22.721905742737	3
0	126	23.118170646856	4
0	129	24.024474381559	5
0	130	24.787388693349	4
0	135	25.266030014515	3
0	140	25.640675849305	2
0	145	25.861677001347	1
0	149	28.012275464384	2
0	154	31.109753170822	1
0	158	31.225131704076	2
0	162	33.459340375759	3
0	163	33.539426095046	2
0	167	33.756004939745	3
0	170	34.456226982203	2
0	175	36.918618282765	1
0	180	37.30680290204	0
0	184	38.445059901657	1
0	188	39.836871762688	2
0	190	40.988465331525	3
0	195	42.798861938358	2
0	200	43.263019306219	1
0	205	44.343450007353	0
0	209	44.584481299176	1
0	211	44.588528243525	2
0	213	44.868255946149	3
0	217	45.10609490039	4
0	219	46.859136033036	5
0	221	47.485414512293	6
0	225	48.42548375685	7
0	228	49.078421169622	8
0	229	49.817479381035	7
0	234	50.226362578038	6
0	239	52.074754099902	5
0	244	53.973163506292	4
0	248	55.047377645515	5
0	254	58.319677519828	4
0	260	58.662424044432	3
0	265	59.020901301796	2
0	271	59.904271603682	3
0	272	60.233226944602	2
0	277	60.756017448645	1
0	282	61.204875139169	0
0	307	67.221426343531	1
0	309	69.473178083806	2
0	311	69.830720205718	3
0	320	75.216315337107	2
0	325	76.015326471564	1
0	331	76.426158589887	0
0	345	78.031741520613	1
0	346	78.379773896219	0
0	362	81.925405233842	1
0	364	82.08714800653	2
0	367	82.661341255514	1
0	375	83.383893810885	2
0	376	83.481383534544	1
0	382	83.794981283297	0
0	388	84.005292996033	1
0	390	84.174844717279	0
0	403	84.810519245808	1
0	409	86.731903959213	2
0	411	87.480972039299	3
0	412	89.565253834829	2
0	417	91.358401025114	1
0	422	91.702308152839	0
0	426	91.962243996318	1
0	433	93.728757822119	0
0	439	93.864554767824	1
0	443	94.445669717677	2
0	444	94.773677916086	1
0	448	95.39008459277	2
0	451	95.850009472001	1
0	457	97.42922912227	0
0	488	99.325533609386	1
0	490	99.571862110755	2
0	498	100.621650120171	1
0	507	101.329788026171	0
0	513	102.303203654252	1
0	515	102.904426985885	2
0	516	103.132944475624	1
0	521	105.188681427634	0
0	551	111.310793210175	1
0	552	111.769745752372	0
0	568	113.187897425615	1
0	570	113.435835553217	2
0	572	114.071363963276	3
0	574	115.178144452765	4
0	581	116.704205459478	3
0	587	116.902264553629	4
0	588	117.128496763077	3
0	593	117.197537388735	2
0	597	117.415092166539	3
0	600	117.607141511071	2
0	606	117.901294255933	3
0	608	118.548377882178	2
0	612	118.712475682155	3
0	617	119.469986968883	4
0	618	119.850961784187	3
0	623	120.869226717284	2
0	629	121.348694165866	3
0	631	121.68320514885	4
0	633	121.969014235088	5
0	638	125.799567947142	4
0	642	125.800187552204	5
0	649	127.297291306753	4
0	653	127.486428186392	5
0	659	128.82982913365	4
0	665	128.883467160706	5
0	666	130.07180837237	4
0	673	132.817811976434	3
0	681	133.894872632472	2
0	686	133.901436526682	1
0	692	135.023093963099	2
0	693	136.608527097853	1
0	699	137.469173259229	2
0	701	137.660570450197	3
0	703	138.16399510651	4
0	708	139.155833918376	3
0	714	139.287500607001	4
0	716	141.589023397434	5
0	720	142.668864224839	6
0	723	143.746734814479	5
0	732	144.153135842171	4
0	737	144.880260762471	3
0	745	145.388547238349	4
0	746	145.398256721624	3
0	750	145.833661889861	4
0	754	147.672516267266	5
0	755	148.299684042243	4
0	759	148.347752453391	5
0	761	150.189148750425	6
0	764	151.047742162588	5
0	770	151.771453198083	6
0	772	152.595050714832	5
0	778	152.680763574855	6
0	779	152.798576920943	5
0	784	153.720442795703	4
0	788	155.317002492087	5
0	792	155.965376607548	6
0	793	156.00737250882	5
0	801	158.512500746752	6
0	802	159.165699792555	5
0	809	161.061584743448	4
0	815	161.131918489213	5
0	816	161.324688193804	4
0	824	161.685078584258	3
0	832	162.697366221137	4
0	833	163.069449026386	3
0	838	163.232065473591	2
0	847	164.641461813281	1
0	852	164.673022645542	0
0	858	165.288962770852	1
0	861	166.233811771672	0
0	865	166.271912039549	1
0	868	166.983486943544	0
0	874	169.195085104886	1
0	877	170.413681616092	0
0	903	177.964972491617	1
0	905	178.380365701474	2
0	907	178.41213636482	3
0	911	179.544551715518	4
0	913	180.126515636313	5
0	915	180.164274928152	6
0	918	180.415787675447	5
0	924	181.470903494824	6
0	927	182.314618856539	7
0	928	182.470938693373	6
0	934	182.641616178992	5
0	939	183.276924848172	4
0	947	184.716642404683	3
0	951	185.477647301039	4
0	953	186.631653557499	5
0	956	188.000101097125	4
0	960	188.197713491204	5
0	963	188.667196941105	4
0	968	189.377702397453	3
0	972	189.503246235849	4
0	975	189.858151348872	3
0	979	189.904736071389	4
0	983	191.28019398644	3
0	988	192.435271314768	2
0	994	192.957861059245	3
0	998	195.885320555906	4
0	1003	198.327560394915	3
0	1008	198.968619440972	2
0	1015	199.551865878904	3
0	1016	200.333634426323	2
0	1022	201.420527482655	3
0	1023	201.752646289797	2
0	1034	204.42606014979	3
0	1037	205.765185571959	4
0	1040	205.907994763252	3
0	1045	206.217425169055	2
0	1052	206.658294026859	1
0	1057	206.957344377422	0
0	1061	207.179222658623	1
0	1065	207.799606750256	2
0	1067	208.057857480377	3
0	1072	210.849809095448	2
0	1076	213.893797246608	3
0	1080	215.79054354786	4
0	1083	216.526878751989	3
0	1090	218.584536555578	2
0	1096	219.331255455491	3
0	1097	219.453222841344	2
0	1104	219.864974549851	1
0	1110	220.565717803565	0
0	1121	221.590431003815	1
0	1122	221.593284937079	0
0	1134	223.287526288151	1
0	1135	223.467364579037	0
0	1146	224.866281768215	1
0	1147	225.402421155898	0
0	1151	226.374867558911	1
0	1160	230.858951056115	0
0	1189	233.293467779961	1
0	1192	233.915455381136	0
0	1199	234.65968059288	1
0	1200	234.938021151033	0
0	1231	240.231377826494	1
0	1233	240.248390381791	2
0	1234	240.932122116079	1
0	1239	241.062687849261	0
0	1246	244.547066815281	1
0	1247	244.769602958743	0
0	1267	246.126218032566	1
0	1269	246.521485769202	2
0	1273	247.180840305998	3
0	1277	247.96049770229	2
0	1282	249.048812220467	1
0	1288	250.281056955365	2
0	1296	254.983595129406	3
0	1297	255.791779670775	2
0	1303	256.409963529126	1
0	1308	256.452372407524	0
0	1335	262.899670977538	1
0	1339	263.068919481756	2
0	1340	263.841541411927	1
0	1346	264.312669640572	0
0	1363	265.955407864367	1
0	1365	266.494312766736	2
0	1366	266.5063014633	1
0	1373	266.995086552774	2
0	1374	267.036880663942	1
0	1380	267.860424333249	2
0	1382	268.047681260659	3
0	1384	269.289683504549	4
0	1389	269.739299072787	3
0	1393	269.778536908614	4
0	1397	270.674359535279	3
0	1404	271.165593486419	4
0	1407	272.010811851844	5
0	1409	273.925373788574	6
0	1410	274.08366074991	5
0	1415	274.709894659387	4
0	1419	275.581303705622	5
0	1423	275.89781865553	6
0	1425	275.985402031302	7
0	1426	276.032510040949	6
0	1430	276.406981507113	7
0	1433	277.67474709435	6
0	1437	277.707174351251	7
0	1442	279.787401509887	6
0	1447	279.86010681151	5
0	1453	279.9824044636	6
0	1456	280.415975222699	7
0	1457	281.170271403609	6
0	1462	281.189974469746	5
0	1466	281.648283217901	6
0	1468	281.664733428763	7
0	1472	282.404062178663	8
0	1475	283.617334128351	7
0	1483	284.186674120798	8
0	1484	284.701719229668	7
0	1488	284.735833909813	8
0	1497	289.870984733208	7
0	1502	290.417957899761	6
0	1507	290.555978156208	5
0	1513	291.472987068711	6
0	1516	293.549317625129	5
0	1521	294.61305756446	4
0	1530	297.424499214085	3
0	1539	299.326186772519	2
0	1543	299.38034119219	3
0	1545	299.668879731379	4
0	1547	300.781578807057	5
0	1552	302.058061666738	6
0	1554	302.163530130307	7
0	1556	302.322717791687	6
0	1561	302.374885196538	5
0	1566	302.808992744355	4
0	1570	302.925361954236	5
0	1573	303.889583327739	4
0	1579	304.413931252589	5
0	1580	304.415574848974	4
0	1584	304.561249023143	5
0	1588	305.123953493868	6
0	1592	305.350586098533	7
0	1598	307.493572411059	6
0	1603	307.815877774958	5
0	1607	308.695345460962	6
0	1609	309.067978722638	7
0	1612	309.3139054004	6
0	1616	309.660599001183	7
0	1619	309.945853416389	6
0	1623	310.103821004171	7
0	1627	311.063943253383	8
0	1629	312.27764954104	9
0	1630	312.500105695965	8
0	1637	313.660128125443	9
0	1640	315.384816240756	8
0	1647	316.068735976292	7
0	1652	317.442260875681	6
0	1657	317.755621711381	5
0	1661	318.160055950999	6
0	1663	318.548791989236	7
0	1667	320.779896690459	8
0	1671	321.829210034219	9
0	1672	322.078565939787	8
0	1676	322.936011725687	9
0	1683	325.490114038852	8
0	1688	326.371050413101	7
0	1694	327.799137392814	8
0	1695	328.11597288095	7
0	1699	328.18371882255	8
0	1707	329.049862077709	9
0	1710	329.319050047348	10
0	1715	331.805028294954	9
0	1722	332.826638453743	10
0	1723	333.286187984519	9
0	1729	334.108608046055	10
0	1730	334.824020987158	9
0	1734	337.253082712692	10
0	1737	337.563137803136	9
0	1742	337.8853123677	8
0	1747	338.893338974357	7
0	1753	339.266140216047	8
0	1757	340.03054046311	9
0	1758	340.075963697527	8
0	1765	341.110050327293	7
0	1769	341.192599947025	8
0	1771	341.25419037329	9
0	1775	343.014161410613	10
0	1778	343.091928432243	9
0	1783	343.820125959949	8
0	1787	343.825188363782	9
0	1790	344.133974256374	8
0	1794	344.714486377353	9
0	1798	345.536190775808	8
0	1803	345.596286491119	7
0	1807	346.278429483043	8
0	1810	347.333223819873	7
0	1815	347.703776207669	6
0	1821	349.206162402134	5
0	1827	349.301078760543	6
0	1830	350.909210726043	5
0	1835	351.524645252847	4
0	1839	352.613594056397	5
0	1841	352.941900275089	6
0	1847	353.903534252984	5
0	1852	354.647547750391	4
0	1857	355.816480699843	3
0	1863	357.084387563661	2
0	1868	357.34492362292	1
0	1874	358.986152508579	0
0	1899	364.623301338552	1
0	1901	365.721670884013	2
0	1903	366.207656894617	3
0	1904	366.549612706228	2
0	1909	366.749154907871	1
0	1915	367.723025475767	0
0	1919	367.760644705773	1
0	1924	368.475821595919	2
0	1926	369.03127435229	1
0	1931	369.193717400879	0
0	1942	374.160626769033	1
0	1944	374.975948445361	0
0	1950	375.294812820781	1
0	1952	375.845743582417	0
0	1968	377.809802459071	1
0	1969	378.150525476171	0
0	1990	381.223231498887	1
0	1995	382.798134601799	2
0	1998	383.302645211337	3
0	1999	383.780246484529	2
0	2004	384.012609736635	1
0	2008	384.195586522665	2
0	2011	386.205798888067	1
0	2015	386.510392234111	2
0	2017	386.678357283581	3
0	2021	391.974321494714	4
0	2024	392.31700105448	3
0	2028	392.423912171727	4
0	2030	393.513654951271	5
0	2033	394.890521286441	4
0	2038	395.377535102098	3
0	2042	395.986560346895	4
0	2044	397.804574441996	5
0	2046	398.443408111181	6
0	2050	399.054403998104	7
0	2052	399.117836044595	8
0	2053	399.268119290454	7
0	2059	400.915611866099	6
0	2069	403.551030812211	7
0	2073	404.007040257684	8
0	2076	405.413112489586	7
0	2080	407.950347760303	8
0	2083	409.004741083797	7
0	2090	410.071225940747	6
0	2095	411.001345884469	5
0	2099	411.164666516062	6
0	2101	413.207324905526	7
0	2104	413.877178208553	6
0	2109	414.333765256557	5
0	2114	414.652595281913	4
0	2119	414.823331820616	3
0	2125	415.647335370084	2
0	2131	416.01648779539	1
0	2136	416.607274960936	0
0	2140	417.098893421527	1
0	2143	417.394376822935	0
0	2147	417.440793827322	1
0	2150	419.015848487907	0
0	2154	419.065039357137	1
0	2159	421.64054600878	0
0	2169	424.687811077271	1
0	2172	424.893414438637	0
0	2178	425.544995125187	1
0	2179	425.841911314545	0
0	2183	426.04889456636	1
0	2185	427.897297379557	2
0	2187	428.409180226544	3
0	2190	429.351944619932	2
0	2195	430.555640510207	1
0	2199	430.888098029607	2
0	2203	433.274530730603	3
0	2204	434.186847181684	2
0	2208	434.544976241495	3
0	2212	438.104164790724	4
0	2214	438.904031475789	5
0	2217	441.320702230333	4
0	2222	442.730226530239	3
0	2226	443.737125023628	4
0	2230	444.363920245151	5
0	2231	444.534738666198	4
0	2235	445.018996179489	5
0	2238	445.915290368753	4
0	2242	446.39914718334	5
0	2249	448.283186482351	6
0	2250	448.493289052596	5
0	2257	449.22601953843	4
0	2262	450.080905281126	3
0	2269	452.59684757902	4
0	2270	453.74802779385	3
0	2276	454.374412134354	2
0	2284	455.225085580172	3
0	2285	455.55089580607	2
0	2290	456.932199922366	1
0	2298	457.600164182847	2
0	2300	457.954095106749	3
0	2303	458.087427198211	2
0	2307	458.377595987515	3
0	2309	458.909893764939	4
0	2312	459.939245980066	3
0	2318	460.832247893591	4
0	2319	461.241036391527	3
0	2323	463.258254689415	4
0	2327	464.770925230112	5
0	2330	465.185723378688	4
0	2334	466.428039390614	5
0	2336	467.790024019834	6
0	2339	468.518696514013	5
0	2343	468.550674775836	6
0	2347	473.57351012452	7
0	2350	474.65391984687	6
0	2356	477.901725817028	7
0	2361	479.088281797282	8
0	2362	479.89351923299	7
0	2367	480.430736449674	6
0	2371	480.487210198548	7
0	2377	482.233705361122	8
0	2379	482.52501758704	9
0	2382	483.643448365974	8
0	2388	484.387868584581	9
0	2390	484.916827409564	8
0	2395	486.349263519754	7
0	2400	486.508519856858	6
0	2406	487.476079212112	7
0	2410	488.167018368321	8
0	2412	488.293581651153	9
0	2414	488.522044039435	10
0	2415	488.78105878204	9
0	2419	489.045518780257	10
0	2421	489.471148975312	11
0	2425	493.204230134536	12
0	2428	493.722011022042	11
0	2434	494.413097254823	12
0	2439	495.815798524747	11
0	2443	495.833678782434	12
0	2445	496.381560052144	13
0	2453	498.290678526181	14
0	2454	499.565061439544	13
0	2459	500.078132757212	12
0	2464	500.543339451114	11
0	2469	500.65197658897	10
0	2473	501.913874630229	11
0	2479	503.365716109485	10
0	2484	504.137270123939	9
0	2490	505.19420647728	10
0	2491	505.241169197899	9
0	2495	507.073326769287	10
0	2501	508.81474129796	11
0	2502	510.253760794908	10
0	2509	510.474922339799	9
0	2515	510.670820733059	10
0	2516	510.704204111335	9
0	2522	511.087737094224	10
0	2524	511.515911768385	11
0	2525	511.549278612538	10
0	2535	513.480105804793	11
0	2536	514.382744765247	10
0	2540	514.728681086316	11
0	2544	515.670964490282	12
0	2547	516.098849999629	13
0	2552	516.786276853157	14
0	2554	516.960385796124	15
0	2555	517.487230377302	14
0	2560	517.508938611322	13
0	2566	517.536945842879	14
0	2568	518.375989139292	13
0	2573	518.445992796149	12
0	2579	519.241398574749	13
0	2581	519.257899832963	14
0	2583	519.680534751605	15
0	2586	520.630231002652	14
0	2590	522.061999368563	15
0	2592	522.079559499996	16
0	2595	523.213539316078	15
0	2601	523.928361083305	16
0	2604	524.310502722607	17
0	2606	524.430304349843	18
0	2607	524.674516680348	17
0	2613	525.297479325259	16
0	2619	525.654710379825	15
0	2626	527.412532108964	14
0	2631	528.698145721232	13
0	2636	529.417547610269	12
0	2640	530.053335059345	13
0	2644	530.754758980193	12
0	2649	531.13093548933	11
0	2654	532.26069138782	10
0	2659	532.705150644003	9
0	2664	537.060963148525	8
0	2670	538.000312114341	9
0	2672	538.908368666586	10
0	2673	538.92859393698	9
0	2678	539.797630094617	8
0	2682	540.205528993994	9
0	2684	540.208787496717	10
0	2686	542.517640121858	11
0	2688	543.734582552339	12
0	2692	544.666640017687	13
0	2696	547.116088135431	12
0	2701	547.99910405057	11
0	2707	548.342732732278	12
0	2709	548.582219287772	13
0	2711	548.788728529228	12
0	2718	549.638126959522	11
0	2722	550.145860696233	12
0	2725	550.806442690268	11
0	2730	551.583849430828	10
0	2735	553.377244908524	9
0	2740	554.763755337782	8
0	2746	556.065112676343	9
0	2752	556.644500686849	10
0	2754	556.888187717789	11
0	2755	557.417891959399	10
0	2762	559.627124969391	9
0	2766	559.88098292952	10
0	2769	562.270667536172	9
0	2775	562.997937149084	10
0	2776	563.248724416886	9
0	2783	563.611050781146	8
0	2791	566.24506888427	9
0	2792	566.86161778247	8
0	2799	567.878797908762	7
0	2805	568.351217855347	8
0	2807	568.576526621255	9
0	2810	570.314358811768	10
0	2811	570.514634346849	9
0	2817	571.096075881577	8
0	2823	571.294352163407	7
0	2828	571.874272562772	6
0	2834	572.441809493211	5
0	2840	572.526491606598	6
0	2842	572.639260712745	7
0	2845	573.01228937221	8
0	2848	573.685185979584	9
0	2849	574.190002726111	8
0	2857	574.480378208188	9
0	2858	574.682649752884	8
0	2863	574.951703941084	7
0	2869	577.098319496911	6
0	2874	577.276873930815	5
0	2879	579.16532526374	4
0	2883	579.400058499678	5
0	2886	580.654371021427	4
0	2894	582.63189104045	3
0	2899	582.655674276876	2
0	2904	583.507689072589	1
0	2910	584.111449537023	2
0	2911	584.265284599573	1
0	2916	585.022617327908	0
0	2920	585.640228192415	1
0	2923	586.728256344008	0
0	2956	591.644067333426	1
0	2958	591.6713011419	2
0	2959	591.696946496395	1
0	2964	591.973721227302	0
0	2983	594.540194798588	1
0	2985	595.881092909412	2
0	2989	596.541758685571	3
0	2990	596.680361533865	2
0	2994	597.786352048552	3
0	2996	597.874366287782	4
0	3002	600.007827465497	3
0	3008	600.31025434543	4
0	3010	600.489010072216	5
0	3011	601.092064426743	4
0	3019	602.916802693963	3
0	3024	603.41512084818	2
0	3029	603.726566331165	1
0	3035	604.823476927551	2
0	3038	605.976333098437	1
0	3043	606.982396731984	0
0	3049	607.026880600736	1
0	3050	608.780306165208	0
0	3079	612.840593274998	1
0	3081	613.112728128047	2
0	3082	614.075456267358	1
0	3087	614.354045902737	0
0	3096	614.550980336053	1
0	3098	616.188205268268	2
0	3105	619.568390817232	1
0	3116	620.875756086617	0
0	3120	621.038727704505	1
0	3123	621.819425676305	0
0	3130	622.238133694905	1
0	3131	622.418821760193	0
0	3142	623.121489353405	1
0	3143	623.184035401085	0
0	3147	624.139419220128	1
0	3152	627.042788369387	0
0	3156	627.722153899412	1
0	3162	629.123062273754	2
0	3163	629.864873202047	1
0	3167	630.092768341521	2
0	3170	631.018808550907	1
0	3177	631.561075649825	2
0	3181	632.951186710429	3
0	3182	633.436150497267	2
0	3187	633.695880783762	1
0	3194	635.098938057902	0
0	3225	641.055951376352	1
0	3226	641.100411552337	0
0	3235	642.787801997843	1
0	3237	642.900974697042	2
0	3239	643.161427578336	3
0	3242	643.682219619632	2
0	3248	644.185778934495	1
0	3253	644.31547515637	0
0	3264	645.275920051621	1
0	3265	645.279044084316	0
0	3271	645.666706495707	1
0	3273	646.710777289743	2
0	3275	647.895745690134	3
0	3277	648.3211840102	4
0	3282	648.960040171299	5
0	3284	648.997532782489	6
0	3285	649.388772799833	5
0	3291	651.270046972065	4
0	3296	651.72430464849	3
0	3302	651.991150379836	4
0	3305	653.039048753085	3
0	3314	653.578051050944	4
0	3315	653.756198982149	3
0	3321	654.167200813902	4
0	3322	654.599065491617	3
0	3331	658.488900907533	4
0	3334	659.345098107088	3
0	3340	659.882904261704	4
0	3341	660.339269038777	3
0	3346	660.841976088774	2
0	3350	661.113671769692	3
0	3352	661.58024525592	4
0	3355	662.694582139438	3
0	3359	662.885631105419	4
0	3363	663.611704218489	5
0	3365	663.68390453157	4
0	3370	664.234404728859	3
0	3376	665.566212355943	4
0	3378	666.19297640077	3
0	3383	666.249083717434	2
0	3389	666.722161595135	1
0	3394	666.965865149693	0
0	3400	667.711082929259	1
0	3401	668.304394905961	0
0	3412	670.027742948128	1
0	3413	670.568598584626	0
0	3442	675.863365688606	1
0	3443	676.002601913426	0
0	3457	676.312400439532	1
0	3462	678.106234566798	2
0	3463	678.112798966932	1
0	3468	679.284089865279	0
0	3475	679.440249375918	1
0	3476	679.479626889682	0
0	3480	679.602109477637	1
0	3484	681.629750533831	2
0	3485	682.295789507271	1
0	3491	684.55943882145	0
0	3538	696.968268421271	1
0	3539	697.083482973605	0
0	3550	698.992680424557	1
0	3552	699.215076519716	2
0	3553	699.514725178377	1
0	3559	699.842258464692	2
0	3560	699.869909229766	1
0	3564	699.92714761178	2
0	3568	700.913931692677	3
0	3570	702.061498066017	4
0	3577	702.770691771799	3
0	3583	703.149896483069	2
0	3587	703.870205657913	3
0	3589	704.119933681466	4
0	3592	704.848177193697	3
0	3598	705.285307610185	4
0	3599	705.620008099672	3
0	3604	706.51107080263	2
0	3610	706.666612542022	3
0	3613	706.960553937996	4
0	3614	710.548886304992	3
0	3619	710.757357068004	2
0	3625	711.982695503612	3
0	3627	712.504021065859	2
0	3635	712.951201131495	3
0	3637	713.451469476314	4
0	3639	713.682584395881	5
0	3640	713.991317015731	4
0	3645	714.002781573548	3
0	3651	714.200396320867	4
0	3652	714.479676756061	3
0	3656	714.986818356406	4
0	3659	716.385485840489	3
0	3663	716.755837009509	4
0	3665	717.040234036862	5
0	3669	718.409433382086	6
0	3672	718.562642042762	5
0	3677	719.879509439687	4
0	3681	720.112196224078	5
0	3685	721.829609743669	4
0	3690	722.602431742085	3
0	3695	723.357288036641	2
0	3699	724.166695764025	3
0	3705	726.229399089205	4
0	3706	727.961611755432	3
0	3712	728.358427167827	4
0	3716	729.121715222126	5
0	3718	730.464119804545	6
0	3719	731.211150204322	5
0	3725	733.717782278003	6
0	3731	736.207215287558	5
0	3736	736.341871796689	4
0	3740	737.113205470864	5
0	3742	739.052812089998	6
0	3745	739.20500222737	5
0	3749	739.937098854323	6
0	3751	740.477301810076	7
0	3755	741.919255907248	8
0	3759	745.092517467806	9
0	3760	745.471835049916	8
0	3764	745.590600410438	9
0	3766	748.320216875562	10
0	3771	749.212166063241	9
0	3776	751.084839799294	8
0	3782	752.581851037399	9
0	3783	753.5861851535	8
0	3788	754.522998049007	7
0	3792	754.679266017822	8
0	3796	754.994895039362	9
0	3797	757.096637108869	8
0	3801	757.57963752081	9
0	3806	758.268620938678	8
0	3812	761.539805570345	9
0	3815	762.484498808645	8
0	3821	763.274151479452	9
0	3823	765.099741381185	10
0	3825	765.496851270306	9
0	3830	765.815998844424	8
0	3837	767.564286553543	7
0	3843	768.215949894311	8
0	3844	768.310283538337	7
0	3853	771.524082505708	6
0	3860	774.084314575338	5
0	3866	774.802814384644	6
0	3870	774.887527082611	7
0	3875	776.251967542708	6
0	3882	777.063632916942	5
0	3887	779.63994219984	4
0	3891	780.240873615434	5
0	3893	780.921033186153	6
0	3899	782.55413390501	7
0	3900	782.743735657653	6
0	3907	783.203220427438	5
0	3913	783.297338702683	4
0	3918	784.447069633133	3
0	3922	784.483645357146	4
0	3925	785.175270334876	3
0	3934	786.383262155259	2
0	3939	786.984014278817	1
0	3943	788.566519447014	2
0	3948	790.820369326353	1
0	3955	791.316356575284	2
0	3956	792.011841628459	1
0	3962	792.341958606646	2
0	3963	792.365824290192	1
0	3970	793.317364945603	0
0	3993	796.882762215097	1
0	3994	796.984092620888	0
0	4000	797.145217684489	1
0	4001	797.31045926043	0
0	4016	798.704095393418	1
0	4018	800.191845456741	2
0	4020	800.405587163487	3
0	4022	801.222069019854	4
0	4023	801.584284547971	3
0	4029	801.745297626884	4
0	4030	802.613058021299	3
0	4034	802.776758950102	4
0	4036	802.901422584286	5
0	4040	804.348579238218	4
0	4048	804.873717074231	5
0	4049	805.277651646741	4
0	4055	806.184404898061	5
0	4056	807.18597499678	4
0	4062	807.690628527624	5
0	4063	808.265843907784	4
0	4069	809.210081208048	5
0	4075	809.622448908798	6
0	4077	809.795303283189	7
0	4078	810.101543605352	6
0	4082	810.419938555108	7
0	4085	810.715371299121	6
0	4091	811.590184201968	7
0	4093	812.23570135571	8
0	4097	813.566174809557	9
0	4100	815.082790140947	8
0	4105	816.545815750474	7
0	4112	816.964722595769	6
0	4117	817.907070071227	5
0	4121	818.072142203548	6
0	4123	818.528897602	7
0	4126	820.773740576944	6
0	4130	821.459411625347	7
0	4137	823.721340074589	6
0	4142	824.311734875476	5
0	4150	825.438100542191	6
0	4151	825.608085857341	5
0	4158	827.208833468356	4
0	4164	827.725572802796	5
0	4165	828.902513260759	4
0	4169	829.009949544441	5
0	4176	830.33194652719	4
0	4187	832.262405528996	3
0	4193	832.398817519369	2
0	4198	832.931595170797	1
0	4204	833.450912061292	0
0	4233	835.926714776291	1
0	4239	837.327982775075	0
0	4243	838.192585642422	1
0	4246	839.44126765315	0
0	4250	839.569101221667	1
0	4254	840.809530596003	2
0	4257	841.431994966027	1
0	4261	842.1329313127	2
0	4264	843.100981745169	1
0	4269	843.40506909955	0
0	4277	846.573304387439	1
0	4279	846.882536059686	2
0	4281	847.057412543171	3
0	4282	847.559857162136	2
0	4287	850.896410671044	1
0	4294	851.27842363251	0
0	4298	852.25985038089	1
0	4301	853.917269986037	0
0	4339	860.835590620458	1
0	4342	861.082330208268	0
0	4355	862.955651151456	1
0	4356	863.011664238374	0
0	4370	864.881436198749	1
0	4374	865.593211113268	0
0	4380	865.620352311568	1
0	4381	865.96239565842	0
0	4395	870.065348703369	1
0	4399	870.744326693682	2
0	4403	872.695947781971	3
0	4407	873.743459652939	4
0	4411	874.048406567646	3
0	4417	875.20085474957	2
0	4423	875.349979717711	3
0	4424	875.491344739183	2
0	4431	877.515481991359	1
0	4436	877.862482423754	0
0	4440	878.002689638178	1
0	4444	878.2646416671	2
0	4445	878.44520406225	1
0	4450	879.94593386438	0
0	4456	885.294181719352	1
0	4461	885.905714372503	0
0	4472	889.5103802175	1
0	4473	889.991769493939	0
0	4494	893.1548976188	1
0	4495	893.838241123218	0
0	4501	894.289833558138	1
0	4503	894.464428120757	2
0	4504	895.46453707256	1
0	4510	895.848066111476	2
0	4511	896.047978234631	1
0	4515	896.168182573442	2
0	4517	897.623011840376	3
0	4521	898.285648979574	4
0	4523	899.353593398233	3
0	4532	900.723723049702	2
0	4539	900.907810857229	3
0	4540	900.993978550147	2
0	4545	901.431821289473	1
0	4551	901.935604483499	0
0	4557	902.691293848267	1
0	4558	902.984236183339	0
0	4569	903.418494525138	1
0	4573	905.046267540563	2
0	4576	905.805532865575	1
0	4582	906.809593647398	2
0	4585	908.824145203021	3
0	4587	909.177607672384	4
0	4588	909.569380112943	3
0	4593	910.191270917506	2
0	4598	910.259673890147	1
0	4605	912.858363224821	0
0	4616	913.442070616549	1
0	4618	914.293155856607	2
0	4620	914.548706247209	3
0	4621	914.970346514279	2
0	4627	915.44272193843	3
0	4633	916.94936120964	4
0	4636	917.778709779379	5
0	4637	918.116862610739	4
0	4642	918.443004250578	3
0	4647	919.096299149875	2
0	4652	919.806719495319	1
0	4656	919.897760896509	2
0	4658	919.975329437527	3
0	4660	920.054835175154	4
0	4663	921.539289597413	3
0	4672	925.694639607585	4
0	4675	926.61656697562	5
0	4676	926.699459285865	4
0	4682	928.316599592328	5
0	4683	928.668623854406	4
0	4689	929.062000379411	3
0	4698	929.552461588983	2
0	4706	930.399862248506	3
0	4709	932.136709609424	2
0	4714	932.519063130378	1
0	4721	934.045772894534	0
0	4729	934.857190579374	1
0	4731	935.133639815168	2
0	4733	935.202524970189	3
0	4735	935.674732289918	4
0	4736	935.767665786721	3
0	4741	936.441900370734	2
0	4747	938.181607299758	3
0	4748	938.185724012924	2
0	4753	939.347367512466	1
0	4759	940.066095722991	0
0	4771	941.603124885291	1
0	4774	942.14912323316	0
0	4792	943.008991084795	1
0	4795	943.31711373916	2
0	4797	943.546014495528	3
0	4798	944.177061459395	2
0	4803	944.79330343792	1
0	4809	945.192229987185	0
0	4823	948.266078297757	1
0	4824	948.523674619734	0
0	4830	949.435352040687	1
0	4832	949.630164620698	2
0	4835	950.863073625119	1
0	4840	951.531758724079	0
0	4854	952.655671048458	1
0	4856	953.397381134688	2
0	4858	953.87230174294	3
0	4862	954.874464080842	2
0	4869	955.063994333748	1
0	4874	955.190286673215	0
0	4881	957.406537262086	1
0	4882	958.32736148578	0
0	4899	959.581944513353	1
0	4901	959.798398148655	2
0	4903	959.819463910436	3
0	4905	959.850962105028	4
0	4910	961.957065252682	3
0	4919	964.166650848811	2
0	4925	964.984149885583	3
0	4927	965.123368649714	4
0	4929	965.237605196534	5
0	4930	965.267584338093	4
0	4936	965.947952596753	5
0	4937	967.225056101814	4
0	4944	968.285739110997	5
0	4946	968.684807696051	6
0	4947	969.587370751285	5
0	4952	969.614270850101	4
0	4957	970.371539542284	3
0	4961	973.402946945551	4
0	4963	973.465669104276	5
0	4968	974.517314647671	4
0	4973	975.039803923155	3
0	4979	975.737671974028	4
0	4981	976.929918131337	5
0	4984	979.711484015825	4
0	4988	979.837006519097	5
0	4991	980.588767199702	4
0	4995	981.02425405927	5
0	4998	981.884062971751	4
0	5002	982.02441270292	5
0	5004	982.084123690569	6
0	5006	983.987224552785	7
0	5012	985.73539319811	8
0	5015	986.531009473651	7
0	5020	986.631015678499	6
0	5026	988.686253904162	7
0	5029	989.29132619406	6
0	5034	990.301131226255	5
0	5038	991.220746991215	6
0	5040	991.311421962859	7
0	5043	992.814926292019	6
0	5051	993.693000817686	7
0	5052	993.705288435549	6
0	5059	994.931251103585	5
0	5064	995.11888542613	4
0	5068	995.154148481563	5
0	5071	995.41845262285	4
0	5075	995.497728134731	5
0	5077	995.923952739643	6
0	5079	996.878886033942	7
0	5081	997.306121868191	8
0	5084	999.48795059529	7
0	5091	1001.419331712481	6
0	5099	1002.762531765895	7
0	5101	1003.128604979191	8
0	5102	1004.584365515707	7
0	5106	1005.469888509222	8
0	5109	1006.50904437593	7
0	5113	1006.670670188185	8
0	5115	1007.166137033891	9
0	5117	1007.441804709833	10
0	5119	1007.449098818925	11
0	5123	1007.704361310106	12
0	5126	1008.996166206455	11
0	5132	1009.412070585162	12
0	5133	1009.4240108819	11
0	5139	1009.726748327037	12
0	5140	1010.009680831898	11
0	5153	1014.092830177483	10
0	5157	1014.16743159838	11
0	5161	1014.89124506342	12
0	5164	1016.197542117691	11
0	5170	1016.700477537781	12
0	5172	1017.003817512387	11
0	5177	1017.489861429784	10
0	5186	1019.06284470944	9
0	5191	1019.12926225718	8
0	5197	1019.540045651592	7
0	5202	1020.712080377922	6
0	5207	1024.323370645158	5
0	5216	1028.299842668239	4
0	5220	1028.653052623222	5
0	5222	1029.361266107806	6
0	5224	1030.930967376773	7
0	5229	1032.67194804203	6
0	5234	1033.16025146957	5
0	5239	1033.757945536196	4
0	5245	1035.522620486853	3
0	5250	1035.678791047907	2
0	5257	1037.744969541077	1
0	5262	1037.862215456104	0
0	5266	1038.407518077641	1
0	5269	1041.645000949102	0
0	5310	1047.985835987581	1
0	5318	1049.00849861343	2
0	5319	1049.200720886196	1
0	5324	1049.602573404128	0
0	5333	1050.041395044061	1
0	5336	1051.417536694098	0
0	5340	1052.104848354054	1
0	5346	1053.105782099659	2
0	5349	1054.280929575313	1
0	5355	1055.121435219901	2
0	5356	1056.233294855119	1
0	5361	1058.016190818608	0
0	5372	1059.129610333471	1
0	5380	1061.719553298664	0
0	5422	1069.860827930737	1
0	5426	1073.653510004745	0
0	5442	1081.225352190415	1
0	5443	1081.514134184271	0
0	5447	1081.760558016993	1
0	5449	1081.769880675214	2
0	5454	1082.928880158034	1
0	5458	1083.211301429649	2
0	5460	1084.976580246143	3
0	5462	1085.859722670075	4
0	5464	1086.150255998554	5
0	5467	1087.332098922904	4
0	5473	1088.060254787194	5
0	5476	1089.118391022521	4
0	5482	1090.007864075071	5
0	5484	1090.24644739047	6
0	5486	1090.266615184399	7
0	5490	1090.772510808007	8
0	5491	1092.14250110127	7
0	5499	1093.449942944375	6
0	5505	1093.903542274848	5
0	5513	1095.790398100223	6
0	5515	1096.169268849964	7
0	5518	1096.271899218765	6
0	5523	1097.518972463423	5
0	5530	1098.875885340303	4
0	5535	1099.335865215366	3
0	5541	1099.52261592857	4
0	5543	1099.879153423968	5
0	5548	1102.881302809849	4
0	5554	1103.359540834525	5
0	5557	1107.130614578857	6
0	5559	1107.518745829766	7
0	5564	1108.814555830352	6
0	5569	1108.895846009094	5
0	5575	1109.859411214584	6
0	5578	1111.285754437079	5
0	5586	1112.205511873756	6
0	5588	1112.91460689381	7
0	5590	1113.096175074221	8
0	5592	1114.22307816667	9
0	5593	1114.749673020716	8
0	5599	1115.394638494952	9
0	5601	1115.460823528059	10
0	5603	1116.037880145647	11
0	5604	1116.493393162311	10
0	5609	1116.975017205503	9
0	5614	1117.912881586364	8
0	5620	1119.878235713775	9
0	5622	1121.579488279791	10
0	5626	1122.709808713928	11
0	5628	1122.889600891953	12
0	5629	1122.914486276455	11
0	5636	1126.435943125479	10
0	5641	1126.484458045801	9
0	5646	1126.542957761608	8
0	5653	1128.226048560717	9
0	5655	1129.031564193465	10
0	5656	1129.32655024356	9
0	5662	1130.013648767539	10
0	5663	1130.157964608432	9
0	5668	1131.561893931602	8
0	5677	1134.013715242875	7
0	5683	1134.104248236866	8
0	5684	1134.777443768294	7
0	5690	1136.622757957066	6
0	5696	1136.642751938097	5
0	5702	1137.11471006491	4
0	5708	1137.257733365969	5
0	5709	1137.283715862847	4
0	5713	1137.458918428923	5
0	5717	1137.855083132742	6
0	5719	1138.426577741586	7
0	5720	1139.191706884596	6
0	5730	1140.133090308471	7
0	5732	1140.444704783226	8
0	5734	1140.447021532625	9
0	5736	1140.552420196725	10
0	5743	1141.028531717049	9
0	5749	1142.349697320858	8
0	5755	1142.386480006559	9
0	5757	1142.560328117072	10
0	5758	1142.739250400145	9
0	5763	1143.284828510187	8
0	5768	1145.168944670095	7
0	5773	1147.958147520556	6
0	5779	1149.193683373636	7
0	5781	1149.415457957888	6
0	5787	1150.370044425738	5
0	5792	1150.42518746383	4
0	5796	1150.487979029593	5
0	5800	1154.123647834073	4
0	5807	1155.483939194927	3
0	5814	1157.442381009794	2
0	5818	1158.648634356319	3
0	5820	1159.189145218629	4
0	5825	1159.988094560284	5
0	5826	1160.765592321185	4
0	5833	1161.609091845883	5
0	5834	1161.647864540823	4
0	5840	1161.799149065106	3
0	5845	1162.650730266495	2
0	5849	1165.278991363625	3
0	5852	1165.482260282828	2
0	5858	1165.636918761004	3
0	5861	1165.884269825925	2
0	5865	1166.536331860996	3
0	5869	1166.980958169129	4
0	5872	1167.141761780982	3
0	5877	1167.277850353436	2
0	5882	1167.514432385737	1
0	5888	1167.899000385138	2
0	5889	1168.299450117312	1
0	5900	1170.033496524976	2
0	5902	1171.178014840242	3
0	5906	1171.72943796029	4
0	5907	1171.752448787042	3
0	5913	1172.248201443304	4
0	5914	1172.489688129168	3
0	5920	1173.870816150558	2
0	5925	1174.05724088186	1
0	5931	1175.241625902458	2
0	5933	1176.236433287711	3
0	5934	1176.852725800981	2
0	5938	1177.50820490262	3
0	5940	1178.547246847892	4
0	5942	1178.754771257476	5
0	5946	1179.106318895176	6
0	5948	1180.376409694944	7
0	5951	1183.221279571687	6
0	5955	1183.790876859036	7
0	5962	1185.800725725085	6
0	5966	1186.408121343847	7
0	5970	1187.850306434474	8
0	5972	1187.88753187777	9
0	5979	1189.135009489653	8
0	5985	1189.379665213611	9
0	5987	1190.271973495524	10
0	5988	1190.281899828724	9
0	5993	1190.48535458241	8
0	5999	1191.0515744388	7
0	6007	1191.817586115822	8
0	6008	1192.13754641527	7
0	6016	1193.033854560952	6
0	6023	1193.939004803663	5
0	6028	1194.175679064722	4
0	6032	1196.084220465682	5
0	6036	1197.75825919095	6
0	6040	1198.327513583464	7
0	6042	1198.949061595867	8
0	6045	1199.706676912048	7
0	6050	1200.322882302789	6
0	6056	1201.568966976496	5
0	6061	1201.601235061377	4
0	6065	1201.665019618624	5
0	6070	1202.699846536392	4
0	6074	1204.564559289401	5
0	6076	1204.850115596835	6
0	6080	1206.154131751489	7
0	6082	1207.277955367563	8
0	6085	1209.636332003504	9
0	6086	1209.668485705778	8
0	6091	1211.249626193806	7
0	6095	1211.297560706884	8
0	6099	1212.686028771069	9
0	6100	1213.502283727131	8
0	6106	1213.796773177389	9
0	6108	1214.698902231661	8
0	6115	1215.369169840209	9
0	6117	1215.693399809948	8
0	6122	1216.031575301519	7
0	6127	1217.093920811181	6
0	6132	1218.850354877806	5
0	6137	1219.297469691302	4
0	6141	1219.81956079763	5
0	6146	1221.052287533489	4
0	6150	1222.213719525185	5
0	6153	1223.445512783532	4
0	6160	1224.082948793073	5
0	6161	1224.896748957284	4
0	6166	1225.082920783776	3
0	6170	1225.414666975682	4
0	6174	1226.041312339433	5
0	6175	1226.275695786433	4
0	6179	1226.283993420866	5
0	6182	1228.031962339918	4
0	6186	1228.033713376451	5
0	6189	1228.433762960198	4
0	6196	1229.146822501668	5
0	6200	1229.493643098588	6
0	6204	1229.886524693769	7
0	6206	1229.914442245342	8
0	6207	1230.546480110761	7
0	6212	1231.033195894266	6
0	6216	1232.299349558832	7
0	6220	1232.626482847389	8
0	6221	1232.720735484746	7
0	6228	1233.640383467535	6
0	6233	1235.385909337304	5
0	6237	1235.940119373789	6
0	6241	1237.297248999303	5
0	6246	1237.382575726757	4
0	6251	1238.325965388371	3
0	6255	1238.835080570433	4
0	6258	1241.843908355786	3
0	6262	1242.891264331783	4
0	6266	1244.567301542489	5
0	6267	1245.058305507751	4
0	6274	1245.33335030302	5
0	6276	1245.596611145656	6
0	6277	1245.649918143676	5
0	6283	1245.992665362307	6
0	6284	1246.250679150549	5
0	6289	1246.435170936549	4
0	6294	1246.557862235273	3
0	6300	1248.144341489067	4
0	6303	1249.026273815844	3
0	6309	1249.658930492165	4
0	6310	1250.129131980987	3
0	6315	1251.346302100998	2
0	6320	1251.868767417138	1
0	6328	1253.93244339734	0
0	6370	1258.796094074323	1
0	6376	1261.31485266002	2
0	6378	1261.369737569712	3
0	6379	1261.897896541471	2
0	6384	1262.276892818041	1
0	6389	1263.028699667338	0
0	6410	1267.202148301487	1
0	6412	1268.422707795379	2
0	6413	1268.660002972312	1
0	6417	1269.163500933177	2
0	6420	1269.908794910655	1
0	6427	1270.993418653196	0
0	6431	1271.993756860137	1
0	6435	1273.469086264112	0
0	6446	1275.549483688178	1
0	6449	1276.495757732722	0
0	6464	1279.472805253363	1
0	6470	1280.668926839147	2
0	6473	1281.275574994512	3
0	6474	1281.392384976851	2
0	6479	1281.98614952836	1
0	6484	1282.225214282793	0
0	6488	1282.864860796698	1
0	6491	1283.25453864713	0
0	6497	1283.814712261296	1
0	6499	1284.910423439596	2
0	6502	1285.642640469279	1
0	6512	1286.780493477572	0
0	6531	1291.219481042434	1
0	6534	1291.756359117966	0
0	6562	1293.742753124313	1
0	6564	1294.256425193843	0
0	6581	1295.26246016081	1
0	6583	1297.018883757805	0
0	6594	1297.348725040487	1
0	6597	1297.874679177929	0
0	6613	1299.377460371721	1
0	6615	1299.488864405128	2
0	6617	1299.623589234575	3
0	6623	1300.90790175519	2
0	6629	1301.240033889022	1
0	6633	1301.773264915646	2
0	6635	1302.688404332182	3
0	6640	1304.737648208769	2
0	6645	1307.112043723442	1
0	6650	1308.716868231565	0
0	6673	1311.268962763193	1
0	6674	1311.276979415784	0
0	6703	1318.923976991279	1
0	6704	1319.668335117318	0
0	6729	1321.486669653575	1
0	6730	1321.924369332106	0
0	6767	1326.221449887919	1
0	6770	1326.499818608293	2
0	6772	1326.949033915216	3
0	6774	1327.419253100793	2
0	6779	1327.980854520338	1
0	6786	1328.820609533751	2
0	6787	1329.032497800971	1
0	6793	1329.191907079142	2
0	6795	1329.428017514231	1
0	6804	1330.747642749711	2
0	6805	1330.913067877518	1
0	6811	1331.684377575549	2
0	6813	1331.692821643714	3
0	6814	1331.741902103852	2
0	6821	1336.36917532134	1
0	6825	1337.380315727974	2
0	6828	1338.283596046002	1
0	6834	1340.923864833158	2
0	6836	1341.591749752532	3
0	6838	1342.318845337527	4
0	6839	1342.381516709282	3
0	6846	1343.683750900988	2
0	6850	1344.136360450033	3
0	6852	1344.964254150719	4
0	6857	1347.782859322798	3
0	6862	1348.992717616599	2
0	6868	1350.266660171108	3
0	6870	1351.229265800002	4
0	6874	1352.300587695234	5
0	6876	1352.461665611586	6
0	6878	1352.467827121115	7
0	6879	1352.536893016025	6
0	6886	1354.438339068802	5
0	6890	1354.62142352719	6
0	6892	1355.254211918521	7
0	6896	1355.488912526929	8
0	6899	1355.629930803391	7
0	6904	1356.126223504351	6
0	6912	1357.983278582217	7
0	6915	1359.110211724733	6
0	6921	1359.23086826599	7
0	6922	1359.699558367728	6
0	6927	1363.175585175301	5
0	6931	1363.790629758081	6
0	6935	1363.954883989546	5
0	6940	1364.222259788475	4
0	6944	1364.503326312282	5
0	6946	1365.008994675572	6
0	6949	1366.135520388817	5
0	6954	1368.206354679868	4
0	6958	1368.442629365621	5
0	6962	1369.192628462076	4
0	6967	1369.428357950887	3
0	6977	1371.761094844177	4
0	6978	1371.783296291263	3
0	6982	1372.42192076599	4
0	6984	1373.09892556463	5
0	6987	1374.099780451437	4
0	6998	1375.441862199983	5
0	7000	1376.597227948537	4
0	7006	1376.688507954147	5
0	7008	1377.547602566604	4
0	7013	1378.427471940317	3
0	7019	1378.923867989946	4
0	7020	1379.640701508799	3
0	7025	1379.806887700423	2
0	7030	1380.384994780182	1
0	7034	1381.161619754188	2
0	7038	1384.16199436447	3
0	7040	1385.453811854681	2
0	7045	1385.776514740945	1
0	7055	1388.037198608875	0
0	7061	1388.170298681303	1
0	7062	1388.283418293011	0
0	7066	1388.931679862541	1
0	7068	1390.785489012614	2
0	7071	1391.300487134953	1
0	7082	1392.294084282033	2
0	7083	1392.854764947748	1
0	7091	1393.709954678377	0
0	7102	1394.348169537694	1
0	7105	1395.049538103192	0
0	7117	1396.417723888404	1
0	7120	1396.665368634248	0
0	7126	1397.768256911087	1
0	7128	1399.922821336923	2
0	7129	1400.111818673159	1
0	7134	1400.793582341814	0
0	7138	1401.168693340139	1
0	7142	1402.655096	2
0	7143	1402.666630467199	1
0	7151	1404.753595202547	2
0	7153	1405.316658773032	3
0	7154	1405.328368164606	2
0	7158	1405.746215673588	3
0	7160	1407.424039705858	4
0	7163	1408.101048767754	3
0	7168	1408.57171183657	2
0	7174	1408.980568661622	3
0	7177	1410.185091361374	2
0	7181	1411.229555326213	3
0	7186	1412.313088618992	2
0	7191	1412.879132061983	1
0	7196	1414.761730958118	0
0	7200	1414.858987406843	1
0	7203	1416.676017969879	0
0	7209	1420.444093522726	1
0	7212	1420.578270155692	0
0	7230	1423.00873093748	1
0	7231	1423.601706251547	0
0	7235	1424.122959448687	1
0	7239	1425.541523208785	2
0	7241	1426.520831371047	1
0	7247	1427.335434758883	0
0	7256	1429.083792194159	1
0	7260	1430.17060251744	2
0	7261	1430.740491625784	1
0	7266	1430.812707705365	0
0	7272	1430.857384543886	1
0	7274	1430.872938125656	2
0	7275	1431.006246131932	1
0	7280	1433.565761367879	0
0	7286	1434.743758220795	1
0	7288	1435.074629835094	2
0	7289	1435.114877593437	1
0	7295	1435.955924836553	2
0	7296	1436.531322738646	1
0	7301	1437.627715076076	0
0	7309	1438.979217357288	1
0	7310	1439.049805949093	0
0	7314	1439.514541989472	1
0	7317	1440.803233539347	0
0	7334	1441.815486914683	1
0	7335	1442.139702216755	0
0	7342	1444.977849994743	1
0	7343	1445.910539740416	0
0	7371	1449.020336528165	1
0	7378	1449.758956830757	0
0	7392	1450.678164422252	1
0	7394	1450.83535974692	2
0	7396	1451.093910165862	3
0	7399	1451.32343479199	2
0	7404	1451.47185216521	1
0	7409	1453.342805873512	0
0	7427	1456.88181258963	1
0	7434	1457.499125289837	2
0	7435	1457.949626537726	1
0	7440	1458.051546008148	0
0	7449	1459.403694336788	1
0	7451	1460.983835958629	2
0	7453	1461.122757541445	3
0	7460	1463.679277766517	4
0	7461	1464.193275244415	3
0	7466	1464.822474937362	2
0	7470	1465.420003660956	3
0	7472	1466.160142290228	4
0	7478	1467.447812758682	5
0	7482	1468.07048511394	6
0	7483	1468.095649060523	5
0	7490	1468.881663817784	4
0	7495	1469.535818576688	3
0	7501	1471.513911942936	4
0	7502	1472.076163486414	3
0	7506	1472.194706770467	4
0	7511	1473.040894982535	3
0	7516	1474.803171885011	2
0	7520	1475.401942864967	3
0	7524	1477.118694168793	4
0	7528	1477.709386780538	5
0	7529	1477.731915765443	4
0	7533	1478.437833270913	5
0	7538	1479.023750044124	4
0	7543	1483.093542581833	3
0	7548	1483.330709378489	2
0	7555	1485.048551047014	1
0	7559	1485.094969908175	2
0	7563	1485.248577287671	3
0	7565	1486.318849444317	2
0	7571	1486.641539218325	1
0	7577	1487.290209419434	2
0	7579	1487.445979325712	3
0	7580	1487.578771760456	2
0	7586	1488.508199419532	3
0	7590	1488.781199014584	4
0	7591	1489.107267472754	3
0	7598	1490.976020391143	2
0	7602	1491.173019241643	3
0	7605	1491.694524636107	2
0	7609	1491.729493888169	3
0	7612	1491.881709299358	2
0	7616	1492.53818601201	3
0	7619	1493.464227792535	2
0	7628	1494.467976625297	3
0	7630	1494.765333830369	2
0	7635	1495.161252252959	1
0	7640	1495.263747613959	0
0	7663	1497.978270623029	1
0	7664	1499.237744685678	0
0	7668	1499.247453962033	1
0	7671	1501.620069459448	0
0	7684	1503.590410565679	1
0	7687	1504.936184788546	2
0	7689	1505.242397786083	1
0	7695	1507.698408074193	2
0	7696	1507.935977677222	1
0	7701	1508.560042137242	0
0	7709	1509.699727084756	1
0	7710	1510.492014280635	0
0	7714	1510.518519413952	1
0	7718	1511.703587270671	2
0	7719	1511.831552548888	1
0	7725	1513.303987318334	2
0	7726	1514.083614718576	1
0	7731	1516.990450557815	0
0	7762	1521.09202799443	1
0	7768	1522.921301053747	2
0	7770	1523.153437916435	3
0	7778	1527.446166267771	4
0	7782	1529.049814388329	5
0	7784	1529.745485011634	4
0	7792	1530.554178144034	5
0	7796	1531.490977794909	4
0	7802	1532.239812028925	3
0	7809	1534.717889378	2
0	7816	1536.064210152046	1
0	7822	1536.894370969366	0
0	7835	1540.177542153774	1
0	7838	1540.925070559689	2
0	7839	1541.212233795968	1
0	7845	1541.796851124023	0
0	7861	1543.088665673373	1
0	7864	1543.844046019311	2
0	7866	1544.61514979434	1
0	7871	1544.831201018783	0
0	7891	1547.254435606842	1
0	7893	1547.429712794888	2
0	7897	1548.675722978305	3
0	7898	1549.858215999448	2
0	7904	1550.006402839211	3
0	7908	1550.984812944489	4
0	7911	1551.571147543294	3
0	7919	1552.293915767891	4
0	7921	1552.562786647419	5
0	7923	1552.917842460137	6
0	7926	1553.62621174324	5
0	7932	1554.422894289007	6
0	7939	1554.549838997128	7
0	7942	1555.171173146576	6
0	7948	1556.551253293373	5
0	7954	1557.224987884111	6
0	7955	1557.240974046529	5
0	7961	1558.124895355657	6
0	7962	1558.966270652095	5
0	7970	1563.76907957976	4
0	7975	1564.061621394016	3
0	7981	1564.558679906044	2
0	7992	1566.981841369396	3
0	7993	1567.918484860806	2
0	7998	1568.495478762635	1
0	8002	1569.396665387094	2
0	8004	1571.949124203834	3
0	8007	1572.220084166043	2
0	8012	1572.792219246695	1
0	8017	1573.481715649483	0
0	8046	1579.473867294844	1
0	8049	1580.370790956387	0
0	8067	1583.207993893928	1
0	8069	1584.227281093455	0
0	8084	1586.237380658426	1
0	8086	1586.681470044094	2
0	8088	1587.578120393177	3
0	8090	1587.749593200499	4
0	8092	1588.64954373279	5
0	8098	1589.479200770557	6
0	8100	1589.895891012702	5
0	8105	1590.033678308466	4
0	8110	1590.066336451071	3
0	8117	1591.961454410006	2
0	8124	1593.956664471708	1
0	8130	1594.534733197598	2
0	8134	1595.012821200506	3
0	8137	1595.789499205373	2
0	8142	1597.440283456029	1
0	8149	1598.68297216117	0
0	8153	1599.491355853482	1
0	8155	1599.598233338482	2
0	8158	1600.414102702883	1
0	8165	1603.151352787836	0
0	8192	1605.595816243195	1
0	8193	1606.887536757602	0
0	8199	1607.636154020544	1
0	8202	1607.841951223427	0
0	8213	1608.340073709248	1
0	8216	1610.591529310956	0
0	8227	1611.766108495026	1
0	8229	1612.275398477859	0
0	8237	1613.566409265117	1
0	8238	1613.578749760046	0
0	8251	1614.022448711007	1
0	8253	1614.06022412813	2
0	8255	1614.412428065685	1
0	8260	1614.426069658456	0
0	8277	1616.785595726064	1
0	8278	1616.887132569034	0
0	8284	1616.988244617678	1
0	8285	1617.01895872325	0
0	8289	1617.129127097746	1
0	8291	1617.399375990291	2
0	8295	1618.016368695921	1
0	8301	1618.083533567728	0
0	8305	1619.503614351715	1
0	8307	1619.964890020573	2
0	8309	1621.288869859426	3
0	8311	1622.738539980292	4
0	8313	1623.077013368837	5
0	8315	1624.20873087784	6
0	8320	1625.263520183834	5
0	8326	1626.162177681093	6
0	8328	1626.716139193255	7
0	8332	1627.116222314532	8
0	8334	1627.270389649582	9
0	8335	1627.407176091312	8
0	8340	1627.557753796182	7
0	8345	1627.895864081876	6
0	8353	1629.542876474948	5
0	8359	1629.828916694985	6
0	8360	1630.250657345829	5
0	8366	1630.908818134141	6
0	8368	1631.709250342699	7
0	8373	1633.006220019837	8
0	8376	1634.970159121701	7
0	8381	1635.416913381552	6
0	8394	1641.097342458002	7
0	8395	1641.241983077848	6
0	8400	1641.516222689245	5
0	8405	1642.755218016083	4
0	8410	1643.23692075267	3
0	8416	1643.615291574518	4
0	8417	1643.661977949627	3
0	8421	1644.234587876949	4
0	8425	1645.923980867156	5
0	8427	1647.0663141333	6
0	8430	1647.445802004845	5
0	8435	1649.575882371438	4
0	8439	1649.826624284896	5
0	8443	1650.894717571814	6
0	8446	1651.315041813337	5
0	8450	1651.561382315787	6
0	8454	1653.08312892127	5
0	8459	1653.134151754133	4
0	8463	1653.302738495188	5
0	8467	1654.160773390271	6
0	8470	1654.299276883525	7
0	8471	1654.510604607322	6
0	8478	1654.750975131916	5
0	8482	1655.319481327679	6
0	8492	1658.035427152169	7
0	8493	1658.151125709434	6
0	8499	1658.646357562123	5
0	8505	1658.834331424621	6
0	8506	1658.913890529466	5
0	8511	1658.970476685274	4
0	8517	1659.748551803203	5
0	8518	1659.807651964237	4
0	8522	1660.693802936642	5
0	8531	1663.850500716607	6
0	8532	1663.902171647441	5
0	8537	1664.166527586682	4
0	8543	1664.466369671996	5
0	8544	1664.641542549393	4
0	8550	1664.880323526039	5
0	8552	1665.260932644574	4
0	8557	1666.584145932082	3
0	8564	1667.51178836206	2
0	8572	1669.907243209334	3
0	8573	1669.975704756113	2
0	8583	1671.292105954706	3
0	8584	1671.917843387578	2
0	8590	1671.952636271543	3
0	8593	1672.270111000345	2
0	8601	1674.819410071684	3
0	8603	1675.276761514559	4
0	8604	1676.210594017234	3
0	8610	1677.357635260468	4
0	8611	1677.480998531118	3
0	8615	1678.605458636218	4
0	8619	1679.383214180068	5
0	8622	1680.07077532251	4
0	8629	1682.927621748622	5
0	8631	1683.892267574464	6
0	8632	1684.548177728005	5
0	8638	1684.991632008633	4
0	8643	1687.03813045027	3
0	8651	1689.831102828553	4
0	8652	1690.157697166291	3
0	8656	1690.602877191671	4
0	8658	1690.972432636134	5
0	8660	1691.687437758008	6
0	8665	1693.232462447484	5
0	8671	1694.049293319894	6
0	8672	1694.254346356686	5
0	8678	1694.724989532765	4
0	8683	1694.808469043631	3
0	8689	1696.141440130992	2
0	8700	1697.615078012922	3
0	8702	1697.92369574537	4
0	8703	1698.187171626512	3
0	8709	1698.279499513678	4
0	8711	1699.519771338273	3
0	8717	1700.083621121262	4
0	8719	1700.272667742923	5
0	8720	1700.662336387601	4
0	8732	1704.891711525872	5
0	8733	1704.922452986542	4
0	8741	1706.221427252703	3
0	8746	1707.430515550925	2
0	8751	1708.244128285902	1
0	8756	1708.588705486676	0
0	8762	1708.613597002945	1
0	8765	1710.098358123342	0
0	8771	1710.403425490424	1
0	8772	1710.829980115841	0
0	8798	1713.618465667739	1
0	8804	1716.583108020297	2
0	8806	1716.770620583483	3
0	8808	1717.410372675649	4
0	8809	1718.878487305978	3
0	8814	1720.372451331112	2
0	8819	1720.575298309657	1
0	8827	1724.140837284673	2
0	8828	1724.583867681645	1
0	8834	1725.145066791316	2
0	8840	1725.667984659613	1
0	8844	1726.203093807222	2
0	8846	1726.553843511951	3
0	8850	1728.476434769751	4
0	8853	1730.140822737845	3
0	8857	1731.234428471451	4
0	8861	1733.34576023883	5
0	8863	1734.060765169625	6
0	8867	1735.768521281437	7
0	8868	1736.005166752291	6
0	8874	1738.553006207589	7
0	8879	1738.979187441976	8
0	8881	1739.181212339945	7
0	8888	1740.522102337967	6
0	8892	1741.525747243829	7
0	8895	1742.941217134195	6
0	8900	1743.702142768259	5
0	8905	1744.792931234582	4
0	8909	1744.822854342675	5
0	8911	1745.060906508399	6
0	8914	1745.718336825078	5
0	8918	1745.791864527283	6
0	8921	1745.970873672919	5
0	8927	1746.655697051518	6
0	8928	1747.03764776303	5
0	8934	1747.647642125193	6
0	8936	1748.299865412274	5
0	8942	1748.337925851597	6
0	8944	1748.687231901242	7
0	8946	1749.552733798035	6
0	8954	1750.353273819927	5
0	8960	1750.768766674278	4
0	8965	1750.808195887217	3
0	8972	1752.197783879758	4
0	8973	1752.280621898732	3
0	8979	1752.782183056711	2
0	8985	1752.951804930324	3
0	8986	1753.66789009831	2
0	8990	1754.014688785141	3
0	8992	1754.095285358702	4
0	8996	1754.295744204423	5
0	9001	1759.811705318806	4
0	9005	1760.228252604608	5
0	9007	1760.266995491422	6
0	9009	1761.16824894423	7
0	9013	1762.338718772308	8
0	9016	1762.772016208969	7
0	9023	1765.873292778082	6
0	9029	1766.726427116655	7
0	9031	1767.055791266304	8
0	9033	1768.336889800515	9
0	9038	1769.599752655314	8
0	9044	1771.153488594239	7
0	9049	1772.314804211965	6
0	9054	1773.423213617023	5
0	9058	1774.661067471586	6
0	9061	1777.032456749791	5
0	9069	1779.450472189405	6
0	9074	1780.305258455968	7
0	9075	1780.632759000511	6
0	9080	1780.916543300286	5
0	9086	1781.761586553286	4
0	9091	1781.991425206652	3
0	9096	1782.845520220061	2
0	9102	1783.620168196445	3
0	9105	1785.261657049656	2
0	9111	1785.742889363477	3
0	9112	1785.776587331801	2
0	9117	1786.985535808252	1
0	9121	1787.258245904509	2
0	9124	1788.053724291867	1
0	9129	1789.408010600448	0
0	9135	1790.039205218264	1
0	9137	1790.405795064792	2
0	9143	1793.04265399562	1
0	9148	1793.283404562063	0
0	9152	1793.590541088007	1
0	9154	1794.730706086518	2
0	9156	1795.301866568639	3
0	9159	1795.969484382311	2
0	9165	1796.807381465836	3
0	9167	1797.809043068056	4
0	9169	1797.995016051361	5
0	9171	1798.059475852775	6
0	9175	1798.632262682156	7
0	9177	1799.909830113635	8
0	9182	1801.156073295686	9
0	9183	1801.388376391155	8
0	9188	1801.556735623716	7
0	9193	1803.225433540434	6
0	9197	1803.231847169701	7
0	9199	1803.779421042662	8
0	9201	1805.142461950285	9
0	9204	1805.962191488784	8
0	9210	1806.854482683979	9
0	9211	1807.112212259545	8
0	9216	1808.243427402886	7
0	9222	1809.839343220069	8
0	9226	1811.094143241986	9
0	9232	1813.002099478428	10
0	9235	1813.585573661544	11
0	9237	1813.950859125672	10
0	9243	1814.638888725855	9
0	9249	1815.210795936016	10
0	9251	1816.789938469555	11
0	9252	1818.859112679916	10
0	9257	1818.871651946408	9
0	9266	1822.064244134987	10
0	9268	1822.066831827063	11
0	9270	1822.326108471318	12
0	9271	1822.863466526223	11
0	9276	1823.746102072995	10
0	9282	1824.356300905231	11
0	9285	1825.22769569467	10
0	9289	1826.829806888488	11
0	9294	1829.653011007044	10
0	9299	1830.027114093723	9
0	9303	1830.344020482992	10
0	9309	1831.651865821325	9
0	9314	1831.810884132793	8
0	9318	1832.29072243762	9
0	9321	1832.981102913513	8
0	9326	1835.48957567774	7
0	9331	1836.344774860762	6
0	9341	1838.503802582122	7
0	9342	1840.002259446036	6
0	9347	1841.549420425236	5
0	9355	1844.203781485881	6
0	9356	1844.36440748684	5
0	9362	1846.106646145947	4
0	9367	1846.208027163554	3
0	9372	1846.992745472488	2
0	9378	1847.142409091634	3
0	9380	1847.382038339132	4
0	9383	1848.065302374155	3
0	9390	1849.737678926501	2
0	9395	1850.290192469935	1
0	9404	1851.006610864051	0
0	9439	1855.345409546902	1
0	9441	1855.408729810217	2
0	9443	1855.605049785065	3
0	9448	1858.835650032805	4
0	9450	1858.980819324939	5
0	9453	1859.510715811455	4
0	9459	1859.636801932204	5
0	9460	1860.037366428489	4
0	9466	1860.330386914294	5
0	9467	1860.37905096056	4
0	9472	1861.218685263443	3
0	9476	1861.29008739147	4
0	9479	1862.20798476568	3
0	9489	1863.670429307164	4
0	9491	1864.642955818796	3
0	9496	1865.023930845056	2
0	9505	1866.00228029975	1
0	9512	1867.699476816572	0
0	9518	1868.40816935608	1
0	9520	1868.47783125872	2
0	9523	1870.607767326311	3
0	9524	1870.660234690997	2
0	9529	1871.018834512894	1
0	9534	1871.047365759396	0
0	9545	1872.166583362354	1
0	9548	1872.327733935523	2
0	9550	1873.431802021224	3
0	9552	1874.135386974958	4
0	9557	1875.738641606768	3
0	9565	1876.310757062321	4
0	9568	1876.934343369501	3
0	9575	1877.616891532887	4
0	9577	1877.632426777439	5
0	9579	1878.28210280603	4
0	9585	1878.408890342768	5
0	9587	1878.44812015574	6
0	9588	1878.47430578173	5
0	9595	1879.123002122431	6
0	9596	1879.323714960859	5
0	9602	1879.58159140624	6
0	9603	1880.127190372372	5
0	9607	1880.453149996179	6
0	9609	1880.754402301632	7
0	9613	1880.880738223409	8
0	9617	1881.870103728245	9
0	9618	1882.392085745638	8
0	9623	1882.90086748353	7
0	9629	1883.173030778349	8
0	9631	1883.685972089402	7
0	9637	1885.069798441168	8
0	9638	1885.386078636855	7
0	9647	1887.390820684765	6
0	9652	1887.544049157213	5
0	9658	1887.633429345238	6
0	9662	1889.876751920784	7
0	9666	1891.124153441399	8
0	9668	1894.58360833915	9
0	9669	1895.224062105673	8
0	9674	1895.842022659548	7
0	9680	1896.440451961921	8
0	9681	1898.008949129886	7
0	9687	1899.157752969619	8
0	9688	1899.183871686153	7
0	9695	1900.313685434555	6
0	9701	1901.043606748253	7
0	9702	1901.29307261982	6
0	9708	1902.022475660074	7
0	9709	1902.286102665869	6
0	9717	1903.500940228651	7
0	9720	1903.61873437084	8
0	9722	1904.788125322084	9
0	9725	1905.900057414919	8
0	9730	1906.689432963715	7
0	9736	1908.054735502903	8
0	9737	1908.151841517641	7
0	9742	1908.494837459596	6
0	9751	1910.159390018016	7
0	9752	1910.943939120684	6
0	9758	1912.091084653027	7
0	9760	1912.612605620832	8
0	9763	1913.933926347213	7
0	9767	1913.960473974983	8
0	9769	1914.119370237037	9
0	9773	1914.994638943466	10
0	9775	1915.279765441501	11
0	9778	1916.035470528876	10
0	9784	1916.395302391085	9
0	9791	1917.017173431719	8
0	9800	1917.829958117606	7
0	9806	1919.323654103854	8
0	9807	1919.434880113257	7
0	9813	1920.901091133029	8
0	9819	1923.283160036074	7
0	9826	1923.466612434571	8
0	9828	1923.570996789671	9
0	9830	1923.693957798944	10
0	9832	1924.094364621266	11
0	9833	1927.033100158485	10
0	9839	1928.588280333453	11
0	9840	1928.975242977866	10
0	9844	1929.306178277824	11
0	9847	1930.200121109901	10
0	9853	1931.126972569962	11
0	9855	1931.616774105958	12
0	9856	1932.993428652438	11
0	9862	1933.51352966346	12
0	9864	1934.289443112886	13
0	9867	1934.74895564962	12
0	9873	1935.691593601426	13
0	9874	1935.958306561409	12
0	9880	1937.610246525239	13
0	9884	1939.288356940319	14
0	9885	1939.976645567988	13
0	9889	1940.346330556355	14
0	9891	1940.783955976759	15
0	9895	1942.071000031535	14
0	9902	1944.249316979428	13
0	9907	1947.345094671921	12
0	9912	1947.964393949841	11
0	9919	1948.659282547648	10
0	9925	1948.904912012183	11
0	9926	1948.975499486548	10
0	9931	1949.563773577162	9
0	9937	1949.694207200625	10
0	9938	1949.724898534355	9
0	9948	1951.525881790227	10
0	9949	1951.687559824768	9
0	9955	1952.281916520968	10
0	9959	1953.353608310248	11
0	9960	1953.447897259521	10
0	9965	1953.920544527351	9
0	9972	1955.548661883115	8
0	9978	1956.61056208972	9
0	9980	1956.927184361774	10
0	9982	1956.988847366647	11
0	9983	1957.143116317104	10
0	9987	1957.488403332529	11
0	9990	1957.768816332877	10
0	9994	1958.133138039494	11
0	9998	1958.770814751372	12
0	10001	1959.902499713941	11
0	10005	1960.437868167442	12
0	10009	1961.298264887093	13
0	10015	1962.470401721724	14
0	10020	1963.310016648951	15
0	10021	1963.378134062846	14
0	10030	1964.76382392626	13
0	10036	1965.067751474553	14
0	10039	1965.426990115619	15
0	10040	1965.775384633769	14
0	10046	1965.827200719588	15
0	10050	1968.289374743144	14
0	10057	1971.230430108021	13
0	10062	1971.587839441128	12
0	10066	1971.677368090679	13
0	10069	1975.107298466689	12
0	10077	1975.448423711603	13
0	10078	1975.487788381018	12
0	10082	1975.691354437501	13
0	10084	1976.123454299233	14
0	10087	1977.449247972797	13
0	10091	1977.775689007093	14
0	10094	1978.418435378277	13
0	10098	1979.54992354179	14
0	10105	1981.238676705715	13
0	10110	1981.618832664329	12
0	10117	1982.344664877103	11
0	10122	1982.561174467132	10
0	10127	1982.565231685783	9
0	10134	1983.839154593365	8
0	10138	1983.929030055948	9
0	10142	1986.516010576991	10
0	10144	1987.045331563714	11
0	10146	1987.397687907141	12
0	10148	1988.106072383238	13
0	10152	1988.667990426944	14
0	10154	1988.749716977572	15
0	10155	1989.709070839968	14
0	10161	1991.495887873611	15
0	10163	1991.523302210353	16
0	10167	1992.46731890601	17
0	10171	1992.902881246046	18
0	10172	1993.275642575402	17
0	10180	1994.215932315221	16
0	10185	1995.066693999913	15
0	10192	1996.046106047467	16
0	10194	1998.049423031618	17
0	10197	1999.411188553297	16
0	10202	2001.198451317797	15
0	10207	2002.101863846339	14
0	10211	2002.784334604369	15
0	10214	2004.287000489847	14
0	10221	2005.424547417995	13
0	10227	2006.694941710344	12
0	10233	2007.233459563014	11
0	10240	2007.803267593582	10
0	10245	2008.171873606033	9
0	10252	2008.67042168261	10
0	10254	2009.037806240224	11
0	10255	2009.568584455561	10
0	10262	2010.017017083929	9
0	10267	2013.371625882137	8
0	10274	2015.321203079099	7
0	10281	2015.853493166853	6
0	10288	2017.582573428552	5
0	10292	2018.328108818117	6
0	10294	2018.364176130592	7
0	10297	2019.917388582293	6
0	10301	2020.310236919499	7
0	10303	2020.846115169019	8
0	10305	2022.051661115327	9
0	10309	2022.500013626211	10
0	10312	2022.713304797511	9
0	10316	2023.055567848547	10
0	10320	2025.339855591023	11
0	10322	2026.940850295356	12
0	10326	2028.15641199233	11
0	10331	2028.308587196748	10
0	10335	2028.42668092909	11
0	10339	2029.348289832384	12
0	10340	2029.770201580526	11
0	10344	2030.034333715038	12
0	10346	2030.603601387363	13
0	10348	2030.743834063024	14
0	10350	2031.391686973499	15
0	10354	2032.708780189847	14
0	10359	2032.944018626059	13
0	10363	2033.791352225906	14
0	10365	2035.044420487873	15
0	10367	2035.787222648458	16
0	10369	2035.8546522893	17
0	10372	2038.483629870288	16
0	10377	2039.198138766414	15
0	10384	2042.677648754848	14
0	10392	2043.604565066228	15
0	10393	2045.78554624429	14
0	10398	2046.111258430213	13
0	10405	2046.973525999289	12
0	10412	2050.254671071989	11
0	10417	2050.596205365962	10
0	10425	2051.196343243155	11
0	10430	2051.673129300046	10
0	10438	2052.493205260058	9
0	10443	2052.629331169246	8
0	10448	2052.771860077649	7
0	10453	2053.752697512868	6
0	10462	2055.453458340104	5
0	10468	2055.851729007149	6
0	10469	2055.898001571783	5
0	10474	2056.484217399886	4
0	10480	2057.113479916842	5
0	10482	2057.171720373963	6
0	10484	2057.339404713058	7
0	10485	2057.462011413364	6
0	10489	2057.467957475043	7
0	10491	2059.180972958936	8
0	10500	2061.141968565959	7
0	10505	2061.965647409268	6
0	10509	2064.137091781371	7
0	10515	2067.050666792317	8
0	10517	2067.258586688039	9
0	10518	2067.472707676618	8
0	10525	2068.290824635432	9
0	10526	2068.747659981177	8
0	10532	2068.881326282146	9
0	10534	2068.978665659929	10
0	10536	2069.125669516448	9
0	10545	2070.99548974097	8
0	10552	2073.709284121839	7
0	10557	2074.037526991605	6
0	10562	2075.180285054344	5
0	10568	2076.423548612235	4
0	10573	2076.641523838471	3
0	10578	2077.981171098668	2
0	10583	2078.827405974732	1
0	10588	2080.569681395221	0
0	10616	2085.254743552889	1
0	10619	2085.445730784851	0
0	10629	2086.524008461062	1
0	10631	2087.274073495344	2
0	10634	2090.001667560896	1
0	10646	2090.954939399165	0
0	10673	2094.82628884597	1
0	10677	2096.37049312453	2
0	10681	2098.103047494568	3
0	10682	2098.16651524872	2
0	10687	2098.229238672654	1
0	10697	2099.923383880952	0
0	10725	2111.656499369928	1
0	10727	2111.823539123844	2
0	10729	2111.931616747977	3
0	10735	2116.223280202852	4
0	10737	2116.550376865561	5
0	10738	2117.106551616569	4
0	10745	2118.409294587936	5
0	10749	2119.472914135247	6
0	10751	2119.714706363742	7
0	10753	2119.747304333004	8
0	10755	2121.834880232976	7
0	10763	2122.881112304653	6
0	10769	2123.08452798587	7
0	10771	2124.018668966983	6
0	10777	2125.286490651613	5
0	10786	2128.020987708062	6
0	10788	2128.276145555706	7
0	10789	2128.312886164111	6
0	10795	2128.634672268552	7
0	10799	2128.917988788102	8
0	10801	2129.19823743468	9
0	10803	2129.613235716115	8
0	10808	2129.788633077341	7
0	10813	2129.997044039582	6
0	10818	2130.309657151643	5
0	10823	2130.449120946624	4
0	10827	2130.695908049858	5
0	10829	2131.401214329225	6
0	10833	2131.695357356859	7
0	10835	2132.193948493415	8
0	10837	2132.437050334028	9
0	10839	2132.493613749323	10
0	10842	2133.315233021306	9
0	10852	2135.045782467778	10
0	10855	2135.828995778407	9
0	10860	2137.794487555434	8
0	10864	2137.863826429321	9
0	10866	2138.601698426061	10
0	10870	2139.008051946232	11
0	10871	2139.083977122783	10
0	10875	2139.918067011136	11
0	10881	2142.466978913879	10
0	10887	2144.010016865304	9
0	10892	2144.166386762057	8
0	10896	2144.551037499376	9
0	10898	2144.634032720559	10
0	10902	2145.018949614152	11
0	10904	2145.983045852853	12
0	10908	2146.166445412725	13
0	10911	2146.697988045928	12
0	10916	2148.453235298259	11
0	10924	2149.990057017135	12
0	10925	2151.425722156782	11
0	10930	2151.899520941884	10
0	10939	2155.209884466277	11
0	10940	2155.606593605597	10
0	10945	2155.683475258282	9
0	10950	2156.507425480759	8
0	10955	2158.235416787091	7
0	10960	2159.25218931149	6
0	10964	2159.368205590321	7
0	10968	2160.904265710343	8
0	10969	2161.144797100048	7
0	10976	2163.113228919092	6
0	10981	2163.390179157535	5
0	10986	2164.294718730712	4
0	10990	2164.312782547669	5
0	10994	2165.481945021251	6
0	10996	2166.937445862284	5
0	11002	2167.236940233832	6
0	11003	2167.481892243298	5
0	11009	2168.180735391648	6
0	11013	2169.652815500766	7
0	11014	2170.13199288345	6
0	11020	2171.165357395932	7
0	11022	2172.173491467217	6
0	11030	2172.917187606942	7
0	11031	2173.298402853857	6
0	11036	2173.364637013192	5
0	11043	2175.050786060219	4
0	11048	2176.035140531929	3
0	11052	2176.249344379992	4
0	11054	2176.714169652452	5
0	11056	2177.522687866897	6
0	11061	2178.80414047315	5
0	11065	2179.311036035182	6
0	11069	2180.867854132666	5
0	11076	2181.970736938859	4
0	11084	2183.017226494231	5
0	11086	2183.550114704308	4
0	11091	2184.227791310807	3
0	11098	2185.078840178764	4
0	11099	2185.517380281195	3
0	11104	2185.517480431835	2
0	11112	2187.362537991573	1
0	11117	2187.715308320381	0
0	11121	2187.927238856111	1
0	11127	2188.768949703642	2
0	11130	2191.454800823964	1
0	11134	2191.511461075784	2
0	11139	2194.5648043223	1
0	11143	2194.729133403136	2
0	11151	2196.732369784777	1
0	11157	2197.349662126657	2
0	11160	2198.512770229332	1
0	11165	2199.070445894128	0
0	11169	2199.314263797138	1
0	11171	2199.541639455875	2
0	11175	2202.007215268565	1
0	11180	2203.058685239669	0
0	11200	2206.542033879649	1
0	11201	2207.166296190465	0
0	11212	2209.006814861002	1
0	11213	2209.824281137103	0
0	11220	2211.796800139752	1
0	11221	2212.374253518743	0
0	11232	2213.396610446267	1
0	11234	2214.073219412422	0
0	11240	2215.437046514553	1
0	11242	2215.752999084978	0
0	11253	2215.814934288197	1
0	11255	2215.992854770618	2
0	11257	2216.335583951965	1
0	11267	2218.369377402839	0
0	11284	2219.514725915655	1
0	11287	2222.330835214579	0
0	11299	2223.460394158644	1
0	11300	2224.877028880289	0
0	11343	2232.688787728188	1
0	11347	2234.658070662485	2
0	11349	2235.767284904191	3
0	11350	2235.827614734309	2
0	11358	2237.162469064001	3
0	11360	2237.900943893489	2
0	11365	2238.342486642212	1
0	11371	2239.054008051518	2
0	11373	2239.283186990369	3
0	11374	2239.416315950814	2
0	11378	2240.119938650473	3
0	11380	2240.385424629588	4
0	11384	2241.209962824222	3
0	11390	2244.276904334122	2
0	11395	2244.454623619713	1
0	11400	2244.645381603973	0
0	11404	2245.290634251084	1
0	11408	2247.812521932267	0
0	11415	2248.275388532725	1
0	11418	2248.468047606716	0
0	11434	2249.57231387416	1
0	11436	2250.273871502273	0
0	11446	2251.349388868453	1
0	11450	2252.400969801221	0
0	11467	2253.116103942391	1
0	11470	2254.23704195314	0
0	11477	2254.715454451334	1
0	11479	2254.762934690546	2
0	11480	2255.734379319768	1
0	11485	2256.374242947559	0
0	11489	2256.794118524589	1
0	11493	2257.583911253957	2
0	11495	2257.662889400309	3
0	11498	2258.252339091978	2
0	11503	2259.76459451238	1
0	11510	2260.615503655217	0
0	11516	2260.824674855259	1
0	11517	2261.004407301099	0
0	11521	2262.950306433525	1
0	11523	2263.520868517515	2
0	11530	2266.683653378656	1
0	11539	2267.048023240639	0
0	11543	2268.02099036508	1
0	11547	2268.809274172403	0
0	11574	2271.2539811457	1
0	11576	2271.406965629174	2
0	11580	2273.242514139932	3
0	11583	2275.406254604107	2
0	11588	2275.423583026172	1
0	11595	2277.5059970134	0
0	11607	2278.513854995706	1
0	11609	2279.666421912125	2
0	11612	2281.259173712166	1
0	11618	2281.834177037248	2
0	11619	2281.858792262986	1
0	11627	2282.463566935134	0
0	11635	2283.023712681625	1
0	11637	2283.061021275959	2
0	11643	2283.841535230749	1
0	11650	2284.263160227131	0
0	11656	2284.425154788269	1
0	11658	2284.838095585359	2
0	11659	2285.705557109557	1
0	11664	2286.179230860419	0
0	11670	2287.45563377374	1
0	11676	2289.79871694817	0
0	11692	2292.889391594432	1
0	11694	2293.736259186607	2
0	11695	2294.289114990565	1
0	11702	2295.924672956335	2
0	11707	2299.405330428849	1
0	11713	2299.631576112888	2
0	11715	2299.671274898789	3
0	11717	2300.30497253203	4
0	11718	2300.894947706435	3
0	11723	2301.006055759107	2
0	11730	2301.889457183646	1
0	11737	2304.169627610616	0
0	11750	2304.5658817418	1
0	11751	2304.607935326603	0
0	11766	2305.614429112205	1
0	11767	2306.076428472874	0
0	11786	2311.779228217271	1
0	11788	2312.643619697431	2
0	11789	2313.29571293662	1
0	11795	2314.899511376118	0
0	11822	2320.923655799665	1
0	11825	2323.878990488796	0
0	11854	2331.099145775049	1
0	11856	2331.737121748551	2
0	11860	2332.451219189328	1
0	11871	2334.650732462371	2
0	11872	2335.026766523701	1
0	11877	2335.28398759415	0
0	11895	2337.315910239199	1
0	11897	2337.92176495127	0
0	11905	2338.006564696311	1
0	11907	2338.190662108087	2
0	11909	2339.273907422581	1
0	11914	2339.345673348427	0
0	11918	2339.871225997709	1
0	11921	2340.805319995609	0
0	11953	2346.916448316284	1
0	11954	2347.200492848936	0
0	11969	2351.600957532661	1
0	11971	2351.834860320667	2
0	11973	2352.717593807773	3
0	11976	2353.322968037236	2
0	11981	2353.794980639801	1
0	11987	2354.015679848341	2
0	11990	2355.673332386988	3
0	11994	2357.443221063167	2
0	12003	2361.299204067647	1
0	12009	2361.408643910569	2
0	12010	2362.347668573424	1
0	12014	2362.628224117045	2
0	12016	2363.175379364639	3
0	12019	2364.833574978482	2
0	12026	2366.460330185167	3
0	12029	2368.404881196867	4
0	12031	2368.581095215457	5
0	12032	2368.882162653705	4
0	12040	2371.078869924393	3
0	12050	2371.907758535517	2
0	12056	2372.429523755798	3
0	12057	2372.512413163897	2
0	12062	2372.71831635796	1
0	12066	2373.04732550594	2
0	12075	2376.240694956189	1
0	12079	2376.512264891819	2
0	12087	2378.470009431725	3
0	12088	2378.729723610868	2
0	12094	2379.691465080056	1
0	12102	2382.60294103153	0
0	12108	2382.908173131381	1
0	12109	2382.921624153072	0
0	12132	2384.998099083999	1
0	12139	2389.762568516149	2
0	12142	2391.215214212114	1
0	12147	2391.276289050459	0
0	12163	2392.597539018453	1
0	12165	2393.353821951517	2
0	12168	2394.56406107127	1
0	12174	2394.749896770832	2
0	12177	2395.488095114851	3
0	12179	2395.958615785528	4
0	12181	2396.688596227026	5
0	12183	2396.716855533561	6
0	12185	2396.986543753989	5
0	12190	2397.723225621934	4
0	12195	2398.756445291861	3
0	12199	2399.009932453168	4
0	12201	2399.416000308368	5
0	12205	2400.526650993912	4
0	12210	2400.896528642295	3
0	12214	2402.639916226298	4
0	12217	2404.258721425579	3
0	12221	2404.451848019399	4
0	12223	2404.502516925221	5
0	12226	2404.668948160947	4
0	12235	2405.985394849322	3
0	12242	2408.329730830507	2
0	12248	2409.497204180241	3
0	12250	2409.592553265433	4
0	12253	2411.291898517549	3
0	12259	2411.853570773631	2
0	12265	2413.069277487315	3
0	12266	2413.233166063047	2
0	12272	2413.848959436783	1
0	12277	2413.880070718598	0
0	12281	2414.391526733932	1
0	12284	2415.416573645037	0
0	12288	2415.479805107322	1
0	12293	2416.702522421848	0
0	12317	2419.153238832099	1
0	12319	2419.41080407872	2
0	12323	2419.957659190983	3
0	12325	2419.973389368471	4
0	12327	2420.401952627199	5
0	12328	2420.46553057532	4
0	12335	2420.891269878472	5
0	12336	2421.066752351825	4
0	12342	2421.730275937232	5
0	12343	2421.881511727215	4
0	12348	2422.047738762274	3
0	12352	2423.595352210486	4
0	12358	2424.837119041629	5
0	12359	2424.988645769727	4
0	12366	2425.10271354941	3
0	12371	2425.120684587266	2
0	12381	2425.822854124245	3
0	12382	2425.826399893526	2
0	12387	2425.974400365003	1
0	12392	2426.913858654045	0
0	12398	2427.263214667888	1
0	12401	2428.450062453577	0
0	12445	2437.35665099056	1
0	12453	2440.35986592955	2
0	12457	2441.083341626625	3
0	12458	2441.249206982793	2
0	12463	2441.756538463175	1
0	12468	2441.818335619191	0
0	12489	2444.42587474654	1
0	12491	2444.607862119897	2
0	12493	2444.865751558261	3
0	12495	2445.064658146858	4
0	12500	2448.202325573026	3
0	12507	2449.176546910368	4
0	12510	2449.825914578187	5
0	12511	2449.88353456754	4
0	12516	2450.701948782822	3
0	12522	2451.431004646942	4
0	12523	2452.912552540919	3
0	12527	2453.322359357041	4
0	12533	2454.433547255627	5
0	12534	2454.701370898225	4
0	12541	2457.909316798832	3
0	12545	2458.710773588648	4
0	12550	2460.163701826324	5
0	12551	2460.576905025603	4
0	12556	2460.856147981645	3
0	12560	2462.769364016529	4
0	12563	2462.994019997382	3
0	12570	2463.617786162535	2
0	12575	2463.989530183099	1
0	12579	2464.081776291012	2
0	12583	2464.595633317593	3
0	12584	2464.859029328096	2
0	12589	2466.61637154611	1
0	12593	2467.150306947702	2
0	12598	2469.099372900972	1
0	12602	2470.038110853695	2
0	12606	2470.423073349872	3
0	12609	2471.361566680257	2
0	12616	2472.983352482166	1
0	12620	2473.981792913185	2
0	12622	2474.33853681634	3
0	12627	2474.746416001675	2
0	12632	2474.8941176226	1
0	12638	2475.878096791064	2
0	12639	2476.583460119685	1
0	12643	2476.907524706456	2
0	12646	2477.464623330019	1
0	12652	2479.612368965192	2
0	12654	2479.982756843097	3
0	12656	2480.529197334689	2
0	12661	2481.068632242291	1
0	12670	2483.410319854163	2
0	12671	2484.249917686531	1
0	12678	2485.411111386706	0
0	12682	2485.717266205189	1
0	12684	2486.011337742766	2
0	12687	2486.635128017878	1
0	12695	2486.975998309341	0
0	12707	2487.812261678018	1
0	12709	2487.969337316117	2
0	12711	2488.10056661239	3
0	12713	2488.362859458603	4
0	12716	2489.596803872214	5
0	12719	2489.856747759433	4
0	12726	2490.274022298923	3
0	12730	2492.605686206645	4
0	12732	2493.697677348305	5
0	12735	2495.312023298666	4
0	12740	2496.388009623029	3
0	12746	2497.497392670487	4
0	12748	2497.76884309251	5
0	12749	2498.13542805607	4
0	12753	2499.601593730475	5
0	12756	2500.919709872503	4
0	12760	2501.985263202981	5
0	12762	2503.419429611281	6
0	12765	2504.504239260783	5
0	12773	2505.851964930222	6
0	12775	2505.869634966388	7
0	12776	2506.240436890807	6
0	12782	2506.247021850926	7
0	12783	2506.564860834643	6
0	12789	2506.731253094349	5
0	12794	2506.866827532907	4
0	12798	2506.943021018712	5
0	12802	2508.827037234254	6
0	12804	2509.027844187028	7
0	12806	2509.364135153609	8
0	12807	2509.539618119941	7
0	12816	2511.351596620197	6
0	12821	2515.145677507076	5
0	12825	2515.919275516714	6
0	12829	2516.414915484774	7
0	12830	2516.473855970875	6
0	12836	2517.023553587392	5
0	12841	2517.442104960314	4
0	12847	2517.785559938533	5
0	12849	2517.790005353819	6
0	12850	2518.296144482543	5
0	12854	2518.442635355138	6
0	12856	2519.003095605325	7
0	12858	2519.8139069485	8
0	12864	2521.249001882354	9
0	12865	2522.904515574293	8
0	12871	2523.828696329629	9
0	12874	2525.056976036378	10
0	12875	2525.36721899618	9
0	12880	2526.319675826592	8
0	12886	2526.611273489928	7
0	12891	2526.981746366604	6
0	12895	2527.49507914984	7
0	12901	2528.24057676443	6
0	12906	2528.872229281233	5
0	12911	2529.082108822315	4
0	12915	2530.409440683051	5
0	12919	2531.693396439828	6
0	12920	2532.023602824516	5
0	12926	2532.377057609033	6
0	12932	2534.909051762784	5
0	12938	2535.620216818865	6
0	12940	2536.486365053662	7
0	12942	2536.507399005561	8
0	12943	2538.20554385594	7
0	12948	2539.430486901206	6
0	12953	2539.764317540635	5
0	12959	2540.510445068837	6
0	12961	2541.106115002848	7
0	12963	2541.688059790319	8
0	12967	2543.076528372883	9
0	12969	2543.263170136371	10
0	12972	2544.664061852944	11
0	12973	2545.32791332968	10
0	12979	2545.911629318505	11
0	12980	2546.109498332274	10
0	12989	2548.369122497299	11
0	12990	2548.389386756218	10
0	12995	2548.911480859472	9
0	13005	2550.725714253424	10
0	13009	2551.235295596723	11
0	13010	2551.347188430519	10
0	13015	2551.602354789614	9
0	13020	2551.641650068076	8
0	13024	2551.739105506821	9
0	13030	2553.912270445949	10
0	13032	2554.654147719202	11
0	13033	2554.725769881661	10
0	13038	2557.110624835182	9
0	13042	2557.677281750028	10
0	13047	2558.144818267803	9
0	13056	2559.752738361203	8
0	13060	2559.936103100767	9
0	13064	2560.822381573897	10
0	13066	2560.854822354894	11
0	13070	2561.147797597669	10
0	13076	2561.36487316494	9
0	13081	2561.365588979804	8
0	13088	2562.116189586527	9
0	13089	2562.156858701824	8
0	13094	2563.487347531078	7
0	13101	2565.732884591697	6
0	13106	2566.669144887503	5
0	13114	2568.123215521702	6
0	13116	2568.165607650787	7
0	13118	2568.462781652505	8
0	13120	2569.32047055856	9
0	13121	2570.55886321031	8
0	13126	2571.301349496438	7
0	13132	2573.461222605094	6
0	13137	2573.67797877071	5
0	13141	2574.074155954071	6
0	13145	2575.026583319068	7
0	13146	2575.119620898738	6
0	13154	2577.332404767439	7
0	13156	2578.092564924592	6
0	13161	2578.30229120284	5
0	13168	2580.626494867084	4
0	13172	2580.627791565625	5
0	13175	2581.491550215886	4
0	13182	2582.821791813328	3
0	13187	2583.724006702863	2
0	13191	2585.506980365075	3
0	13194	2586.910489177271	2
0	13200	2590.479650408784	3
0	13204	2592.04015493841	2
0	13209	2592.127572006011	1
0	13215	2592.768091797185	0
0	13221	2592.978833121762	1
0	13223	2593.805897776422	2
0	13227	2594.38003502939	3
0	13229	2594.392704200295	4
0	13230	2594.606579354885	3
0	13235	2596.153223678771	2
0	13240	2596.884005605788	1
0	13247	2598.318148228742	2
0	13249	2598.730100293008	3
0	13251	2600.700560582399	4
0	13252	2601.246882873856	3
0	13259	2601.381220308828	4
0	13260	2602.002889009213	3
0	13266	2602.256106827698	4
0	13271	2605.312895691676	5
0	13272	2605.361297549808	4
0	13277	2605.840137620456	3
0	13281	2605.970399659266	4
0	13283	2606.558747160226	5
0	13286	2608.64471399759	4
0	13290	2610.085886163682	5
0	13294	2610.785841215069	6
0	13297	2611.548675767822	5
0	13303	2614.515997824975	4
0	13308	2614.55571315434	3
0	13315	2615.969007587866	4
0	13316	2616.582042897825	3
0	13321	2616.711560630016	2
0	13325	2617.586259248567	3
0	13327	2617.688995657562	4
0	13331	2620.274517906496	5
0	13332	2620.791748481322	4
0	13340	2621.181449089183	5
0	13344	2622.986790377456	6
0	13345	2624.115070262101	5
0	13350	2624.247390339139	4
0	13356	2624.627615639587	5
0	13359	2625.729316407358	6
0	13360	2626.674416030416	5
0	13365	2627.033427111593	4
0	13370	2627.847236262784	3
0	13375	2628.865821601323	2
0	13380	2630.189044880257	1
0	13386	2630.716445343857	2
0	13387	2631.191536856734	1
0	13393	2632.363819006252	0
0	13415	2635.663735042218	1
0	13417	2636.792548451638	0
0	13421	2637.276303587069	1
0	13425	2637.924329984311	0
0	13439	2639.36094844249	1
0	13440	2639.556531908559	0
0	13447	2639.887741920018	1
0	13452	2641.957035558598	0
0	13458	2642.406307355041	1
0	13459	2642.570280159407	0
0	13511	2652.505083990962	1
0	13512	2653.246364025245	0
0	13519	2654.249429007527	1
0	13523	2654.697407616823	2
0	13526	2656.66639987124	1
0	13531	2657.095409381271	0
0	13543	2658.13285015803	1
0	13545	2658.359749561914	2
0	13547	2658.407985142396	3
0	13550	2658.952066180223	2
0	13560	2661.213786590239	1
0	13566	2661.74907820709	0
0	13577	2663.264335994026	1
0	13578	2663.542621909315	0
0	13592	2664.512347208474	1
0	13595	2664.657387339277	0
0	13601	2664.974470819164	1
0	13602	2665.031494416871	0
0	13609	2665.604148331185	1
0	13610	2667.351363272128	0
0	13616	2668.368188295973	1
0	13618	2668.720757539501	2
0	13623	2669.503440505897	1
0	13628	2671.416703905063	0
0	13634	2672.363398459158	1
0	13635	2672.717155975179	0
0	13639	2673.850241516477	1
0	13645	2676.2486566826	2
0	13648	2676.66193386233	1
0	13660	2677.557517039972	2
0	13663	2677.744673382627	1
0	13669	2678.183338754709	0
0	13721	2684.67044355747	1
0	13723	2685.281513029386	2
0	13727	2686.68862647114	1
0	13733	2686.711525161015	2
0	13734	2686.720634540373	1
0	13740	2686.903356989321	0
0	13748	2687.53090320165	1
0	13749	2688.072258737549	0
0	13767	2690.944209995033	1
0	13768	2691.005210926957	0
0	13774	2691.818176327856	1
0	13775	2692.361560976246	0
0	13786	2694.273404341895	1
0	13790	2694.709006736195	2
0	13791	2694.792865337305	1
0	13796	2697.385729663772	0
0	13800	2698.213172891739	1
0	13802	2699.069321128041	2
0	13804	2700.264348248449	3
0	13811	2701.395724751977	2
0	13817	2701.711336808773	3
0	13819	2701.721404356744	4
0	13820	2701.758601336976	3
0	13825	2702.230616991303	2
0	13834	2704.08909411016	1
0	13838	2704.090192017189	2
0	13843	2706.583172163861	1
0	13852	2711.113111249807	0
0	13877	2713.308284446931	1
0	13879	2713.458270616256	2
0	13883	2714.682493693922	3
0	13884	2714.749773666443	2
0	13889	2714.96320845335	1
0	13894	2715.236269594989	0
0	13903	2716.359177869593	1
0	13905	2716.953873877176	2
0	13906	2717.063456593867	1
0	13912	2717.186195254809	2
0	13915	2718.22072258877	1
0	13919	2719.549342734439	2
0	13922	2720.188291083439	1
0	13928	2721.558678632352	2
0	13929	2722.935105562186	1
0	13934	2723.675186765444	0
0	13938	2723.873119706475	1
0	13942	2724.263359223151	2
0	13944	2724.747618668326	1
0	13949	2724.964502410902	0
0	13968	2727.620168955049	1
0	13969	2727.656427674103	0
0	13975	2727.713235586133	1
0	13976	2727.963385078579	0
0	13983	2729.367237305195	1
0	13984	2729.517496445561	0
0	14011	2735.998565513051	1
0	14013	2736.794696479814	0
0	14030	2741.461002028916	1
0	14034	2744.017670700161	0
0	14040	2744.472380317835	1
0	14049	2745.125815981862	0
0	14084	2748.834437858807	1
0	14090	2752.106505836632	2
0	14091	2752.416102326851	1
0	14096	2752.589735387326	0
0	14126	2755.363423180477	1
0	14131	2756.289630634127	2
[...]
5	141403	27342.450345063833	8241.5535729273
5	141420	27345.134805677205	8229.759678028
5	141425	27345.36463356443	8221.1345925547
5	141430	27345.547076836752	8213.7330442964
5	141437	27346.622687739262	8204.508311017
5	141447	27347.425099881383	8204.8996596651
5	141459	27348.461908146898	8204.9532510609
5	141466	27351.04980441425	8198.881086284
5	141471	27351.935463014731	8183.8352432667
5	141476	27352.593635486434	8181.9353858638
5	141481	27356.151027468939	8185.4365226345
5	141486	27358.186359098862	8184.1859567704
5	141492	27359.185742646118	8184.0145451564
5	141497	27359.338151377774	8182.0148931559
5	141513	27364.552873866364	8181.6117425296
5	141619	27379.375523368501	8189.1543481665
5	141638	27381.369755231513	8187.3084416879
5	141687	27390.786894214217	8195.2073786245
5	141692	27391.065050635855	8195.4180026528
5	141709	27393.608629973265	8191.865721268
5	141748	27400.41244765141	8179.5645796268
5	141766	27401.079367320794	8177.8010610579
5	141774	27401.332476182569	8172.1235848131
5	141784	27401.581759498326	8170.426659246
5	141789	27401.899946418014	8162.1418509819
5	141806	27405.419388622874	8155.9878370097
5	141874	27419.019006725673	8153.0847429569
5	141884	27420.350030774907	8149.6384689778
5	141898	27421.800069484884	8139.2089310167
5	141952	27435.180662414546	8147.3971329711
5	141963	27436.885036739921	8137.0707389132
5	141981	27441.372241741964	8137.403072714
5	141991	27442.074422213883	8135.4501091377
5	142001	27443.169472757263	8117.9495233034
5	142012	27445.862472331957	8113.4009260948
5	142026	27448.540118829572	8093.8273477289
5	142031	27448.985903632197	8092.0553092621
5	142036	27449.118166370964	8090.2538778789
5	142041	27451.675453947526	8092.8045108097
5	142046	27452.992100091926	8089.9188326627
5	142057	27454.487211474376	8077.2058891182
5	142076	27457.925090402262	8078.7910598178
5	142088	27458.849453196998	8077.3351696089
5	142094	27463.305592618918	8076.9361362134
5	142099	27464.289025054172	8064.6426173474
5	142110	27465.726426183867	8064.2836610538
5	142131	27469.211402605337	8062.9052318608
5	142168	27480.759988527672	8068.8950441065
5	142191	27482.86266845135	8061.2040083721
5	142267	27496.897607819149	8074.1231101273
5	142275	27497.631889640104	8072.5344123486
5	142327	27502.43611084495	8071.4469345829
5	142334	27503.085321757181	8066.0907702677
5	142355	27508.310034876173	8068.3849989332
5	142399	27519.615178539733	8076.2421587584
5	142404	27520.225386518805	8072.589494203
5	142409	27520.520969926708	8070.1878911662
5	142428	27525.442364139117	8065.9327788909
5	142525	27541.416827153009	8080.2279205189
5	142568	27548.293213921822	8086.1364688483
5	142579	27548.934177722097	8085.3666879771
5	142590	27552.05042693716	8084.5257189563
5	142612	27553.952104025271	8083.6762256517
5	142623	27554.855662203573	8083.4196435118
5	142629	27555.150406582161	8071.2695508474
5	142638	27557.682094488069	8067.1515126184
5	142649	27558.98445534545	8063.8249604481
5	142661	27562.641167908395	8058.9298598337
5	142674	27565.124201093657	8058.9891851344
5	142690	27572.449356019897	8050.6271286021
5	143137	27660.488746514606	8138.1620969307
5	143142	27661.142581514612	8132.0748822145
5	143156	27666.122654406352	8136.3219662703
5	143283	27688.744824879231	8144.1900870773
5	143290	27689.958986884632	8130.1457117072
5	143299	27691.365343429712	8129.2563408294
5	143306	27691.588563207678	8129.3149890975
5	143314	27692.34547612351	8127.3819896526
5	143319	27692.410192627786	8126.0689266855
5	143324	27695.210720265307	8126.4647012029
5	143331	27696.175651300127	8122.2759651338
5	143336	27697.347187919623	8120.3809129372
5	143341	27697.949635369125	8115.9629909126
5	143348	27700.153691793406	8115.0844078846
5	143359	27701.314014944398	8112.5390526774
5	143364	27701.427407983521	8108.3914070822
5	143371	27702.074576797506	8107.3842693597
5	143390	27706.377309124919	8105.1996522599
5	143422	27710.057527483771	8105.8702298966
5	143433	27710.974346091327	8106.1125106722
5	143444	27714.069080993531	8103.2624576625
5	143477	27717.556572979683	8105.4994525158
5	143504	27721.188604790684	8106.0402681933
5	143518	27723.876012244671	8105.0731018653
5	143524	27725.676250061788	8106.2245508861
5	143530	27727.090827683297	8107.1550098713
5	143535	27727.129487220901	8103.6855581995
5	143540	27727.285925507482	8102.3712517882
5	143549	27729.684361413898	8102.2360201007
5	143588	27739.319701820019	8111.5898466568
5	143597	27740.639815898073	8100.5736416206
5	143625	27744.955022767907	8097.311455608
5	143630	27746.396014507263	8097.9327676553
5	143636	27746.961049555698	8098.4919001667
5	143645	27749.097097119334	8099.8426238782
5	143652	27750.663740735724	8101.1247440555
5	143667	27754.436845948851	8104.6329153229
5	143738	27767.970412656277	8116.0123391388
5	143743	27768.189525064219	8115.7763045625
5	143748	27768.99193922939	8114.2180155288
5	143776	27775.885377308244	8119.4552649786
5	143944	27803.558485137465	8143.7885615552
5	143953	27804.268271899857	8143.631880786
5	143963	27805.881508787982	8143.5853938388
5	143971	27808.571312150387	8139.8983992038
5	143976	27809.197451181442	8140.0428266521
5	143984	27811.478175226315	8140.1142696086
5	144040	27821.443276617744	8146.0863386917
5	144055	27822.941406352527	8145.653863016
5	144075	27830.009503692503	8152.0883519552
5	144097	27832.621650309489	8153.3685859375
5	144102	27832.693133075841	8152.1809315738
5	144110	27833.82046169477	8152.571966297
5	144115	27834.498216168425	8141.0530937301
5	144122	27835.744750119356	8142.1052607577
5	144137	27839.442537997904	8143.490064967
5	144148	27841.387251612848	8136.8246533961
5	144154	27842.144275757844	8131.8691183012
5	144159	27842.163389746104	8126.6281375475
5	144166	27843.626334948449	8125.4187025664
5	144179	27847.315435205709	8128.6559662272
5	144217	27853.889612034738	8135.1122214743
5	144222	27853.914899577012	8134.0919990273
5	144227	27853.988847728214	8129.7067961749
5	144234	27857.495834174367	8126.4583990543
5	144249	27861.250388226012	8115.6146558865
5	144375	27887.602019341752	8134.6965559518
5	144382	27888.602774864377	8129.2719092492
5	144387	27888.756260441315	8129.1240280723
5	144398	27889.461204871841	8128.8001835213
5	144545	27919.397257864883	8158.542251298
5	144558	27923.727921410566	8162.337056638
5	144747	27961.875849802716	8188.3398562114
5	144752	27962.003856266637	8187.4177301959
5	144759	27963.502080165577	8186.9434527395
5	144900	27989.392734187695	8210.4441081701
5	144919	27991.603818672017	8209.1659957047
5	144928	27993.800166818202	8205.881952174
5	144971	28003.662182104083	8213.0517635398
5	144995	28008.585418749778	8217.4549622391
5	145111	28031.919694502264	8232.832821663
5	145122	28033.699850030394	8234.3726565587
5	145127	28034.672895414276	8234.6231428245
5	145134	28035.796578080204	8232.2439685248
5	145148	28036.624806953453	8231.5063549707
5	145248	28052.094632853533	8241.7432793448
5	145256	28053.628182053447	8239.2047550324
5	145275	28057.635080649033	8239.5617226644
5	145292	28059.996937289229	8241.3286333342
5	145299	28060.821815666246	8239.2198137432
5	145315	28065.146551126054	8243.0254023583
5	145446	28093.130165083424	8266.4031631405
5	145460	28094.508536088521	8262.0844226802
5	145527	28104.916510403154	8270.6956494124
5	145532	28105.037318649652	8269.3761491005
5	145537	28106.547447376651	8264.1535984527
5	145548	28111.813487610209	8267.5967623903
5	145583	28117.433606289079	8268.0704238158
5	145690	28144.131536405244	8290.4085104625
5	145712	28147.263322017887	8291.2351016262
5	145723	28149.027257567069	8288.7715127243
5	145738	28154.981827572465	8293.0552239014
5	145771	28163.284024531856	8300.8543856426
5	145789	28165.962815339234	8300.5814802452
5	145807	28169.420839247167	8302.3819675946
5	145925	28191.356382061515	8306.5805797609
5	145930	28192.465940908844	8300.8998679263
5	145940	28193.422737397347	8297.4344187233
5	145960	28194.886845117949	8296.6078271428
5	145965	28195.09250887806	8290.2334134486
5	145972	28197.726191204485	8289.3329393441
5	145998	28204.251619839955	8288.1670013996
5	146073	28215.215488432508	8298.8052185164
5	146097	28221.38390531606	8296.6148568241
5	146105	28223.2197168705	8296.6041580405
5	146110	28223.316109972121	8294.6015732282
5	146117	28224.924998665912	8293.2649807224
5	146331	28269.012699964609	8334.4730396129
5	146350	28272.76115384423	8338.2121651596
5	146355	28273.068526725788	8334.532112858
5	146366	28274.691108133119	8335.0603767336
5	146450	28293.266004020796	8352.9600244975
5	146458	28294.343613982519	8351.8701254578
5	146465	28298.116376700208	8352.4375495392
5	146495	28302.461881235277	8356.2846859324
5	146500	28302.703564495158	8353.1506621804
5	146519	28306.520242661957	8355.2430349061
5	146700	28343.682003130689	8387.0460006432
5	146712	28345.053064046044	8387.5277570882
5	146719	28347.097841075473	8377.242411377
5	146724	28348.45197441216	8370.9708629239
5	146732	28351.938497974192	8371.0438716791
5	146739	28352.058181621496	8368.236347673
5	146758	28357.229504095557	8350.3160836374
5	147153	28438.904321072166	8431.5085969732
5	147161	28439.419581355971	8428.1740359407
5	147167	28439.813812563121	8427.9919030575
5	147175	28440.048497439385	8420.32732344
5	147203	28443.187237922973	8404.8195361754
5	147208	28443.385996295293	8402.5026530316
5	147219	28447.908867262438	8402.7069675938
5	147244	28450.944397551351	8405.332382674
5	147249	28451.592547561647	8401.5988530927
5	147254	28451.86544817045	8395.7840257936
5	147259	28452.303715403432	8395.795424405
5	147268	28455.478242908269	8396.7842238333
5	147279	28457.361139958884	8397.885916268
5	147287	28458.100175710712	8397.7999639521
5	147592	28516.181847875321	8453.9287730309
5	147598	28516.854164129052	8452.4202956949
5	147611	28521.536805480692	8453.2927217822
5	147943	28599.818800769662	8529.2484748411
5	147973	28606.993986021844	8532.5311014475
5	147990	28607.972320695248	8527.441988518
5	148003	28609.79070910205	8529.1083644835
5	148025	28617.494085822106	8532.7253241433
5	148059	28623.259162540969	8534.9677545321
5	148078	28627.011925763075	8538.7076625657
5	148097	28629.292280818099	8538.6993288949
5	148107	28631.006578932013	8540.3805383572
5	148122	28633.104784591321	8542.4461204461
5	148135	28634.988835631664	8544.0862456629
5	148192	28640.756466517267	8548.6424711282
5	148197	28641.108851752438	8539.7763070494
5	148208	28643.709797884763	8539.1765665876
5	148284	28655.144550303818	8547.7359889533
5	148290	28655.542867631068	8548.133625463
5	148295	28655.751889660886	8546.3424856235
5	148300	28656.779549095895	8538.826414546
5	148307	28657.369284182477	8532.6220426768
5	148327	28659.890373520005	8526.7422251382
5	148334	28661.314033858974	8527.4814263327
5	148350	28666.463608386993	8528.1930809237
5	148427	28686.137074614762	8541.5685996897
5	148434	28687.104157429876	8538.7467092277
5	148445	28691.104325748273	8540.3485227446
5	148796	28763.106046057109	8609.6210218552
5	148801	28763.505363139744	8608.3533969552
5	148808	28763.769720231579	8607.5905516203
5	148820	28766.04691224923	8605.9073391337
5	148830	28770.316093911802	8607.1258109276
5	148866	28776.419711260947	8605.6692361638
5	148871	28776.447320976316	8603.7464264072
5	148876	28777.202811912301	8602.3900450476
5	148887	28778.334131934497	8599.3843559287
5	148906	28779.991162118415	8600.9658128772
5	148915	28784.341744351824	8602.4956294433
5	148935	28788.291895597733	8601.7840890296
5	148942	28790.091982735387	8598.5032401932
5	148947	28791.132783599472	8598.3386129487
5	148962	28796.078547575654	8600.3600626887
5	149050	28811.568193131451	8608.7922122835
5	149061	28812.677503379201	8608.5222155298
5	149066	28812.939780773463	8600.6649450306
5	149082	28817.778367139114	8604.0400259451
5	149123	28826.839618099703	8606.2004592545
5	149136	28827.233078360377	8597.5052663375
5	149146	28828.545279518839	8590.8693996868
5	149153	28830.652699302383	8591.9957574562
5	149158	28830.731995503274	8588.0632902754
5	149163	28831.300779888296	8585.2789407983
5	149172	28835.275175205294	8586.9358105318
5	149202	28838.371405457071	8581.7002277353
5	149281	28863.515043826458	8606.7614323257
5	149289	28864.781412285785	8602.1959944058
5	149296	28869.405667563434	8604.8425297056
5	149307	28870.329666418407	8602.6776437928
5	149321	28876.142524117482	8601.7379544914
5	149330	28877.36052905102	8602.6600599952
5	149335	28877.825714196636	8597.5429119397
5	149340	28878.346306093371	8597.8953333643
5	149345	28878.493005151334	8582.4972406201
5	149350	28880.618983385245	8580.9255503226
5	149359	28881.605577114415	8578.5024056481
5	149368	28882.202870419621	8569.2886124325
5	149388	28885.82505814748	8566.6891264865
5	149398	28887.031441254383	8558.5259282424
5	149415	28888.904799570394	8556.7028175402
5	149461	28895.075877386588	8562.0890681533
5	149468	28896.078243196463	8562.5871134432
5	149478	28898.138756256426	8559.5306126685
5	149488	28899.489554871985	8549.9345880418
5	149493	28900.055628474988	8549.5122871752
5	149503	28903.017928080754	8544.6316635567
5	149597	28918.270145859036	8556.6162383088
5	149603	28920.403396534896	8557.2781637191
5	149614	28922.946560267279	8553.7440962554
5	149676	28934.197204160196	8552.368149784
5	149695	28938.119576741874	8555.3955857572
5	149719	28941.417240905495	8556.3458110001
5	149753	28945.596458654029	8560.0084794823
5	149758	28945.719108858707	8560.0291229725
5	149768	28947.330886872601	8549.2851207228
5	149778	28947.791060280269	8543.7769941703
5	149786	28949.520863363379	8543.5615199267
5	149793	28951.676477931316	8542.9654960997
5	149802	28956.851039650973	8545.8723103115
5	149824	28959.513663208325	8544.6214674584
5	149831	28960.056317166408	8531.9182318936
5	149849	28961.27706357072	8523.3107255347
5	149857	28963.398379985752	8524.874654192
5	149862	28964.45505380933	8518.9108226943
5	149879	28968.734749014944	8521.4434424007
5	150843	29172.110543835144	8715.6989102953
5	150849	29172.653973284913	8711.2335875198
5	150854	29172.976430065143	8705.745929434
5	150861	29175.291206796403	8705.7762932142
5	150866	29175.313469894343	8700.9722947516
5	150871	29176.080396491246	8699.4379328571
5	150886	29178.337645560489	8697.2926050727
5	150959	29187.449119463318	8705.8207607337
5	150964	29187.454523709196	8705.3903156113
5	150982	29190.495334846374	8705.7602391658
5	151238	29241.834927509614	8756.6045061441
5	151259	29243.841742254052	8757.7051029742
5	151298	29248.884839631449	8759.6796701216
5	151303	29249.309881375052	8754.4662182192
5	151308	29249.845941594268	8754.359169562
5	151313	29250.487200880114	8752.4776966892
5	151325	29251.347999816445	8752.2397602105
5	151595	29309.759826947338	8809.5663335839
5	151601	29310.637040448238	8808.9408014921
5	151608	29311.386411024941	8802.9464354679
5	151618	29313.380788123597	8800.5447856815
5	151636	29314.858310720677	8790.7634007558
5	151647	29316.148744750722	8788.2834142243
5	151654	29317.605036164391	8787.0505624571
5	151953	29386.799051866682	8855.6858917152
5	151967	29389.318415503856	8857.7811421272
5	151983	29392.880977655975	8856.927198721
5	151988	29394.214106478068	8856.9912881162
5	152000	29396.628363881239	8851.3629312733
5	152071	29410.995776921147	8861.9882922074
5	152076	29411.15554755455	8858.715820248
5	152085	29413.076833425486	8854.0615653764
5	152106	29414.990872830326	8855.6248979226
5	152120	29416.858594877316	8848.6359587129
5	152173	29432.12659241318	8846.7646785307
5	152180	29435.666487965549	8849.9393492526
5	152190	29437.297294214709	8844.9597512606
5	152195	29438.543595441616	8836.798214665
5	152202	29439.976825320115	8823.1607655031
5	152222	29440.536006845934	8822.4155312194
5	152237	29445.135476342703	8823.7173779364
5	152247	29446.206017713731	8823.271663255
5	152265	29449.720974082631	8826.7044468208
5	152272	29450.442201381889	8813.0875347641
5	152287	29454.408934101938	8812.5752714955
5	152305	29456.26056039976	8804.6544998608
5	152310	29456.423197523433	8797.5443549207
5	152315	29456.584754476238	8797.2002021569
5	152320	29456.87035235732	8792.1632643374
5	152337	29466.719067772674	8794.5958942816
5	152368	29473.636749898119	8798.9413142535
5	152403	29481.848629437667	8806.1263980997
5	152408	29482.225454534066	8806.3805121215
5	152416	29484.34213166446	8805.5969320049
5	152438	29488.127538739421	8808.7146676977
5	152456	29490.64060422076	8808.0310932541
5	152469	29492.006847692444	8808.4151597246
5	152488	29497.570083925882	8811.6011725971
5	152759	29545.00639861973	8858.0611874212
5	152765	29545.622971783839	8844.316225149
5	152770	29545.923074774916	8839.3879945535
5	152779	29546.446097725244	8836.3008106005
5	152791	29550.646571436418	8835.8474673705
5	152832	29561.672571355807	8846.2163477594
5	152843	29562.779606164301	8846.8941521807
5	152862	29563.780298835327	8844.0519771795
5	152879	29565.479695869766	8843.9603953514
5	152884	29565.931997224126	8842.5191467245
5	152896	29567.925851529964	8843.8445310339
5	152919	29570.517668075713	8837.5369149143
5	152933	29575.470524059677	8819.9450949767
5	152946	29576.756666111533	8821.1397676804
5	152976	29584.496193490935	8823.2666910745
5	152983	29585.033636168975	8821.0662891776
5	152991	29586.021841670187	8815.8368692714
5	152996	29586.369743331068	8812.3192987095
5	153001	29587.549386915026	8805.3514761279
5	153010	29588.830368372441	8801.6794874762
5	153028	29590.293499385338	8801.9290334296
5	153080	29597.297077481424	8798.2471318691
5	153093	29599.583090632726	8798.7695251217
5	153389	29649.796325825795	8848.1196928867
5	153411	29658.110910370792	8854.8050024952
5	153416	29659.612782338753	8855.6102874294
5	153421	29660.23536924173	8856.0632909143
5	153432	29665.826069867018	8854.4855644358
5	153458	29668.131942802771	8856.4742204362
5	153463	29669.242442408594	8853.5595934972
5	153486	29675.589503553563	8858.0716068268
5	153628	29702.88793547927	8879.9593976927
5	153678	29710.934067513177	8887.6164757809
5	153721	29717.639018236447	8893.4627748545
5	153726	29717.842199996447	8893.2249536671
5	153731	29718.076574230939	8892.4257366025
5	153736	29718.655426453336	8888.0389407842
5	153745	29720.48712000653	8886.0781337594
5	153761	29722.212360646963	8882.4254495164
5	153790	29725.881659123337	8885.0780229003
5	153798	29726.598130145441	8880.7423195759
5	153803	29726.605019898143	8875.7320417952
5	153814	29731.653058784714	8877.9401075687
5	153844	29736.631417801676	8876.7082066018
5	153933	29755.97893683681	8891.2467591484
5	153949	29759.339700608723	8893.2142826491
5	154195	29810.090837844779	8932.7736928233
5	154202	29810.428339471168	8929.0165869025
5	154256	29818.408809469712	8929.4059433116
5	154261	29818.817286742634	8923.9381928263
5	154266	29818.822589421479	8922.7672907646
5	154275	29824.475810083739	8927.6347155559
5	154306	29829.986244195093	8927.0075993942
5	154311	29830.55978372949	8924.9278631044
5	154318	29833.02115639845	8924.353900193
5	154325	29833.625338634865	8922.3383642733
5	154335	29834.072270996917	8922.6621871176
5	154344	29839.189893234442	8926.1716597637
5	154362	29842.495597361855	8927.8414055422
5	154391	29846.123957197515	8929.8683143031
5	154396	29846.369304175191	8927.1416296343
5	154405	29849.49865647835	8929.533014229
5	154417	29850.163318654984	8927.2763730732
5	154432	29855.580980332859	8924.9154073687
5	154654	29905.57500501252	8973.5109605253
5	154683	29911.578093737695	8972.7043902378
5	154697	29916.018660032499	8971.8817067989
5	154765	29927.901460934532	8981.6331372261
5	154771	29928.193322346288	8980.8690290365
5	154776	29928.246423300421	8980.4360462532
5	154781	29930.127868841776	8975.3360432134
5	154790	29933.684598111708	8972.2888646449
5	154808	29934.496868708431	8968.959812754
5	155000	29965.084064480241	8996.7079113858
5	155005	29965.329362860726	8991.50280081
5	155016	29969.372141945729	8994.9438723152
5	155042	29974.084323287675	8997.9181799673
5	155047	29975.806451693504	8999.2990585062
5	155053	29977.430574984143	8986.7286011673
5	155064	29980.034466827459	8987.8774355018
5	155079	29983.880590587624	8989.7135069857
5	155115	29993.366575289505	8991.616604716
5	155125	29994.104506538378	8988.3654891661
5	155145	29996.372123297592	8990.4415948325
5	155152	29997.278930487512	8989.0700868965

