version 2
run First-n5-15-20191016-14:53:07-12456
attr configname First-n5
attr datetime 20191016-14:53:07
attr experiment First-n5
attr inifile omnetpp.ini
attr iterationvars ""
attr iterationvarsf ""
attr measurement ""
attr network org.omnetpp.queueing.Pizza
attr processid 12456
attr repetition 15
attr replication ""
attr resultdir results
attr runnumber 15
attr seedset 15
param **.PS.maxInventoriedPS 5
param **.U1.interArrivalTime exponential(2s)
param **.U2.interArrivalTime exponential(4s)
param **.PS.serviceTimeForInventoryU1 exponential(0.8s)
param **.PS.serviceTimeForInventoryU2 exponential(1.0s)
param **.PS.serviceTimeDirectU1 exponential(1.2s)
param **.PS.serviceTimeDirectU2 exponential(1.4s)
param **.PS.probabilityProducing 0.5
param **.CS.serviceTimeU1 exponential(0.8s)
param **.CS.serviceTimeU2 exponential(1.0s)

vector 0 Pizza.EntryQueueU1 queueLength:vector ETV
attr interpolationmode sample-hold
attr title "queue length, vector"
vector 1 Pizza.CS queueLength:vector ETV
attr interpolationmode sample-hold
attr title "queue length, vector"
vector 2 Pizza.EntryQueueU2 queueLength:vector ETV
attr interpolationmode sample-hold
attr title "queue length, vector"
vector 3 Pizza.sink lifeTime:vector ETV
attr interpolationmode none
attr title "lifetime of arrived jobs, vector"
attr unit s
vector 4 Pizza.sink lifeTimeU2:vector ETV
attr interpolationmode none
attr title "lifetime of arrived jobs, vector"
attr unit s
0	0	0	0
0	5	4.17274849821	1
0	7	4.284541970041	2
0	9	4.519827285931	3
0	15	5.417214924167	4
0	17	6.14338972316	5
0	22	6.942359780066	4
0	28	7.500111611894	3
0	36	8.688786154527	4
0	37	8.8164932114	3
0	44	9.161625189042	4
0	46	9.242066029311	5
0	48	9.490018313288	6
0	49	9.795606840984	5
0	53	9.936882534884	6
0	60	11.481437250553	5
0	65	11.688471833181	4
0	70	12.189001975725	3
0	76	13.317293734609	2
0	82	14.03695402325	1
0	87	14.817401601139	0
0	140	23.00018522155	1
0	142	23.787877792677	0
0	194	37.874479959351	1
0	195	38.186685284619	0
0	218	42.875123215898	1
0	221	43.08978349838	0
0	298	58.597500721986	1
0	300	58.615671791931	2
0	301	59.259705509269	1
0	306	59.573056948775	0
0	320	60.496203354259	1
0	323	60.722739023241	0
0	345	66.152537335599	1
0	347	66.317409428647	0
0	353	66.354856699112	1
0	356	66.840027774805	2
0	357	67.122668401409	1
0	362	67.492283116747	0
0	383	70.745199365574	1
0	385	71.276663470018	0
0	400	72.849061614126	1
0	401	72.977528966597	0
0	422	77.417685166747	1
0	423	77.43738514467	0
0	494	95.80429284572	1
0	496	96.450760802904	0
0	568	111.048102059864	1
0	569	111.078486028367	0
0	598	119.990542907122	1
0	600	120.598675727272	2
0	601	120.618977043327	1
0	607	121.104817959302	0
0	650	128.588131746933	1
0	653	130.54706953224	0
0	664	131.191255198882	1
0	665	131.677161882075	0
0	686	135.023113837647	1
0	688	136.001761597751	0
0	696	137.417040188305	1
0	699	138.327782357755	0
0	735	143.310005102655	1
0	736	143.369332155222	0
0	750	143.9864355896	1
0	752	144.594979485825	2
0	756	145.34162940458	3
0	758	145.918708311552	4
0	760	146.207425952216	5
0	761	146.473335902091	4
0	766	146.567948789984	3
0	772	147.453432797176	2
0	777	148.27309664243	1
0	784	150.297740474943	2
0	785	151.34795194941	1
0	792	153.124266139667	0
0	813	154.213661256315	1
0	815	154.374241583303	2
0	819	154.951465156401	3
0	827	157.186531979625	2
0	834	158.258961474357	1
0	842	160.421368998437	2
0	846	161.48946788463	3
0	848	161.492359190413	4
0	849	162.124931246697	3
0	854	162.168562673543	2
0	859	162.777178930833	1
0	864	162.993594367885	0
0	872	163.884932913978	1
0	873	164.059489138314	0
0	880	164.487907716184	1
0	882	164.568640069723	2
0	884	165.562728172106	3
0	886	165.626448540028	4
0	888	166.365370301226	5
0	889	166.76074865467	4
0	894	166.811250170727	3
0	898	168.331885700837	4
0	903	169.596079313228	5
0	904	169.662985716448	4
0	911	170.230398093715	5
0	912	170.304087967736	4
0	917	170.804180489608	3
0	925	175.984659555672	4
0	928	178.240093752634	3
0	932	178.466307898315	4
0	936	179.947151379307	5
0	938	180.443180199895	6
0	939	180.496894923868	5
0	946	182.91393259952	4
0	951	183.073677300155	3
0	955	183.122572521991	4
0	958	183.637921661393	3
0	964	184.752322529326	4
0	966	184.892314956295	5
0	969	187.328519044613	4
0	977	188.429466265009	5
0	981	189.466741604243	4
0	986	190.679852306814	3
0	990	191.389521342056	4
0	994	192.025675145345	5
0	995	192.245415374223	4
0	1002	193.556386697363	3
0	1006	194.159989397133	4
0	1010	195.153008457191	3
0	1017	196.106457612206	2
0	1021	196.253391927312	3
0	1023	196.914411291835	4
0	1027	198.348159036722	5
0	1030	199.290830586821	4
0	1038	199.828166302664	5
0	1043	200.392083864069	4
0	1047	200.998552746944	5
0	1049	201.15515730348	6
0	1051	201.690773149245	7
0	1057	204.300743053315	6
0	1062	204.557784540752	5
0	1068	205.08533877278	6
0	1069	207.67598263123	5
0	1074	209.593744111496	4
0	1078	210.474002071555	5
0	1081	211.039492924925	4
0	1087	212.232358676229	3
0	1092	212.363649935273	2
0	1097	213.847482586323	1
0	1102	214.456558094478	0
0	1108	215.299654480642	1
0	1111	216.177063231939	0
0	1117	217.971321350621	1
0	1118	220.076651786427	0
0	1124	221.078944344624	1
0	1128	221.64167725019	2
0	1129	222.461341048245	1
0	1133	224.021537457645	2
0	1137	224.403552211759	3
0	1140	225.124736903839	2
0	1148	227.064806956941	1
0	1153	228.174666815985	0
0	1195	231.571504094437	1
0	1197	231.682277911089	2
0	1198	231.687361721367	1
0	1204	231.913445267474	2
0	1206	232.323417618138	3
0	1207	232.503197067606	2
0	1215	233.854829911458	1
0	1224	234.232185400275	0
0	1246	236.951587248878	1
0	1247	237.841320080781	0
0	1258	238.499604933615	1
0	1261	240.107171835433	0
0	1292	247.259404469602	1
0	1296	248.884920534497	2
0	1298	249.404970677968	3
0	1300	250.025589118292	4
0	1305	250.790305974848	3
0	1312	251.080515051845	4
0	1314	251.768067892273	3
0	1319	251.902472742066	2
0	1327	252.719066308323	1
0	1332	253.014377108735	0
0	1336	254.985479134075	1
0	1343	259.022247757635	2
0	1345	259.441846903154	3
0	1346	259.563015930155	2
0	1352	259.96415079452	3
0	1355	260.06710845869	4
0	1357	260.924364215763	5
0	1358	262.704474798185	4
0	1369	266.130594548637	3
0	1374	266.867711852766	2
0	1379	267.385859330366	1
0	1385	270.745139254896	2
0	1386	270.807108586346	1
0	1392	271.165144193153	2
0	1394	271.572424866547	3
0	1398	272.081347843912	4
0	1400	272.626795954223	5
0	1404	273.76453033188	4
0	1410	274.179723084652	5
0	1411	274.239068409081	4
0	1415	274.385359074527	5
0	1418	274.917065617642	4
0	1423	276.246780440609	3
0	1427	276.310088153775	4
0	1433	277.69801202447	5
0	1434	277.774121592661	4
0	1439	279.1023155553	3
0	1449	280.192569236064	2
0	1455	280.463306577244	1
0	1461	280.88020878835	0
0	1467	280.90914803424	1
0	1469	281.083942120114	0
0	1510	284.62728715197	1
0	1511	284.74823231393	0
0	1517	284.752502847543	1
0	1518	284.775783909365	0
0	1522	284.893717438872	1
0	1529	285.878897448711	0
0	1537	286.542261380155	1
0	1540	286.95415095309	2
0	1543	288.303126137244	1
0	1549	288.370191595324	0
0	1575	293.90183223108	1
0	1578	294.436566639518	2
0	1579	294.898841352944	1
0	1587	295.336792754777	2
0	1588	295.554474100982	1
0	1595	295.890972933628	2
0	1597	296.107918215241	3
0	1598	296.416543182478	2
0	1603	296.51649913212	1
0	1608	296.932871869918	0
0	1616	298.236092566983	1
0	1617	298.261538251664	0
0	1632	298.879297285972	1
0	1634	300.327106755882	2
0	1636	300.418883605414	3
0	1639	301.571585025092	2
0	1645	302.043700002672	1
0	1652	302.190150702247	0
0	1667	304.697450791966	1
0	1673	305.624960232611	2
0	1674	305.770116988024	1
0	1680	306.85177050713	2
0	1684	307.420617981203	1
0	1691	308.507659242825	0
0	1726	312.014265219966	1
0	1732	313.434855112422	2
0	1734	314.712379934715	1
0	1740	315.038316231967	0
0	1765	320.802273953868	1
0	1768	321.179572588404	0
0	1794	324.568101344669	1
0	1796	324.619759036214	2
0	1797	324.645513300783	1
0	1803	324.777475188948	2
0	1804	324.96869446772	1
0	1809	325.055309892614	0
0	1837	330.559210363916	1
0	1838	330.727189793735	0
0	1859	334.427007468579	1
0	1860	335.510143844943	0
0	1867	336.145317633917	1
0	1869	336.594150549445	2
0	1870	336.890228875444	1
0	1877	337.067213697109	0
0	1898	339.270982051573	1
0	1899	339.340966057513	0
0	1912	340.218805579378	1
0	1914	340.791283944349	0
0	1929	342.397182024401	1
0	1931	342.639475164012	2
0	1933	344.14217928842	3
0	1935	344.549138920727	4
0	1937	344.691288103054	5
0	1946	346.075857980277	6
0	1948	346.54084052952	7
0	1953	347.761680437081	6
0	1958	348.028815081383	5
0	1964	348.187600482629	6
0	1966	348.199567152302	7
0	1967	348.487677357977	6
0	1975	349.33641888192	7
0	1977	349.836781083429	8
0	1978	350.446852845888	7
0	1985	352.30688845172	6
0	1995	353.238085108875	7
0	1996	354.01993337429	6
0	2003	357.373291071036	5
0	2007	357.810257020626	6
0	2013	358.993429192548	7
0	2014	359.28176547681	6
0	2019	359.491880239146	5
0	2025	360.577466343261	4
0	2030	360.755790752165	3
0	2036	363.02665240293	2
0	2042	363.135557010877	3
0	2043	363.518517712502	2
0	2047	363.894583647239	3
0	2053	364.886990775348	2
0	2061	365.639749792432	3
0	2062	365.80007000376	2
0	2069	367.607689866959	1
0	2082	369.231503349983	0
0	2132	377.068285129985	1
0	2136	378.109311175681	2
0	2137	379.079056116103	1
0	2142	379.086623160424	0
0	2167	380.578230639585	1
0	2169	381.971837459007	2
0	2172	382.612963023217	1
0	2179	383.770244012909	0
0	2185	383.83061591625	1
0	2191	386.504567279032	0
0	2208	388.97156102076	1
0	2211	389.46025877469	2
0	2213	389.895950539075	1
0	2218	390.00760658551	0
0	2238	392.194305427774	1
0	2242	395.864587312536	2
0	2248	398.081563038087	3
0	2250	398.358603122258	4
0	2254	399.386260234747	5
0	2258	399.979936811922	4
0	2264	400.152585201498	3
0	2274	401.998143803725	2
0	2279	402.358597068372	1
0	2284	402.610852574405	0
0	2310	406.467855171747	1
0	2314	408.467303097782	0
0	2320	408.858472290985	1
0	2321	408.945181138473	0
0	2331	410.75791913791	1
0	2335	411.415116845805	2
0	2337	412.204541929599	1
0	2346	413.258207520162	0
0	2352	413.268775210512	1
0	2355	413.756248750319	2
0	2356	413.871945729074	1
0	2361	414.213824261459	0
0	2375	416.545175860262	1
0	2379	417.520867505044	0
0	2385	418.528199044065	1
0	2386	420.093618988789	0
0	2394	420.486060958702	1
0	2395	421.015897178863	0
0	2429	423.608149075006	1
0	2430	424.145358987347	0
0	2434	424.363116165823	1
0	2436	424.414927872888	2
0	2439	426.32693935479	1
0	2443	426.835044094183	2
0	2445	427.552677758343	3
0	2448	428.410188938617	2
0	2456	429.641960539384	3
0	2458	429.686098549857	4
0	2459	429.743986933694	3
0	2463	430.493486495777	4
0	2465	432.207750982489	5
0	2471	433.471882746327	4
0	2476	434.164635325587	3
0	2484	436.245394758078	2
0	2490	438.069939203999	3
0	2493	440.666199653045	2
0	2498	441.567818276827	1
0	2506	443.111154639512	0
0	2540	448.408038506445	1
0	2542	448.866901714831	2
0	2544	449.064452585285	3
0	2547	449.594158437731	2
0	2552	449.74375384485	1
0	2558	450.377948982832	2
0	2560	453.160562962591	3
0	2562	453.745527725717	4
0	2565	454.179777620035	3
0	2573	455.629745086149	2
0	2580	456.462047282466	3
0	2582	457.137989565242	2
0	2589	457.851444681349	1
0	2596	458.46130155162	0
0	2610	459.40488658616	1
0	2616	460.558471460927	2
0	2618	460.895159139764	1
0	2625	462.59667080016	0
0	2636	463.153629557158	1
0	2638	464.191832499133	2
0	2643	464.738196246872	1
0	2649	464.796291634061	2
0	2651	465.686055897644	1
0	2659	466.874395013205	0
0	2667	467.456308018748	1
0	2669	468.11546839798	0
0	2680	468.416276953337	1
0	2681	468.52413503119	0
0	2687	468.748998347363	1
0	2689	468.974319332576	0
0	2718	472.138041836616	1
0	2720	472.596847954104	2
0	2725	473.330870996231	1
0	2736	475.945846177113	0
0	2764	479.082951876539	1
0	2766	479.088849420201	2
0	2767	479.311219701247	1
0	2774	480.941322495248	0
0	2780	481.045911430649	1
0	2782	481.423861637691	0
0	2788	481.965923594366	1
0	2789	482.264620783872	0
0	2809	486.278358360968	1
0	2813	487.267308231959	2
0	2814	487.436726408106	1
0	2820	487.971769188109	2
0	2821	488.252550585343	1
0	2826	488.542338165084	0
0	2839	489.850093620392	1
0	2840	490.822474449458	0
0	2886	496.088029207258	1
0	2887	496.514046321917	0
0	2901	499.078705568778	1
0	2902	500.390317320068	0
0	2908	500.886240171175	1
0	2911	501.975996651535	0
0	2917	502.538193917363	1
0	2918	502.895687093635	0
0	2954	508.299073446051	1
0	2957	508.369344248811	0
0	2966	509.060636567248	1
0	2967	509.110361630648	0
0	2999	512.445251229564	1
0	3002	513.257139627385	2
0	3003	513.499455962623	1
0	3012	515.316151979156	2
0	3013	515.670456930291	1
0	3018	515.718124657564	0
0	3040	517.270349055703	1
0	3046	518.061667513829	0
0	3052	518.332214894581	1
0	3055	519.024257422245	2
0	3056	519.142100139429	1
0	3062	521.207566438785	2
0	3066	521.628752760929	3
0	3067	521.708764686379	2
0	3072	522.716230678281	1
0	3079	524.893311143675	0
0	3085	525.451628840495	1
0	3087	526.485861577018	0
0	3098	527.619065502592	1
0	3103	529.82894193632	2
0	3105	530.993498856344	3
0	3107	531.007419330059	4
0	3108	531.324482085475	3
0	3114	531.930172554556	2
0	3120	532.27947763853	3
0	3121	532.532642309373	2
0	3125	532.965665068278	3
0	3127	533.317556724422	4
0	3130	534.116576605449	3
0	3134	534.19195425229	4
0	3139	536.26218670518	3
0	3143	536.338308968875	4
0	3145	537.528115226124	5
0	3152	540.162984990119	4
0	3157	540.393634393625	3
0	3164	540.594058634222	2
0	3168	540.672422108935	3
0	3174	540.989618475757	4
0	3177	541.972243305703	3
0	3181	542.467562242462	4
0	3184	542.975297262061	3
0	3188	543.893992447047	4
0	3192	544.897716540053	5
0	3196	545.484032252972	6
0	3198	545.932408990369	5
0	3203	545.971294481921	4
0	3209	547.105896711448	3
0	3214	548.623866481027	2
0	3220	548.873395385515	3
0	3223	549.542496799917	4
0	3225	549.799020062333	5
0	3226	549.982142473006	4
0	3231	550.056537542066	3
0	3235	550.327405580281	4
0	3238	551.390390961327	3
0	3245	553.922772749415	4
0	3248	554.170878383683	5
0	3251	556.571785310132	4
0	3257	557.630995558406	5
0	3258	557.867511473409	4
0	3263	558.698327330793	3
0	3267	559.411886078547	4
0	3269	560.551629423249	5
0	3271	561.160605131291	6
0	3273	561.279478265884	7
0	3275	561.736177769867	8
0	3277	564.411107155824	9
0	3280	565.941256976135	8
0	3287	567.434677533043	7
0	3291	567.594035817525	8
0	3297	568.878322784121	9
0	3298	569.209478790345	8
0	3304	569.949103009095	9
0	3306	570.337245965971	10
0	3309	570.641210107027	9
0	3314	570.994498957025	8
0	3320	571.359379979048	9
0	3321	571.394663287957	8
0	3330	573.544717974481	7
0	3338	575.651124394368	6
0	3344	577.06576513353	7
0	3347	577.805202178386	6
0	3352	577.964750250781	5
0	3357	578.031831062901	4
0	3362	578.741904984128	3
0	3368	580.337671744427	2
0	3373	581.318385008269	1
0	3379	581.87711722394	2
0	3382	582.485973821188	1
0	3386	582.495064665821	2
0	3388	583.409428987341	3
0	3391	583.822484398812	2
0	3396	586.062125695012	1
0	3401	587.623544102854	0
0	3423	590.299505943695	1
0	3424	590.559696481273	0
0	3464	594.770220377076	1
0	3465	595.09481449231	0
0	3488	601.929861292965	1
0	3491	602.013787444056	2
0	3492	602.02764868527	1
0	3499	602.850765395223	2
0	3501	603.31161896674	1
0	3507	603.492659199193	2
0	3509	603.739053434302	1
0	3515	603.951594622858	2
0	3516	603.993322008216	1
0	3522	604.697029506576	2
0	3523	604.874017555077	1
0	3533	605.965712660691	2
0	3534	606.226477635238	1
0	3539	607.373262248565	0
0	3548	609.509082625573	1
0	3552	609.753366916078	2
0	3556	611.571865055845	1
0	3563	613.40927200945	0
0	3612	619.562562493121	1
0	3620	622.492759822144	0
0	3652	626.370691377656	1
0	3654	626.843111414862	2
0	3661	631.201355591337	3
0	3664	631.970043267089	2
0	3669	632.468058921712	1
0	3674	633.156810493859	0
0	3707	639.54455902211	1
0	3708	640.30401048487	0
0	3719	641.105079791588	1
0	3722	641.777129452267	0
0	3820	663.013691300621	1
0	3821	663.710280654674	0
0	3866	669.720502912007	1
0	3872	672.751776525497	0
0	3982	697.09681895004	1
0	3983	697.563703024714	0
0	4013	702.242341736699	1
0	4014	702.565786439277	0
0	4020	704.402537358825	1
0	4022	705.166018859962	2
0	4025	707.213787255361	1
0	4032	708.557101684173	0
0	4038	709.193002569655	1
0	4039	709.54444024557	0
0	4057	711.258513020564	1
0	4058	711.543525196514	0
0	4065	712.151918595578	1
0	4069	712.517888932041	0
0	4105	720.375144656031	1
0	4106	720.942812127636	0
0	4117	721.204292428243	1
0	4121	723.223653028568	2
0	4122	724.227507727216	1
0	4128	724.522619279588	2
0	4130	724.961849430649	1
0	4139	725.612915742354	2
0	4142	727.344376790743	3
0	4143	727.371874630321	2
0	4148	728.465788061916	1
0	4155	729.095802890996	0
0	4166	730.311525859866	1
0	4167	730.499417856584	0
0	4183	731.723569915419	1
0	4184	731.865891739061	0
0	4198	733.094682223628	1
0	4200	733.656190564117	0
0	4261	743.773170264494	1
0	4266	744.40971556474	2
0	4269	746.484176460164	1
0	4274	746.714102217394	0
0	4332	753.065674321699	1
0	4334	753.442813564246	2
0	4335	753.956277082338	1
0	4342	754.537516725515	0
0	4348	754.564496433242	1
0	4349	754.589482099133	0
0	4355	754.631759521798	1
0	4357	755.788368546007	0
0	4365	756.841191427649	1
0	4366	756.844759536531	0
0	4479	790.305228970253	1
0	4481	791.643099065033	2
0	4483	791.728978308234	3
0	4485	792.169927505517	4
0	4487	792.713555796516	5
0	4488	792.93147359393	4
0	4493	793.049669405883	3
0	4499	793.619014043333	2
0	4506	794.48949868133	3
0	4507	794.616827351876	2
0	4512	797.02224300024	1
0	4518	797.307508743062	2
0	4519	797.538534526752	1
0	4525	798.202031512066	2
0	4526	798.833481864258	1
0	4532	799.046342594966	2
0	4533	799.382076148807	1
0	4537	799.434965259715	2
0	4540	799.823372080227	1
0	4545	800.681400790267	0
0	4576	805.873063400336	1
0	4577	806.01160285823	0
0	4602	809.214345405419	1
0	4603	809.532988481387	0
0	4643	816.524790246608	1
0	4646	817.958333612884	0
0	4650	818.625231004975	1
0	4654	819.352256322153	0
0	4660	819.609684195356	1
0	4666	822.237903220872	0
0	4741	833.580719863364	1
0	4745	834.361937674061	2
0	4748	835.760859889318	1
0	4753	836.172842280667	0
0	4765	836.727263130883	1
0	4766	837.105479317104	0
0	4787	839.951381218805	1
0	4790	840.062202792389	0
0	4825	849.336715939135	1
0	4832	852.907621275455	0
0	4838	856.941284403366	1
0	4841	858.086368661869	0
0	4845	861.804841521745	1
0	4848	863.550877178207	0
0	4861	864.869482838506	1
0	4863	865.805294558271	0
0	4881	868.286928793978	1
0	4882	868.764103195058	0
0	4910	873.726804907724	1
0	4911	874.114436810644	0
0	4951	884.842044500203	1
0	4952	885.030170442873	0
0	4960	885.274383642191	1
0	4961	885.522229259389	0
0	4972	886.373492537555	1
0	4974	886.458680176202	2
0	4976	886.74018998159	1
0	4981	886.899255715865	0
0	5017	892.918489610421	1
0	5019	894.122061612332	0
0	5035	896.884578807001	1
0	5036	897.527046057737	0
0	5056	898.880148802395	1
0	5058	899.597204705874	0
0	5064	900.858307892716	1
0	5066	902.809000508774	2
0	5068	903.246872763288	3
0	5070	903.407329055503	4
0	5073	904.552830825498	3
0	5078	904.637522577813	2
0	5085	905.13704479087	1
0	5092	906.030444286151	2
0	5093	906.428440874736	1
0	5098	907.49708848922	0
0	5102	907.884516949944	1
0	5108	909.491578613439	0
0	5119	909.771873440456	1
0	5121	910.355490875838	2
0	5122	910.641021043636	1
0	5126	910.766658195962	2
0	5130	911.506275705604	1
0	5137	912.919303024007	2
0	5139	913.50677340457	3
0	5140	913.831334071419	2
0	5144	913.911316933898	3
0	5146	914.817681969759	4
0	5148	915.449585009605	5
0	5150	916.72146730987	6
0	5155	918.402580973995	5
0	5160	918.721832911683	4
0	5166	919.683861552504	5
0	5169	920.666354819315	4
0	5175	921.707251607934	3
0	5180	921.82696875473	2
0	5186	922.82622651478	3
0	5187	923.014554681981	2
0	5191	923.280287203439	3
0	5194	925.320758207697	2
0	5199	926.400492536497	1
0	5204	926.908454323703	0
0	5208	926.952341084543	1
0	5210	927.888240990409	2
0	5212	928.472287412305	3
0	5216	928.669626179873	4
0	5217	929.706362235612	3
0	5221	930.81091078988	4
0	5224	931.332836730352	3
0	5229	934.005290904114	2
0	5233	934.715709320134	3
0	5235	935.340058037863	4
0	5239	936.71058967462	3
0	5245	936.964017196984	2
0	5250	937.975969676255	1
0	5254	938.871354231676	2
0	5256	939.252670107406	3
0	5260	939.463643967595	4
0	5265	940.843888426468	3
0	5271	940.883074335853	4
0	5273	941.45502192573	3
0	5278	942.18317996099	2
0	5283	942.733781865378	1
0	5289	943.478642671491	2
0	5290	943.734773698455	1
0	5294	943.817819458754	2
0	5296	943.868742414872	3
0	5298	944.017707859582	4
0	5300	944.285115431007	5
0	5304	945.47643267137	6
0	5307	947.191795494454	5
0	5313	947.918323734011	4
0	5319	948.276495251165	5
0	5321	948.557839946369	6
0	5324	949.807181745928	5
0	5330	950.096016042008	6
0	5332	950.173989311379	7
0	5333	950.581604553581	6
0	5339	951.462142292496	7
0	5341	951.73265286583	8
0	5343	952.921596785136	9
0	5353	955.67792973798	8
0	5358	955.712157198791	7
0	5362	956.659945031608	8
0	5364	957.510919878342	9
0	5368	958.215659567713	8
0	5373	959.415851582216	7
0	5380	961.270434444738	6
0	5390	963.238168421984	7
0	5391	963.25460603237	6
0	5396	963.25809153883	5
0	5401	963.271011226507	4
0	5405	964.511759226649	5
0	5410	964.920276391149	4
0	5415	966.319983436462	3
0	5419	966.332034039806	4
0	5422	967.066724641752	3
0	5427	967.956851965285	2
0	5434	968.841737432815	3
0	5436	969.343566131643	4
0	5437	970.725499095632	3
0	5442	971.165285710641	2
0	5447	974.314996727882	1
0	5453	975.088294888478	2
0	5456	976.021830005402	1
0	5460	977.022989482602	2
0	5465	977.958391331072	1
0	5474	979.188577310771	0
0	5478	980.105585627405	1
0	5482	980.720173442965	2
0	5484	981.209948041553	1
0	5493	981.810551272593	2
0	5495	982.548589832003	1
0	5500	982.617523801679	0
0	5523	986.921568205972	1
0	5525	987.150962438008	2
0	5527	988.303528697819	1
0	5532	988.354558710199	0
0	5588	994.834055309942	1
0	5590	995.244873408862	2
0	5593	995.505522796475	3
0	5595	996.038810914532	2
0	5600	996.325969395132	1
0	5605	996.428639188051	0
0	5620	997.806101153946	1
0	5622	998.359801231455	2
0	5624	999.158525803058	3
0	5628	999.736759275499	4
0	5630	1000.11913723529	3
0	5640	1002.240653449838	4
0	5644	1005.030227301101	5
0	5646	1005.082833701667	6
0	5647	1005.270647280284	5
0	5654	1005.350836634249	6
0	5655	1005.902379232631	5
0	5660	1006.424997809419	4
0	5665	1006.579323426549	3
0	5670	1006.704086108392	2
0	5674	1008.282616791012	3
0	5676	1008.340164428637	4
0	5681	1009.35175525537	3
0	5688	1013.598860780992	2
0	5693	1014.533142208188	1
0	5700	1016.805865391922	0
0	5704	1017.271678472739	1
0	5707	1019.878446709523	0
0	5711	1021.402074907866	1
0	5714	1022.338630661474	0
0	5718	1025.04784685829	1
0	5723	1025.444863401222	0
0	5727	1026.335063120237	1
0	5730	1028.191917874063	0
0	5743	1030.808347500858	1
0	5744	1031.004954138549	0
0	5752	1032.086960601854	1
0	5753	1032.107984649435	0
0	5769	1032.516646435588	1
0	5773	1036.286742444	2
0	5774	1036.415493443047	1
0	5780	1038.559991893459	2
0	5781	1038.68207003035	1
0	5786	1039.403955179698	0
0	5790	1039.475629048111	1
0	5793	1040.825235705739	0
0	5799	1041.83168430256	1
0	5800	1042.553476914256	0
0	5806	1043.125584151202	1
0	5810	1043.623487777979	2
0	5812	1044.170847354674	1
0	5821	1045.058597763516	0
0	5825	1045.198705061205	1
0	5827	1045.266229674724	2
0	5836	1046.184890494806	1
0	5842	1046.460823827335	2
0	5845	1048.011465349648	1
0	5851	1048.385894763343	0
0	5857	1048.448212629257	1
0	5861	1050.811697266424	0
0	5872	1052.406110017657	1
0	5876	1054.208340251163	0
0	5927	1058.42451441575	1
0	5929	1058.776030069101	0
0	5948	1063.347190478522	1
0	5952	1064.412177890233	2
0	5953	1064.425962229537	1
0	5961	1065.302210277756	2
0	5962	1065.333420494941	1
0	5971	1066.716688401395	0
0	5995	1070.304994403121	1
0	5996	1070.317720649184	0
0	6015	1075.182288749598	1
0	6016	1075.287413426439	0
0	6030	1077.367275000445	1
0	6033	1078.611065288919	0
0	6055	1082.002685749546	1
0	6060	1082.758171742296	0
0	6066	1082.991070240862	1
0	6069	1084.287227510484	2
0	6072	1084.967262109967	1
0	6079	1086.464137682676	0
0	6085	1086.68588107126	1
0	6087	1087.093898988488	2
0	6090	1087.246794343915	1
0	6099	1089.634457512256	2
0	6100	1090.230980167479	1
0	6105	1091.666544680501	0
0	6114	1092.356130725202	1
0	6117	1093.212131828645	0
0	6123	1093.2579635742	1
0	6124	1093.350217646687	0
0	6192	1099.796751397139	1
0	6194	1099.997334050031	2
0	6196	1100.727453294517	3
0	6199	1101.164628404725	2
0	6206	1101.181479688939	3
0	6213	1103.396536916845	4
0	6215	1104.1184181034	3
0	6221	1104.59905059282	2
0	6226	1104.796770845134	1
0	6231	1104.959621278866	0
0	6242	1105.69096884645	1
0	6244	1106.078483957834	0
0	6270	1108.848094201997	1
0	6271	1108.912061940584	0
0	6304	1112.938893959597	1
0	6307	1113.185800036585	2
0	6308	1114.777646855404	1
0	6315	1115.288199007186	2
0	6317	1116.103358350809	3
0	6319	1116.311897526903	4
0	6321	1116.412703948434	5
0	6322	1116.714914321247	4
0	6328	1116.936191043485	3
0	6337	1117.59170945366	2
0	6345	1119.044702376782	1
0	6349	1119.282005713659	2
0	6355	1119.929076986616	3
0	6357	1120.996101192233	2
0	6363	1121.23941802841	1
0	6369	1121.966000808483	0
0	6388	1123.173916500081	1
0	6389	1123.182994701774	0
0	6406	1124.210631425899	1
0	6408	1125.87456750172	2
0	6412	1125.977370984343	3
0	6414	1126.521319030658	2
0	6422	1128.276273489536	1
0	6427	1128.419515432694	0
0	6454	1131.382994083694	1
0	6455	1131.475859809625	0
0	6500	1139.784289192474	1
0	6502	1139.958389839049	2
0	6503	1140.095426345547	1
0	6512	1140.569154014614	0
0	6518	1140.718490770005	1
0	6521	1141.717709002631	2
0	6522	1142.059105678053	1
0	6527	1142.092096760949	0
0	6544	1144.614409588247	1
0	6545	1144.641591881853	0
0	6551	1144.967425168161	1
0	6554	1145.863030682141	0
0	6560	1146.290554536815	1
0	6562	1147.17561383072	0
0	6570	1147.738424787377	1
0	6571	1148.680304190412	0
0	6583	1149.444203729114	1
0	6584	1149.470305477255	0
0	6591	1150.169308936042	1
0	6596	1151.047186761886	2
0	6599	1152.464609227828	1
0	6604	1152.828963399099	0
0	6620	1156.43169248647	1
0	6621	1158.29149568566	0
0	6627	1159.185056027125	1
0	6628	1159.315905012538	0
0	6702	1166.843662097244	1
0	6703	1167.406131254615	0
0	6717	1168.953290247311	1
0	6718	1168.98884283278	0
0	6724	1169.147181665071	1
0	6727	1169.616669999808	2
0	6728	1169.85971174954	1
0	6734	1171.348621402316	0
0	6748	1172.254739908404	1
0	6751	1174.300116332662	0
0	6760	1175.604174280999	1
0	6761	1176.178566002204	0
0	6780	1177.560358445545	1
0	6781	1179.404640310497	0
0	6803	1181.150557008595	1
0	6804	1181.486362220118	0
0	6834	1186.132791796474	1
0	6836	1186.742680064095	2
0	6838	1186.788074865872	3
0	6840	1187.133132958364	4
0	6844	1187.896096966406	5
0	6845	1188.269903464605	4
0	6851	1188.836515680829	5
0	6853	1188.896712743802	6
0	6854	1190.161154767528	5
0	6861	1190.545336820447	6
0	6863	1191.469037106476	7
0	6864	1191.588065543325	6
0	6870	1191.956649893079	7
0	6871	1192.063911041445	6
0	6876	1193.551167179544	5
0	6880	1193.97867936212	6
0	6883	1194.159982559483	5
0	6888	1195.328867224633	4
0	6894	1196.75695854918	5
0	6896	1197.087951613648	6
0	6898	1197.161937677946	7
0	6899	1197.295632347276	6
0	6904	1198.540542079202	5
0	6910	1199.671603795254	4
0	6915	1199.735347449033	3
0	6924	1202.085494786953	4
0	6926	1203.229439524513	5
0	6927	1203.566754937208	4
0	6932	1204.17110138943	3
0	6938	1204.227288990578	4
0	6941	1205.842052953149	5
0	6943	1206.737892728638	6
0	6944	1207.172335466121	5
0	6950	1208.792311115931	6
0	6953	1209.717206044493	5
0	6958	1209.909823545751	4
0	6964	1211.255034442395	3
0	6969	1211.719736271635	2
0	6977	1213.365351241034	3
0	6978	1213.480709835131	2
0	6984	1214.527642072698	1
0	6989	1214.716352234295	0
0	6993	1215.377472431192	1
0	6995	1216.257635070201	2
0	6997	1217.378939479174	3
0	6999	1218.317587803763	4
0	7003	1219.775214694231	5
0	7006	1220.402359272332	4
0	7013	1221.266446096931	3
0	7021	1223.112031498059	4
0	7025	1223.751148572696	5
0	7026	1223.957801034038	4
0	7030	1224.393401189772	5
0	7036	1226.731376066209	6
0	7037	1226.867959662927	5
0	7043	1227.74085495199	6
0	7048	1229.361395358549	5
0	7052	1230.211803263693	6
0	7056	1231.186918262899	7
0	7059	1231.669460203251	6
0	7068	1234.02147101919	7
0	7069	1234.19122125338	6
0	7075	1234.298239194987	7
0	7076	1234.366996532113	6
0	7080	1234.474697888366	7
0	7082	1234.75361024266	8
0	7084	1235.332191464483	9
0	7087	1236.042459769684	8
0	7091	1236.201652379388	9
0	7094	1236.581615748083	8
0	7100	1237.02669518452	9
0	7104	1237.822307954452	10
0	7105	1238.003611924451	9
0	7110	1238.514001282553	8
0	7117	1240.277560297298	7
0	7123	1242.010247630293	8
0	7125	1243.48256959501	7
0	7133	1245.398257659703	6
0	7138	1245.953120077428	5
0	7143	1246.160053786682	4
0	7149	1249.960694557156	5
0	7150	1250.523493246461	4
0	7155	1253.542645440059	3
0	7162	1255.037290200324	2
0	7166	1255.723039714982	3
0	7172	1257.845809031139	2
0	7178	1258.399177659431	3
0	7179	1258.930926192704	2
0	7188	1261.529665965061	1
0	7193	1262.982482163286	0
0	7237	1268.931681570902	1
0	7241	1269.295418613398	0
0	7247	1269.347992094861	1
0	7250	1270.198572954502	2
0	7251	1270.279826429671	1
0	7258	1271.663180336817	0
0	7276	1273.312792335328	1
0	7277	1274.419480215207	0
0	7307	1278.67671616735	1
0	7312	1279.204537845147	2
0	7314	1279.326952237267	3
0	7315	1279.345814817158	2
0	7321	1280.130900419261	1
0	7327	1280.988515632845	2
0	7329	1281.200358959647	1
0	7337	1281.826941279634	0
0	7366	1286.150052745544	1
0	7370	1286.777367150253	2
0	7374	1288.698055978932	3
0	7376	1290.276471805992	2
0	7382	1290.724369368219	3
0	7383	1291.291317622743	2
0	7393	1292.857918102164	1
0	7400	1293.888732059193	0
0	7417	1295.313234588522	1
0	7419	1295.365434240749	2
0	7420	1296.585123771367	1
0	7428	1297.435353652718	0
0	7455	1300.950303886261	1
0	7456	1301.250955070346	0
0	7462	1301.257844925759	1
0	7463	1301.583522922774	0
0	7492	1305.562578928706	1
0	7494	1306.167331797632	2
0	7495	1306.680542309865	1
0	7502	1306.817075003977	2
0	7504	1306.893299748271	3
0	7506	1308.198139599067	2
0	7511	1308.477750516194	1
0	7516	1308.612041862131	0
0	7616	1324.750827935956	1
0	7622	1325.913000824153	2
0	7623	1327.027300146016	1
0	7628	1327.671196151797	0
0	7665	1332.213254028444	1
0	7667	1332.585551784024	0
0	7713	1341.235579873462	1
0	7714	1342.115221772247	0
0	7727	1343.286380705024	1
0	7730	1343.787087147767	0
0	7754	1347.2918209875	1
0	7755	1348.033766352367	0
0	7770	1352.816157518258	1
0	7773	1353.289158764222	0
0	7781	1354.429621366538	1
0	7783	1354.462424180186	2
0	7792	1357.011485945152	3
0	7794	1357.900826206877	4
0	7797	1358.867207384347	3
0	7803	1358.920638234807	4
0	7805	1359.144068620643	5
0	7806	1360.173012520657	4
0	7811	1360.274804721802	3
0	7816	1360.435600420081	2
0	7821	1360.528069901167	1
0	7826	1361.157455861413	0
0	7904	1371.926173708622	1
0	7908	1374.192676116705	2
0	7909	1375.619198252213	1
0	7915	1375.757174939126	2
0	7916	1376.117018773019	1
0	7922	1376.869671528361	0
0	7966	1388.720531615342	1
0	7967	1388.77235998395	0
0	7971	1392.195270442888	1
0	7973	1392.369157877735	2
0	7975	1392.55914426516	3
0	7978	1394.597601090044	2
0	7983	1396.277581921539	1
0	7987	1397.508435575467	2
0	7990	1398.138187086169	1
0	7995	1399.161236217132	0
0	8013	1400.512876246354	1
0	8017	1401.761827560684	0
0	8032	1404.304939755215	1
0	8033	1404.768086851178	0
0	8063	1407.876493394854	1
0	8065	1409.528914071346	0
0	8071	1409.562855234444	1
0	8072	1409.801744223644	0
0	8078	1410.141020155709	1
0	8081	1411.649383882468	0
0	8088	1412.346849938546	1
0	8089	1412.868398557546	0
0	8146	1429.665233587339	1
0	8151	1430.424732213416	0
0	8187	1435.731683268026	1
0	8188	1436.077990543352	0
0	8194	1437.533519304684	1
0	8195	1437.598127583352	0
0	8199	1437.916129522038	1
0	8203	1440.428782928487	2
0	8204	1440.431250554857	1
0	8208	1440.939556116815	2
0	8211	1442.683489415312	1
0	8218	1444.167507279733	0
0	8224	1444.378864582003	1
0	8225	1444.461290957766	0
0	8259	1452.186592518739	1
0	8261	1452.511380428895	2
0	8263	1452.644780395407	3
0	8267	1453.778906388557	4
0	8269	1454.145542048109	3
0	8275	1457.758195372502	2
0	8281	1457.949285262111	3
0	8282	1458.837851103511	2
0	8286	1459.599620459435	3
0	8291	1461.333154005988	2
0	8302	1463.651404421267	3
0	8303	1464.06068318848	2
0	8310	1465.037300329117	1
0	8314	1465.948274886321	2
0	8317	1466.450460553218	1
0	8323	1470.111168941013	2
0	8326	1471.12824426487	1
0	8332	1472.710784040188	2
0	8336	1473.57194940558	1
0	8341	1474.024594606461	0
0	8348	1476.150615444222	1
0	8351	1476.374239209468	0
0	8374	1479.774190345285	1
0	8375	1480.359482269893	0
0	8381	1480.484043496719	1
0	8383	1480.835541020292	2
0	8384	1481.083234535051	1
0	8389	1482.111612537593	0
0	8393	1482.262980746143	1
0	8397	1483.173689272354	2
0	8399	1483.598686017202	1
0	8406	1485.429362734972	0
0	8412	1486.566399406787	1
0	8416	1486.872016543712	2
0	8419	1487.660064384912	1
0	8427	1488.885980212552	0
0	8484	1495.939292459052	1
0	8486	1495.987771443844	2
0	8488	1496.026795671466	3
0	8491	1496.678045887045	2
0	8496	1497.086081591768	1
0	8503	1499.007689691535	0
0	8533	1503.049641680531	1
0	8534	1503.274442688909	0
0	8540	1503.742998380741	1
0	8541	1504.03488628523	0
0	8547	1504.319912127589	1
0	8548	1504.661019113397	0
0	8580	1511.185433004552	1
0	8582	1511.209011328043	2
0	8585	1511.367247128565	3
0	8587	1511.452772062416	4
0	8590	1511.684448260152	5
0	8592	1511.765754508434	6
0	8594	1513.149269394478	5
0	8600	1513.495079537581	6
0	8604	1514.09014752928	7
0	8605	1514.26257312814	6
0	8611	1514.342809078695	7
0	8612	1514.487709828115	6
0	8619	1515.429501216499	5
0	8625	1516.362145181645	4
0	8630	1516.734270816881	3
0	8635	1517.636453249398	2
0	8642	1518.103868459196	3
0	8644	1518.11780151625	4
0	8645	1518.634305364072	3
0	8652	1519.95976816467	4
0	8654	1520.622980156467	3
0	8659	1520.767698063837	2
0	8664	1520.783116451491	1
0	8670	1521.762757134732	0
0	8683	1522.618656576074	1
0	8684	1523.022821843228	0
0	8702	1525.195246626176	1
0	8704	1525.773995310814	0
0	8782	1543.700557307202	1
0	8783	1543.779630589888	0
0	8805	1546.546800553117	1
0	8807	1547.928447995602	0
0	8828	1549.135685818086	1
0	8830	1549.843800377646	2
0	8831	1550.208511105196	1
0	8836	1550.524881962112	0
0	8859	1552.400210740486	1
0	8863	1553.831858664157	2
0	8866	1554.248945727569	3
0	8868	1554.482136079017	2
0	8873	1554.605342960612	1
0	8878	1554.748799726215	0
0	8922	1559.959916831241	1
0	8925	1560.379651918659	0
0	8936	1561.288278905468	1
0	8937	1561.612081334231	0
0	8987	1572.815560329724	1
0	8989	1573.899412321093	0
0	9004	1574.725003264987	1
0	9008	1576.240222026174	0
0	9021	1577.0528451952	1
0	9022	1578.078170109611	0
0	9042	1579.979478438471	1
0	9043	1580.301295549051	0
0	9049	1580.996065234241	1
0	9050	1581.436638725089	0
0	9054	1582.281815224623	1
0	9059	1582.943234982986	2
0	9060	1583.160856481533	1
0	9066	1583.778059079433	0
0	9112	1592.076747105062	1
0	9113	1592.118663667774	0
0	9169	1601.734160132538	1
0	9171	1602.37148411884	0
0	9179	1602.811784655049	1
0	9182	1603.342895041477	0
0	9194	1604.432962764813	1
0	9195	1605.514077514023	0
0	9215	1608.249232787254	1
0	9217	1608.875694219256	0
0	9249	1614.684751269607	1
0	9253	1615.706440644762	2
0	9257	1617.27182354576	1
0	9263	1618.269787989156	0
0	9269	1618.890745698338	1
0	9275	1620.237833517942	0
0	9282	1620.836731157045	1
0	9283	1620.848206183135	0
0	9294	1621.358217771641	1
0	9296	1621.378052542578	2
0	9298	1621.524762025948	3
0	9300	1621.617701296398	2
0	9305	1621.965241216858	1
0	9312	1622.876996210168	0
0	9325	1623.589514244362	1
0	9326	1623.851251090677	0
0	9332	1624.392675092542	1
0	9335	1625.028665342065	0
0	9363	1629.577286350146	1
0	9364	1629.67904696364	0
0	9375	1630.183462596844	1
0	9376	1630.264089119864	0
0	9388	1630.980707950978	1
0	9390	1631.139731333652	0
0	9413	1633.697688174723	1
0	9417	1634.538541813646	0
0	9445	1636.607582886793	1
0	9447	1636.818184080352	2
0	9451	1637.752614495471	3
0	9454	1638.53380170327	2
0	9460	1639.441997699725	1
0	9465	1639.553019715137	0
0	9544	1654.425151051323	1
0	9546	1654.585067174258	0
0	9579	1662.911165514839	1
0	9582	1664.452030912578	0
0	9588	1665.491652394741	1
0	9590	1665.625122803362	2
0	9594	1665.971995339707	3
0	9595	1666.873992738384	2
0	9600	1666.996434076306	1
0	9605	1667.618023849263	0
0	9618	1668.807875188343	1
0	9619	1669.683762391187	0
0	9632	1670.626277123537	1
0	9634	1670.665542620663	2
0	9636	1671.284823243343	1
0	9640	1671.303451115559	2
0	9644	1672.008665421071	1
0	9651	1672.653872338212	0
0	9681	1676.707993244259	1
0	9682	1676.780866266507	0
0	9721	1683.57697572602	1
0	9722	1683.659104478337	0
0	9736	1686.260251774306	1
0	9737	1686.520291793086	0
0	9743	1686.786055909107	1
0	9744	1687.34175294443	0
0	9748	1688.103199672892	1
0	9752	1688.403289209664	2
0	9754	1689.004869128402	1
0	9759	1689.551600485062	0
0	9772	1693.986944271924	1
0	9777	1695.728769349675	0
0	9783	1696.765998469384	1
0	9788	1697.551405864014	0
0	9799	1698.276648217226	1
0	9800	1698.303509797712	0
0	9808	1699.663549731695	1
0	9811	1700.271376033091	0
0	9815	1702.329835119205	1
0	9818	1703.659701467503	0
0	9843	1706.36470605068	1
0	9847	1707.660455901693	0
0	9858	1708.210110979403	1
0	9860	1708.571418317044	2
0	9861	1709.015306099454	1
0	9871	1711.246579381739	0
0	9898	1714.494032622419	1
0	9902	1715.378070275465	2
0	9903	1715.410954207117	1
0	9908	1715.503738455185	0
0	9919	1715.835417573795	1
0	9921	1716.24729108651	2
0	9923	1716.723866378229	3
0	9926	1717.315146203512	2
0	9935	1717.642735773242	3
0	9936	1717.806429609577	2
0	9942	1718.020137568782	1
0	9947	1719.135351496769	0
0	9984	1724.612830141254	1
0	9985	1724.905440509091	0
0	9994	1725.55182256334	1
0	9997	1725.891866227009	2
0	9998	1726.096888070107	1
0	10004	1727.245160194994	2
0	10006	1727.385491627449	1
0	10012	1727.890791286967	2
0	10014	1727.908290991198	3
0	10016	1728.075035113167	4
0	10018	1728.38287352839	5
0	10019	1728.643106868172	4
0	10024	1729.110395125594	3
0	10029	1729.126191374702	2
0	10037	1729.298112908425	3
0	10044	1731.552166688085	2
0	10052	1732.298483912255	1
0	10058	1732.302738283544	2
0	10060	1732.659389393812	1
0	10066	1732.769394452851	2
0	10067	1733.028558180721	1
0	10073	1733.482097092157	0
0	10080	1734.484048653905	1
0	10082	1735.547732928266	2
0	10083	1735.853603449957	1
0	10088	1735.871646400646	0
0	10100	1736.323496371216	1
0	10101	1737.710502359501	0
0	10129	1743.53326963476	1
0	10130	1743.638781881019	0
0	10151	1744.963246591928	1
0	10152	1745.286575000447	0
0	10165	1746.242883809773	1
0	10167	1747.794251316318	0
0	10173	1747.859026007609	1
0	10175	1748.214751702742	2
0	10176	1748.340619848615	1
0	10183	1748.862688529537	2
0	10184	1749.624002380255	1
0	10189	1749.786682731364	0
0	10193	1750.90867829334	1
0	10195	1751.06306909595	2
0	10198	1751.434597919819	1
0	10203	1752.566061210293	0
0	10214	1755.10381645742	1
0	10216	1755.371258430144	2
0	10222	1757.044349441374	3
0	10225	1758.307905197786	2
0	10230	1758.357753898216	1
0	10236	1758.536002943472	2
0	10238	1758.803321272287	3
0	10240	1759.756877030337	4
0	10242	1760.232653580439	5
0	10243	1760.598694438625	4
0	10251	1762.021156960699	3
0	10257	1762.750024960942	2
0	10262	1762.845519900072	1
0	10269	1763.27701077193	0
0	10280	1764.12194324258	1
0	10281	1764.173341785938	0
0	10299	1767.852782936573	1
0	10303	1768.322561738772	2
0	10304	1768.476861918211	1
0	10309	1768.681963853488	0
0	10322	1770.374503118503	1
0	10323	1770.574836464504	0
0	10330	1771.257390117732	1
0	10331	1771.258538264448	0
0	10344	1772.936970621025	1
0	10345	1773.05494961093	0
0	10356	1773.650232282803	1
0	10357	1774.13720527029	0
0	10363	1778.942193393463	1
0	10365	1779.37052880806	2
0	10368	1779.631204792819	1
0	10373	1780.200763485254	0
0	10381	1785.724026635771	1
0	10383	1785.752826514062	2
0	10386	1785.975259747409	1
0	10393	1786.403635193052	2
0	10394	1787.279192887813	1
0	10399	1787.797420172625	0
0	10403	1788.303447859875	1
0	10408	1789.209982112624	2
0	10409	1790.271489709546	1
0	10414	1790.51481521931	0
0	10418	1790.592593530974	1
0	10420	1790.888055791841	2
0	10425	1792.548656823331	1
0	10432	1793.362597925166	0
0	10448	1794.529566599202	1
0	10449	1794.855179544826	0
0	10472	1798.491581488866	1
0	10473	1798.692426649763	0
0	10509	1805.143505767732	1
0	10511	1809.944287699623	2
0	10514	1811.063817710966	1
0	10518	1812.106023584275	2
0	10520	1812.717793577119	3
0	10522	1814.395543455002	4
0	10525	1816.628856502079	3
0	10529	1817.621109257385	4
0	10531	1819.294904857272	5
0	10535	1820.716079356825	4
0	10539	1822.059101064422	5
0	10545	1823.146867846685	4
0	10550	1823.290678928833	3
0	10556	1824.964823515763	4
0	10558	1825.084709413138	3
0	10563	1825.106405211241	2
0	10569	1825.523757010182	3
0	10570	1826.301805621251	2
0	10574	1826.916500841374	3
0	10577	1828.007710043432	2
0	10591	1830.781181623308	3
0	10593	1831.424383742362	2
0	10599	1831.771574333057	1
0	10604	1832.801618506416	0
0	10631	1837.903640828853	1
0	10635	1839.42705917093	0
0	10641	1839.84512419265	1
0	10644	1842.352116300197	0
0	10661	1842.860212188803	1
0	10662	1843.02759637497	0
0	10709	1850.960637840279	1
0	10713	1854.414895074662	2
0	10714	1854.792578383718	1
0	10720	1855.409028978009	0
0	10807	1870.994252521902	1
0	10812	1873.575237252678	0
0	10823	1874.720041609272	1
0	10824	1874.980929354256	0
0	10937	1903.92965398013	1
0	10939	1905.629711970381	2
0	10940	1907.103818079815	1
0	10946	1907.456065112418	0
0	10952	1909.743760462089	1
0	10953	1909.886404731038	0
0	10993	1914.170986794612	1
0	10994	1914.331790963357	0
0	11019	1919.782470308151	1
0	11020	1920.415906944031	0
0	11056	1929.768504794552	1
0	11058	1930.645161161765	0
0	11076	1932.476442654074	1
0	11078	1934.047718428918	2
0	11080	1934.45832733509	3
0	11082	1935.307727731399	4
0	11084	1935.649327854055	5
0	11088	1936.007264626653	6
0	11091	1937.341184158622	7
0	11095	1938.916203233271	8
0	11096	1939.491586135215	7
0	11102	1939.635276380369	6
0	11107	1939.783253290097	5
0	11113	1940.418459514358	6
0	11115	1940.639623707146	7
0	11117	1941.216234771117	6
0	11122	1941.420969480895	5
0	11128	1942.183942326952	6
0	11129	1943.694352771985	5
0	11133	1944.536412584319	6
0	11137	1945.403928927686	7
0	11139	1945.573691094997	8
0	11141	1945.79375519106	7
0	11147	1946.946211314973	8
0	11149	1947.223039015114	9
0	11152	1947.741614627093	8
0	11157	1949.449601261069	7
0	11162	1949.797667504103	6
0	11167	1950.106287099046	5
0	11171	1950.816340230197	6
0	11174	1951.17700619551	5
0	11178	1952.605518198679	6
0	11182	1953.148279039808	7
0	11183	1953.948257506457	6
0	11187	1955.862342334401	7
0	11189	1956.12000926674	8
0	11191	1956.657499498619	9
0	11195	1957.660740169501	10
0	11199	1959.555459818271	9
0	11208	1959.944993425505	10
0	11213	1960.513382753255	9
0	11220	1960.758257049484	10
0	11221	1961.867369471319	9
0	11227	1961.948000281506	10
0	11232	1963.309138914157	9
0	11237	1963.560429115847	8
0	11242	1963.561081629178	7
0	11248	1964.252334323145	6
0	11260	1967.573366567353	5
0	11266	1967.619167105067	6
0	11269	1968.828498780409	5
0	11275	1968.870574410468	4
0	11280	1969.290092930737	3
0	11286	1971.095922923427	4
0	11288	1971.27414712098	5
0	11289	1971.485538358674	4
0	11299	1973.480137295048	5
0	11304	1977.253297037076	6
0	11306	1977.718512406229	7
0	11308	1978.385765552875	8
0	11309	1978.712914937788	7
0	11314	1979.064670732463	6
0	11320	1979.392802311344	5
0	11328	1980.600401129543	6
0	11330	1980.602034504465	7
0	11333	1981.62419282909	6
0	11338	1982.028804134	5
0	11344	1982.033510112308	6
0	11345	1982.406634750134	5
0	11350	1984.520565038716	4
0	11357	1985.629578632844	5
0	11358	1986.626148334172	4
0	11364	1986.674083718756	5
0	11366	1987.375766484818	6
0	11367	1987.577407021419	5
0	11371	1988.437719914639	6
0	11374	1990.508700436239	5
0	11378	1991.079949049587	6
0	11380	1991.781031131442	7
0	11382	1992.658894225945	8
0	11385	1993.058063786747	7
0	11391	1993.565897992383	8
0	11393	1993.647374996716	7
0	11399	1993.703758618378	8
0	11402	1994.38751003097	9
0	11405	1994.629341615773	10
0	11408	1995.05696119611	9
0	11414	1995.61322888118	10
0	11417	1996.305050175642	9
0	11422	1996.637958268031	8
0	11427	1997.136927862221	7
0	11433	1997.275776005462	8
0	11434	1997.286561814483	7
0	11438	1998.580663403496	8
0	11440	1998.960750240815	9
0	11444	2001.168172616484	10
0	11445	2002.880095027833	9
0	11450	2004.987167260569	8
0	11458	2006.99764853385	9
0	11459	2007.594602455075	8
0	11463	2007.795350864008	9
0	11471	2009.408453135024	10
0	11474	2010.618573749968	9
0	11479	2010.754249823671	8
0	11487	2011.920007923547	9
0	11489	2011.980604068841	10
0	11492	2012.409516601783	9
0	11498	2013.188281235603	8
0	11504	2013.649300345909	7
0	11513	2015.113230693113	8
0	11515	2015.160480213471	9
0	11517	2015.789087669056	10
0	11518	2015.884007361752	9
0	11523	2015.903493445195	8
0	11527	2016.496790733151	9
0	11529	2017.214557051745	10
0	11531	2018.664323409424	11
0	11534	2019.441786877551	10
0	11541	2021.500575766788	11
0	11542	2021.625130882182	10
0	11549	2023.023230315195	11
0	11550	2023.717702084286	10
0	11555	2024.275811041706	9
0	11559	2024.345942388175	10
0	11562	2027.183093916707	9
0	11566	2027.707271253667	10
0	11569	2027.833921397241	9
0	11574	2028.008215099805	8
0	11578	2028.258852673637	9
0	11582	2028.914161600875	8
0	11588	2029.583355966245	7
0	11593	2029.589214796219	6
0	11599	2031.036603215995	7
0	11603	2032.58024069237	8
0	11605	2032.870163583531	9
0	11608	2032.924898101576	8
0	11612	2034.571140605214	9
0	11614	2034.66272192039	10
0	11616	2035.04141884081	11
0	11618	2035.300182235385	12
0	11621	2038.010636897407	11
0	11626	2038.334898402049	10
0	11634	2040.130134551876	9
0	11641	2041.323203902391	10
0	11644	2042.545407590438	9
0	11649	2042.809185882096	8
0	11654	2043.212087828866	7
0	11659	2043.30105215552	6
0	11665	2043.637603494465	7
0	11668	2044.509398219473	6
0	11674	2045.448156765798	7
0	11675	2045.522198616096	6
0	11688	2048.599184733021	5
0	11696	2051.07800137343	6
0	11699	2052.082321224287	5
0	11704	2053.156367596328	4
0	11709	2054.806029513641	3
0	11715	2055.182733601367	4
0	11716	2055.238410774856	3
0	11722	2058.38330188161	4
0	11725	2058.614597848922	3
0	11732	2059.008182775266	4
0	11735	2061.720641658845	3
0	11740	2061.826300120182	2
0	11744	2062.219335720735	3
0	11750	2063.434759540758	4
0	11752	2064.358387949211	5
0	11753	2064.422143516436	4
0	11757	2065.49201405358	5
0	11764	2067.868269268511	4
0	11769	2069.298580018345	3
0	11777	2073.502800721982	2
0	11782	2074.602726766921	1
0	11788	2075.336932852288	2
0	11794	2077.17143377075	1
0	11799	2077.348479137475	0
0	11805	2077.60046523957	1
0	11807	2077.819699358284	2
0	11809	2077.979311175268	3
0	11810	2077.993416392869	2
0	11820	2079.066923145265	3
0	11821	2079.068052168462	2
0	11825	2079.272505528808	3
0	11829	2081.083347623986	2
0	11835	2081.349911286716	3
0	11836	2082.130321890842	2
0	11840	2084.45834815123	3
0	11842	2087.111049252953	4
0	11846	2087.577992817415	5
0	11848	2088.551177480175	6
0	11851	2089.310590174627	5
0	11855	2089.402521772383	6
0	11859	2090.316786793447	7
0	11861	2090.454713846464	8
0	11863	2090.676501424955	9
0	11867	2092.347421417614	10
0	11868	2092.654597722527	9
0	11874	2093.243790304691	10
0	11878	2094.3029124929	9
0	11885	2094.437087945999	10
0	11887	2094.981633674322	11
0	11889	2095.113406799037	12
0	11890	2095.517401483759	11
0	11895	2095.950101074434	10
0	11900	2096.406395256523	9
0	11906	2096.7949983302	8
0	11913	2098.120608318754	7
0	11918	2098.252149819885	6
0	11923	2098.656533803935	5
0	11929	2098.89010306018	6
0	11930	2099.132626004992	5
0	11934	2099.571504826624	6
0	11940	2102.280551612054	7
0	11942	2102.448092912298	6
0	11947	2102.544992377943	5
0	11953	2103.183878154127	4
0	11959	2103.919256331214	3
0	11964	2104.068441534015	2
0	11970	2105.413614081395	3
0	11976	2106.230800024678	4
0	11978	2106.369868405271	5
0	11983	2106.924014740561	4
0	11988	2107.65090337458	3
0	11994	2109.056075599328	4
0	11997	2110.184448438447	3
0	12008	2112.416438353852	4
0	12009	2113.709395087594	3
0	12014	2114.042137023114	2
0	12018	2114.205842700151	3
0	12023	2115.26238572387	2
0	12027	2115.872514917537	3
0	12029	2116.10323720865	4
0	12034	2118.031164564539	3
0	12038	2118.07857979295	4
0	12042	2122.918975756937	5
0	12043	2123.504179702587	4
0	12047	2124.432856679835	5
0	12054	2125.618265997654	6
0	12060	2127.958265197206	7
0	12061	2128.089378437474	6
0	12066	2128.931110074893	5
0	12071	2129.564152299294	4
0	12077	2130.267225858251	5
0	12082	2130.878005849901	4
0	12086	2130.897933007965	5
0	12089	2131.593930917233	4
0	12094	2132.140437888806	3
0	12098	2133.94001722739	4
0	12101	2135.111816210874	3
0	12107	2135.336978577866	4
0	12108	2136.066208103167	3
0	12112	2136.843844187789	4
0	12115	2137.678391140881	3
0	12125	2139.552102756704	4
0	12127	2140.43047276676	5
0	12131	2141.137739452672	6
0	12134	2141.463090172101	7
0	12135	2141.846157440095	6
0	12141	2141.880647934423	7
0	12143	2142.261991178706	8
0	12144	2142.728181746866	7
0	12148	2143.375382294867	8
0	12150	2143.485598600947	9
0	12152	2143.500404612578	10
0	12154	2144.091606300528	11
0	12158	2144.510940566579	12
0	12159	2144.755386354424	11
0	12168	2147.29882055828	10
0	12176	2147.975310308843	9
0	12183	2148.679885645254	8
0	12188	2150.173008130141	7
0	12192	2150.622922160293	8
0	12194	2150.805782599379	9
0	12196	2151.952846466485	10
0	12201	2153.351860093142	9
0	12205	2153.419001354282	10
0	12207	2153.653623554552	11
0	12210	2155.34111829321	10
0	12217	2156.068737159214	9
0	12223	2157.326260061204	10
0	12224	2157.662694336873	9
0	12230	2158.60386753333	8
0	12236	2158.697183094217	9
0	12238	2158.836546248008	10
0	12239	2159.22545890039	9
0	12244	2160.584670685906	8
0	12249	2161.234630655336	7
0	12254	2162.028803236649	6
0	12259	2162.379311396835	5
0	12264	2163.480952924619	4
0	12269	2164.985299651426	3
0	12275	2166.195828656639	4
0	12277	2167.929335510398	5
0	12281	2168.176989933857	6
0	12283	2168.485389155634	7
0	12284	2168.835345298749	6
0	12288	2169.048817657974	7
0	12291	2169.346838796401	6
0	12296	2169.430322648778	5
0	12301	2170.898820902141	4
0	12305	2171.106432940199	5
0	12309	2173.580075351892	6
0	12310	2173.599627546195	5
0	12315	2174.274499054467	4
0	12320	2174.981025282914	3
0	12326	2176.28678160538	4
0	12327	2177.122555595351	3
0	12335	2179.632188293427	4
0	12340	2181.105581044555	3
0	12344	2182.176867845212	4
0	12346	2183.052533989767	5
0	12349	2183.242742393537	4
0	12353	2183.672814497695	5
0	12355	2185.002848146023	6
0	12358	2186.713736754485	5
0	12364	2187.846077519508	6
0	12365	2189.007799952508	5
0	12369	2189.420311033892	6
0	12375	2190.436342745813	7
0	12378	2192.461079416808	6
0	12382	2193.013717221908	7
0	12384	2193.284292339009	8
0	12388	2195.363692907771	9
0	12390	2196.002522325949	8
0	12395	2196.655248170043	7
0	12400	2197.055793062586	6
0	12405	2197.669664319763	5
0	12410	2197.860469957809	4
0	12415	2198.345485784605	3
0	12421	2199.883842859184	2
0	12426	2202.333237732712	1
0	12432	2203.334989427241	2
0	12434	2203.643769205768	3
0	12435	2205.717680520046	2
0	12442	2206.523911017358	1
0	12446	2208.298153800463	2
0	12450	2210.065083556784	1
0	12456	2210.672392043169	2
0	12460	2211.788237309587	3
0	12461	2212.367247065188	2
0	12465	2212.485368194852	3
0	12468	2214.622912960288	2
0	12472	2214.724143524061	3
0	12475	2215.911294359378	2
0	12480	2216.561648674184	1
0	12487	2220.818652904477	0
0	12499	2223.567342307273	1
0	12500	2225.069695243988	0
0	12518	2225.828770181031	1
0	12520	2226.42335850748	0
0	12550	2230.090399260377	1
0	12552	2230.464069564449	2
0	12559	2233.311449829668	3
0	12561	2233.463014355019	4
0	12566	2234.296089139759	5
0	12568	2234.437856217747	6
0	12573	2235.663118443762	7
0	12576	2238.043052171421	6
0	12582	2238.174069010566	5
0	12588	2239.170561099184	4
0	12593	2239.196661714074	3
0	12598	2241.060710844832	2
0	12603	2241.744389987327	1
0	12608	2241.784744248213	0
0	12614	2243.685039249295	1
0	12616	2244.708843111355	2
0	12620	2246.59381731625	1
0	12626	2248.742518219187	0
0	12632	2248.778490479013	1
0	12633	2250.496426540041	0
0	12645	2251.610792740818	1
0	12651	2252.368888032346	2
0	12653	2252.499448241293	3
0	12655	2252.961660970776	4
0	12657	2253.288323542751	5
0	12658	2253.525456134052	4
0	12662	2253.792959858114	5
0	12665	2254.483987671092	4
0	12671	2254.735173167493	5
0	12674	2255.078143589366	4
0	12679	2255.753241722309	3
0	12683	2255.82992972892	4
0	12687	2256.931215785989	5
0	12689	2256.934249841531	6
0	12690	2257.297295930936	5
0	12697	2258.246037555538	4
0	12702	2258.881867138819	3
0	12706	2259.205000622461	4
0	12715	2261.16999975789	3
0	12723	2263.080687977177	4
0	12726	2264.015126165545	3
0	12734	2265.646006863218	2
0	12744	2267.17353584826	1
0	12751	2267.910176452084	0
0	12766	2270.699999055719	1
0	12770	2271.217480030404	0
0	12810	2274.92355026356	1
0	12811	2275.163135492722	0
0	12826	2277.921574858128	1
0	12827	2278.073308024902	0
0	12872	2283.072296059701	1
0	12875	2283.940939350563	0
0	12881	2283.984584807816	1
0	12883	2284.744975680078	2
0	12885	2285.407910934179	3
0	12887	2286.769803957386	2
0	12892	2287.109640905316	1
0	12898	2288.087286851431	0
0	12954	2301.354064394189	1
0	12958	2302.220829176656	2
0	12959	2303.131438040817	1
0	12964	2303.664656635237	0
0	12978	2307.914134987505	1
0	12980	2308.413121115863	2
0	12982	2308.456546700202	3
0	12988	2309.195687492401	4
0	12989	2309.552092486718	3
0	12996	2310.199341128398	2
0	13004	2310.436792329611	1
0	13009	2310.677330030621	0
0	13015	2310.685799723417	1
0	13024	2312.891231690781	2
0	13027	2314.191828259739	1
0	13036	2315.373878336299	0
0	13055	2318.063604883488	1
0	13056	2318.508377931361	0
0	13075	2320.109602110494	1
0	13076	2320.301056519989	0
0	13082	2320.817457348008	1
0	13083	2320.894296094388	0
0	13096	2322.233104136891	1
0	13098	2322.747672306181	0
0	13104	2323.120314774563	1
0	13105	2323.257598345029	0
0	13119	2325.6848842634	1
0	13124	2326.698015636371	0
0	13162	2333.400351481496	1
0	13166	2334.315205542377	0
0	13176	2336.651610096264	1
0	13178	2336.840786473232	2
0	13180	2336.955323003044	3
0	13187	2340.396884330491	4
0	13190	2343.412441507875	5
0	13193	2345.173223566147	4
0	13199	2345.392548598121	5
0	13201	2346.032270331563	4
0	13206	2346.072921752616	3
0	13213	2346.524682227892	4
0	13215	2348.133363183885	3
0	13220	2348.228562122998	2
0	13225	2348.403512955441	1
0	13231	2348.441104266834	2
0	13234	2349.289640238961	1
0	13239	2349.452460242853	0
0	13258	2350.117822618964	1
0	13260	2350.616058890098	0
0	13266	2350.618581678546	1
0	13267	2351.069760479578	0
0	13276	2352.370426173156	1
0	13277	2352.630096297756	0
0	13283	2352.693070451573	1
0	13285	2352.716216093513	2
0	13287	2352.808987027783	3
0	13291	2354.001832487781	2
0	13297	2354.955027704676	1
0	13303	2355.435523364477	0
0	13309	2355.931648274295	1
0	13310	2355.967331407362	0
0	13331	2357.496206250058	1
0	13333	2360.879543459464	0
0	13344	2361.592268432007	1
0	13345	2361.688642269602	0
0	13351	2362.267864018837	1
0	13352	2362.501422966604	0
0	13360	2363.006316846427	1
0	13361	2363.138498114851	0
0	13389	2367.479315067201	1
0	13390	2367.574832136714	0
0	13397	2369.291638453796	1
0	13398	2369.876906675496	0
0	13409	2370.255971184883	1
0	13412	2370.506077378067	2
0	13413	2370.729106923761	1
0	13418	2370.819888628442	0
0	13441	2375.824090961208	1
0	13442	2375.901719506241	0
0	13448	2376.537507394654	1
0	13449	2376.551011054162	0
0	13479	2378.808211343549	1
0	13484	2380.220812273379	2
0	13488	2380.411249237159	3
0	13489	2380.921417005517	2
0	13498	2383.999378705348	1
0	13504	2384.027833381907	2
0	13505	2384.517866710256	1
0	13510	2384.736347009489	0
0	13521	2384.802397070915	1
0	13522	2384.951058394636	0
0	13529	2385.789777508049	1
0	13530	2386.000949073628	0
0	13541	2388.665943818831	1
0	13542	2388.697297460872	0
0	13566	2392.838494529235	1
0	13567	2392.849923174769	0
0	13573	2392.864563282636	1
0	13575	2393.839212940409	0
0	13611	2398.43452252181	1
0	13612	2398.552668920089	0
0	13639	2400.324586715647	1
0	13640	2400.434929843173	0
0	13647	2400.552698860673	1
0	13649	2400.80674430692	2
0	13651	2400.807921068055	3
0	13652	2400.808460376094	2
0	13657	2400.915677794296	1
0	13664	2401.745481481959	0
0	13676	2402.617405605135	1
0	13677	2403.047155570549	0
0	13689	2403.848421442297	1
0	13694	2404.592830446167	2
0	13697	2406.083556434747	3
0	13700	2406.510827817013	4
0	13702	2406.58741038834	5
0	13703	2407.194470166531	4
0	13708	2407.217746120186	3
0	13716	2407.885144140609	4
0	13718	2408.021076280312	5
0	13720	2408.288027038043	6
0	13721	2408.412572913637	5
0	13728	2409.216120969042	4
0	13732	2409.921923196301	5
0	13735	2411.747272437308	4
0	13741	2413.534011695764	3
0	13746	2413.573626229153	2
0	13750	2413.893457014983	3
0	13754	2414.601751380153	4
0	13758	2415.034195285551	5
0	13759	2415.194518651101	4
0	13767	2418.26937601838	3
0	13772	2418.575435828505	2
0	13781	2422.246355623126	3
0	13784	2422.288492742945	4
0	13785	2422.710633417252	3
0	13790	2422.895263733215	2
0	13795	2424.557483988654	1
0	13799	2424.586307338249	2
0	13802	2426.06079283827	1
0	13807	2426.197342587853	0
0	13858	2434.781607413725	1
0	13864	2435.681550597179	2
0	13866	2435.967639980785	3
0	13867	2436.496430755958	2
0	13873	2436.748632642974	3
0	13874	2437.650572811515	2
0	13880	2438.085185246986	3
0	13881	2438.088412401618	2
0	13886	2438.330708946078	1
0	13893	2438.926941309684	0
0	13906	2440.416748787247	1
0	13908	2441.563144363594	0
0	13919	2441.875078184729	1
0	13921	2442.253295818478	2
0	13922	2442.26591979476	1
0	13932	2443.39645245215	0
0	13941	2445.12863807613	1
0	13942	2445.660772150654	0
0	13995	2461.537698877841	1
0	13999	2462.986529794409	2
0	14001	2463.219802318148	3
0	14002	2463.420186508981	2
0	14007	2463.814622338562	1
0	14013	2463.921720745002	2
0	14017	2464.837327451744	1
0	14023	2465.450822965514	2
0	14025	2465.547351934456	3
0	14026	2466.411650663658	2
0	14032	2466.616952777757	3
0	14035	2467.062842732744	4
0	14037	2467.487595033228	3
0	14042	2467.753602685309	2
0	14047	2467.92994058724	1
0	14052	2468.227862054822	0
0	14070	2470.789974229063	1
0	14072	2473.260670669143	2
0	14076	2475.947509679684	1
0	14085	2477.201946412304	0
0	14094	2478.077722385262	1
0	14096	2478.173313684549	0
0	14107	2479.71483061183	1
0	14109	2479.811322726752	2
0	14111	2480.236135583262	3
0	14113	2480.884114648879	2
0	14118	2481.259879746018	1
0	14123	2481.268688894531	0
0	14130	2481.921123118141	1
0	14133	2482.019337716576	2
0	14134	2483.702817539046	1
0	14141	2483.995813642356	2
0	14143	2484.037320807611	3
0	14145	2484.776469446337	2
0	14154	2486.912211630444	1
0	14160	2487.876986727009	0
0	14183	2489.327911073607	1
0	14184	2489.477205301091	0
0	14193	2490.523207587963	1
0	14199	2492.660056287264	0
0	14208	2493.926794534208	1
0	14212	2495.258698373912	2
0	14213	2495.565584006719	1
0	14218	2496.602979923968	0
0	14232	2498.124386042159	1
0	14235	2499.547013485308	0
0	14265	2502.820629668322	1
0	14269	2503.736620243536	2
0	14272	2504.169260807651	3
0	14274	2504.992626788644	2
0	14280	2505.733253356301	1
0	14285	2505.879256014223	0
0	14302	2507.640448091352	1
0	14304	2508.192386964177	2
0	14307	2509.785084443211	1
0	14312	2510.204698474228	0
0	14325	2511.075671975814	1
0	14326	2511.103044534029	0
0	14335	2511.495411828067	1
0	14338	2512.659978092802	0
0	14354	2515.84940985341	1
0	14356	2515.857385175483	2
0	14358	2515.880262814913	3
0	14363	2516.980073559328	2
0	14368	2517.325163493711	1
0	14373	2517.522950961861	0
0	14385	2518.541658752326	1
0	14386	2518.79410360093	0
0	14398	2520.587260787829	1
0	14399	2520.887095713763	0
0	14422	2522.960147660655	1
0	14424	2523.66643292419	0
0	14435	2523.705417726258	1
0	14438	2524.400747558972	2
0	14440	2524.462875132295	3
0	14443	2524.734580497893	4
0	14448	2525.470740121443	3
0	14453	2525.904203896066	2
0	14461	2528.189010198815	1
0	14466	2528.714541192369	0
0	14492	2531.215082031834	1
0	14497	2532.278888463236	2
0	14498	2532.325499534856	1
0	14503	2532.529823538988	0
0	14507	2533.011344916517	1
0	14510	2533.40535818931	0
0	14514	2533.417810379884	1
0	14520	2539.616435644759	0
0	14526	2540.331138305201	1
0	14528	2540.870143427751	0
0	14545	2543.343976039118	1
0	14546	2543.675932734531	0
0	14561	2544.96610411606	1
0	14564	2546.674456139238	0
0	14580	2550.241238034721	1
0	14581	2550.564899678546	0
0	14585	2550.72521177354	1
0	14587	2550.834029484536	2
0	14591	2551.741644593439	3
0	14593	2553.975015944172	4
0	14595	2554.079123849996	5
0	14597	2555.963175735432	6
0	14601	2557.224789455911	5
0	14608	2557.360002476359	4
0	14618	2558.619686861138	3
0	14625	2559.656537386871	2
0	14631	2559.891306792104	1
0	14637	2561.078936498703	0
0	14641	2561.347857953554	1
0	14645	2561.643516286254	2
0	14648	2562.189410821381	1
0	14655	2563.002850972913	2
0	14658	2565.507280162291	1
0	14663	2565.630131987891	0
0	14669	2565.706502166822	1
0	14670	2566.03605123437	0
0	14676	2566.526868457978	1
0	14677	2568.846916342227	0
0	14684	2570.459198286783	1
0	14686	2570.483327765737	0
0	14703	2571.91427759086	1
0	14704	2571.987199862554	0
0	14732	2574.071015344912	1
0	14733	2574.348024692334	0
0	14739	2574.548610104006	1
0	14741	2575.324580523549	2
0	14744	2575.38939426232	3
0	14746	2575.782299934996	4
0	14747	2575.859000084177	3
0	14753	2575.92705491835	4
0	14754	2576.541371666296	3
0	14761	2576.871969902023	4
0	14762	2576.916184814202	3
0	14767	2577.098389940804	2
0	14773	2577.245918202444	3
0	14778	2578.625896915227	2
0	14784	2579.114424740661	1
0	14789	2579.358799195736	0
0	14795	2579.568216545452	1
0	14796	2579.845589017495	0
0	14804	2581.290218718325	1
0	14805	2581.512382630145	0
0	14811	2581.751803213725	1
0	14812	2582.13858002081	0
0	14828	2584.529310920897	1
0	14829	2585.295817659002	0
0	14853	2586.866847890575	1
0	14857	2587.487248995001	2
0	14864	2589.250756552339	1
0	14868	2589.394492991447	2
0	14870	2590.279431434515	3
0	14876	2591.671516610307	4
0	14882	2594.403389542166	5
0	14884	2594.687917874407	6
0	14886	2594.923381976996	7
0	14887	2595.214198338741	6
0	14892	2595.217746906755	5
0	14898	2595.733154973513	4
0	14903	2595.754291370469	3
0	14907	2595.825896921482	4
0	14910	2596.130471287813	3
0	14915	2596.886586912251	2
0	14921	2597.175301662614	3
0	14923	2597.285955555711	4
0	14929	2598.203660378416	5
0	14930	2598.233121009	4
0	14936	2599.345351633526	3
0	14942	2599.749227737705	4
0	14947	2601.097215260805	5
0	14948	2601.169547658353	4
0	14954	2602.117824813436	3
0	14959	2603.287300287479	2
0	14963	2603.610021500107	3
0	14966	2604.254362313567	2
0	14971	2609.335919084117	1
0	14975	2609.410944329015	2
0	14978	2611.350217750512	1
0	14985	2612.716205956573	2
0	14988	2615.608168355939	1
0	14993	2616.288257586756	0
0	15009	2618.740390817282	1
0	15014	2619.485608865513	0
0	15042	2622.421746422642	1
0	15044	2624.844190579392	2
0	15046	2625.144596255068	3
0	15048	2626.873355942006	4
0	15050	2627.924296672194	5
0	15052	2628.25275530229	6
0	15061	2629.793614705233	5
0	15068	2631.483774080996	4
0	15073	2631.533506914346	3
0	15078	2631.654159254117	2
0	15084	2631.994131277735	3
0	15086	2632.055213875041	2
0	15091	2632.280461434066	1
0	15095	2632.82945651955	2
0	15101	2635.704591858207	3
0	15105	2636.917520963811	2
0	15111	2637.711094109972	3
0	15116	2638.965646435022	4
0	15117	2639.306109636412	3
0	15122	2639.403843940371	2
0	15128	2640.218867470558	3
0	15129	2640.291596275923	2
0	15135	2641.4257851238	3
0	15136	2642.326165657985	2
0	15143	2643.141955297346	3
0	15147	2645.131992116073	4
0	15150	2646.031643260777	3
0	15155	2646.121227589889	2
0	15160	2646.750662977006	1
0	15164	2647.1506903426	2
0	15169	2648.708704990439	1
0	15181	2649.626467528934	2
0	15182	2649.935250061019	1
0	15189	2650.182915917207	0
0	15210	2653.266617974955	1
0	15212	2653.69705578387	0
0	15225	2655.124425538928	1
0	15227	2655.303765343233	2
0	15228	2656.122086535807	1
0	15233	2656.383545612206	0
0	15249	2656.489894756721	1
0	15250	2656.679516336866	0
0	15254	2657.366322634261	1
0	15258	2657.446399804399	2
0	15261	2657.972566575416	1
0	15266	2658.329103700088	0
0	15288	2659.682218348316	1
0	15290	2660.259810325299	2
0	15293	2661.340160778656	3
0	15295	2661.912806605464	2
0	15301	2661.952634872467	3
0	15302	2662.057532489571	2
0	15307	2666.353976916151	1
0	15314	2666.85040466906	0
0	15328	2668.408549793045	1
0	15333	2669.733029443325	0
0	15344	2669.913522423245	1
0	15346	2670.872968006039	0
0	15363	2673.113025849291	1
0	15364	2673.151895747037	0
0	15377	2674.483884139069	1
0	15380	2675.316078092922	0
0	15395	2677.330453757681	1
0	15397	2677.453375091834	2
0	15399	2678.045157988674	3
0	15402	2678.735753558883	2
0	15410	2681.585779524066	3
0	15413	2681.717372231007	4
0	15421	2683.736682484601	5
0	15422	2684.368703045804	4
0	15427	2684.553352942462	3
0	15432	2685.147927883868	2
0	15441	2687.683953011249	1
0	15445	2687.707108272652	2
0	15449	2687.814047323029	3
0	15452	2688.731733159853	2
0	15456	2688.949742687017	3
0	15459	2688.997278825325	2
0	15467	2690.181350576182	3
0	15469	2691.0303239872	4
0	15470	2691.0803169125	3
0	15481	2694.639364273853	2
0	15486	2695.147103055158	1
0	15492	2695.497105942888	0
0	15527	2700.225335658963	1
0	15532	2701.301324590141	0
0	15538	2701.552075166256	1
0	15543	2703.097415297035	2
0	15546	2704.158459895733	1
0	15552	2704.41154022599	2
0	15553	2704.581986849276	1
0	15558	2704.793705458583	0
0	15570	2705.831247439827	1
0	15571	2706.081532180361	0
0	15585	2707.259876331243	1
0	15590	2709.845255357212	0
0	15630	2714.45280049891	1
0	15631	2714.667785513054	0
0	15639	2715.407801822548	1
0	15642	2715.855292119115	2
0	15643	2715.916237234103	1
0	15648	2716.06838809094	0
0	15673	2718.997526388585	1
0	15674	2719.021173451739	0
0	15695	2721.636998621421	1
0	15696	2722.867253626498	0
0	15705	2723.411648465743	1
0	15713	2724.79763734938	2
0	15715	2725.177406245595	3
0	15719	2725.705833638086	2
0	15724	2725.758532048644	1
0	15729	2726.579203078771	0
0	15736	2727.358320224622	1
0	15740	2728.637809564906	2
0	15741	2729.082080213967	1
0	15749	2729.390134728643	0
0	15770	2731.175472879618	1
0	15774	2732.07650539054	2
0	15776	2732.890664527672	3
0	15778	2732.983395453008	4
0	15779	2733.507211334667	3
0	15787	2734.233804194674	4
0	15790	2735.367971427876	3
0	15796	2735.7735858695	2
0	15801	2736.107477296188	1
0	15806	2736.93939958191	0
0	15812	2737.31860820231	1
0	15816	2738.072343271789	0
0	15852	2742.373369265877	1
0	15859	2744.66468050794	0
0	15898	2748.560305396826	1
0	15899	2748.651837683414	0
0	15928	2751.643362910597	1
0	15932	2752.380818916011	2
0	15933	2752.732215984869	1
0	15939	2753.873397556592	0
0	15950	2754.125215287797	1
0	15952	2754.616039612514	0
0	15959	2755.163591228916	1
0	15962	2755.853164898487	2
0	15966	2756.289417273207	3
0	15968	2756.304249228825	4
0	15970	2757.263442217099	3
0	15977	2758.022176788302	4
0	15978	2758.246320391215	3
0	15983	2758.994913652173	2
0	15990	2759.03004299688	3
0	15991	2759.40522842917	2
0	15997	2759.985651257324	1
0	16002	2759.992290960787	0
0	16016	2761.329448355452	1
0	16019	2761.80222494547	0
0	16039	2766.161977929113	1
0	16043	2767.067022856832	2
0	16045	2767.335574546484	3
0	16048	2767.481963039106	2
0	16055	2768.230110949248	1
0	16061	2768.798346678847	0
0	16068	2769.194375258698	1
0	16070	2770.329931465516	0
0	16085	2775.744621786684	1
0	16086	2775.787702901042	0
0	16097	2776.08044184356	1
0	16098	2776.153232078737	0
0	16144	2783.478469380481	1
0	16147	2784.595825666	0
0	16162	2786.780753788018	1
0	16168	2787.663278054565	2
0	16169	2788.025551581973	1
0	16174	2788.620271815079	0
0	16183	2790.632334122712	1
0	16185	2790.883297877919	0
0	16201	2792.117696696949	1
0	16205	2794.541523482083	2
0	16207	2795.020567353633	1
0	16212	2795.115399275079	0
0	16226	2796.4703954901	1
0	16227	2796.793618215108	0
0	16255	2801.853011326637	1
0	16257	2801.856711783706	2
0	16259	2802.608878762692	3
0	16261	2802.622174942898	4
0	16262	2802.766424653769	3
0	16268	2802.898917114986	4
0	16270	2803.055385024248	5
0	16273	2805.883693879418	4
0	16281	2807.532738067495	5
0	16282	2807.557100293721	4
0	16287	2807.803934296856	3
0	16296	2808.256958427329	2
0	16301	2808.991138689749	1
0	16308	2809.487938371783	0
0	16335	2812.255998074208	1
0	16338	2812.694886942292	2
0	16343	2815.588803150295	1
0	16349	2817.002490056773	0
0	16357	2818.367797914875	1
0	16358	2818.50233394819	0
0	16374	2823.12942643304	1
0	16378	2824.632716248439	2
0	16379	2824.685939567062	1
0	16384	2824.967025618012	0
0	16401	2825.768402819221	1
0	16403	2826.869114871831	0
0	16414	2827.271667849348	1
0	16415	2827.88229284191	0
0	16430	2829.08801989631	1
0	16435	2830.461989034266	0
0	16446	2830.947359047167	1
0	16448	2831.441265024953	0
0	16455	2833.197699461508	1
0	16457	2834.7875098667	0
0	16471	2836.529001550967	1
0	16472	2836.534873506078	0
0	16478	2836.801998154261	1
0	16479	2837.810244052873	0
0	16485	2838.159240113379	1
0	16488	2838.272986785271	0
0	16494	2838.925741926382	1
0	16495	2839.327319639453	0
0	16499	2839.47469337613	1
0	16502	2839.855686872885	0
0	16525	2842.145814026304	1
0	16527	2842.562452214005	2
0	16528	2843.204834478587	1
0	16537	2843.693323653508	2
0	16539	2843.740271995186	3
0	16542	2844.437015524182	4
0	16544	2845.516522857105	3
0	16549	2845.825543157811	2
0	16558	2847.748297957464	1
0	16564	2849.157135955902	2
0	16565	2849.888443493048	1
0	16569	2850.928315874506	2
0	16573	2852.527755168071	1
0	16578	2853.368508325246	0
0	16582	2854.22674814388	1
0	16585	2855.502288757809	0
0	16591	2856.056153454128	1
0	16592	2856.069054844655	0
0	16654	2861.70646281458	1
0	16656	2863.599607264316	2
0	16665	2865.897273044592	1
0	16671	2866.564534745105	0
0	16687	2867.820755384643	1
0	16688	2867.824273971165	0
0	16712	2870.472862853495	1
0	16717	2871.464733684196	0
0	16753	2878.140838814098	1
0	16755	2878.409365555863	0
0	16768	2880.006863703906	1
0	16772	2882.081718369729	0
0	16786	2882.539643269717	1
0	16790	2883.805724543175	0
0	16818	2885.988197106481	1
0	16819	2886.088904654615	0
0	16840	2888.499269702151	1
0	16841	2888.63793910411	0
0	16857	2890.756881554493	1
0	16861	2892.632535592809	2
0	16864	2892.890645944453	3
0	16866	2895.008170592728	4
0	16867	2895.361293098741	3
0	16874	2895.759984628969	4
0	16876	2895.767042490365	5
0	16878	2896.146329231685	6
0	16884	2897.858092028132	5
0	16889	2899.635413263848	4
0	16896	2901.144595969386	3
0	16901	2901.239334448463	2
0	16906	2901.577661196143	1
0	16912	2903.123669234267	0
0	16925	2903.885077988723	1
0	16926	2904.482367144635	0
0	16960	2909.404664323578	1
0	16961	2909.58861018806	0
0	16965	2909.713473177555	1
0	16971	2912.464734273637	2
0	16980	2917.077836401621	1
0	16985	2917.670467977684	0
0	16991	2918.157120466909	1
0	16993	2918.30208391994	2
0	16998	2919.275980933975	1
0	17002	2921.760911437154	2
0	17008	2923.326700398954	3
0	17009	2925.190601092267	2
0	17015	2925.946487309264	3
0	17018	2926.824889224984	4
0	17020	2927.088764432926	5
0	17021	2928.02116057914	4
0	17026	2928.065855445557	3
0	17032	2928.302715636377	4
0	17036	2929.270820591237	3
0	17041	2929.718759156111	2
0	17046	2930.646505239412	1
0	17050	2930.693194159467	2
0	17054	2931.081229486595	1
0	17059	2931.327352521005	0
0	17067	2933.055839536507	1
0	17069	2933.113063012827	2
0	17071	2933.833315435261	3
0	17072	2934.124716537892	2
0	17078	2934.777654024269	3
0	17079	2935.252439399969	2
0	17086	2936.443680586285	1
0	17090	2936.981694909999	2
0	17092	2938.080159928649	3
0	17094	2938.314660473812	4
0	17100	2939.861275014461	3
0	17106	2940.018237321071	4
0	17108	2940.193424610926	5
0	17111	2940.509752313506	4
0	17116	2940.637142595203	3
0	17126	2942.004984292217	4
0	17127	2942.880043135422	3
0	17133	2944.695047975169	2
0	17138	2945.0834322307	1
0	17142	2946.289750079012	2
0	17145	2947.631296713089	1
0	17149	2948.37254598368	2
0	17151	2948.541433758893	3
0	17154	2949.327168297976	2
0	17159	2949.760045596569	1
0	17163	2949.895025624922	2
0	17169	2951.205505897893	3
0	17171	2951.475465707666	4
0	17173	2951.526170273069	5
0	17174	2953.597342569928	4
0	17179	2954.373664346431	3
0	17186	2955.481432720354	4
0	17187	2955.678419200849	3
0	17192	2956.065653449675	2
0	17197	2957.394897950032	1
0	17203	2958.105171512064	2
0	17212	2961.253223749155	1
0	17216	2961.673831012013	2
0	17222	2964.283960322676	1
0	17227	2964.441543334046	0
0	17267	2973.520684406837	1
0	17269	2973.987877099568	2
0	17270	2973.996185273159	1
0	17275	2974.100991060487	0
0	17281	2974.577777135181	1
0	17282	2974.673604958966	0
0	17300	2975.841767921974	1
0	17302	2976.849284117674	0
0	17323	2979.097985374544	1
0	17328	2982.327175420893	2
0	17329	2982.583490775069	1
0	17336	2982.984151908307	2
0	17337	2983.029759519611	1
0	17343	2983.036006757136	2
0	17349	2986.486102306718	1
0	17354	2986.765866047642	0
0	17360	2988.045325198198	1
0	17361	2988.148629837718	0
0	17369	2989.771907486335	1
0	17370	2989.862001335126	0
0	17377	2991.126712309125	1
0	17381	2993.01073444132	0
0	17405	2996.178198094553	1
0	17407	2998.233946662722	0
0	17439	3000.464932965135	1
0	17440	3001.184519616102	0
0	17456	3003.468466603014	1
0	17461	3005.982157784526	0
0	17467	3006.053332347782	1
0	17469	3007.225661766899	0
0	17497	3008.961757682111	1
0	17499	3009.668799364761	2
0	17501	3009.825109195295	3
0	17503	3009.999663546199	4
0	17506	3011.194068263833	3
0	17512	3011.980457575634	4
0	17518	3013.247797316222	3
0	17524	3013.631658885898	4
0	17527	3013.983281550859	3
0	17534	3014.757110603675	2
0	17539	3014.858621101354	1
0	17550	3016.765848201772	0
0	17563	3019.193257374726	1
0	17565	3019.396986829332	2
0	17569	3020.409233656656	3
0	17575	3021.861986455209	2
0	17582	3022.177494348712	1
0	17587	3022.387211047846	0
0	17593	3023.14634627449	1
0	17595	3024.206413220121	0
0	17644	3031.036572520572	1
0	17645	3031.037096671578	0
0	17651	3031.911565168161	1
0	17653	3032.057830352817	0
0	17681	3035.140991224122	1
0	17682	3035.864270869748	0
0	17688	3036.122171607797	1
0	17689	3036.372532800186	0
0	17718	3041.553311197929	1
0	17719	3041.666076502921	0
0	17754	3051.646093773028	1
0	17755	3051.785960055885	0
0	17770	3053.620883451048	1
0	17775	3054.166635370626	0
0	17834	3063.603899328346	1
0	17838	3063.744343785796	2
0	17839	3063.89534406957	1
0	17846	3064.608764854373	0
0	17862	3067.962298334215	1
0	17863	3068.416266121562	0
0	17870	3069.077416121875	1
0	17871	3069.207442325756	0
0	17930	3087.082741479555	1
0	17932	3087.783555582878	0
0	17941	3088.071709405479	1
0	17945	3090.623454645246	0
0	17952	3091.370371240021	1
0	17953	3091.386913846914	0
0	17967	3092.638972451366	1
0	17968	3092.69906429518	0
0	17986	3093.752436015709	1
0	17988	3094.191412142155	2
0	17990	3094.456399208274	3
0	17993	3095.319367792774	2
0	17999	3095.918330213679	1
0	18005	3096.216087468003	0
0	18089	3115.422893935946	1
0	18090	3115.757661207193	0
0	18129	3123.388898833034	1
0	18131	3124.964126037901	2
0	18132	3125.107905034948	1
0	18137	3125.282959960626	0
0	18167	3130.594148910607	1
0	18169	3130.603030526278	2
0	18170	3130.628306657268	1
0	18176	3130.894819585944	2
0	18177	3131.102828697726	1
0	18182	3131.237118174342	0
0	18214	3134.990275432297	1
0	18216	3135.019726113729	2
0	18217	3135.706662544953	1
0	18222	3135.878533642305	0
0	18279	3147.486076962597	1
0	18280	3148.209833753738	0
0	18294	3150.962041998496	1
0	18296	3151.058580512503	2
0	18302	3151.609727847475	3
0	18307	3155.071700257045	2
0	18312	3156.056854278517	1
0	18317	3156.849150966791	0
0	18328	3157.271816970661	1
0	18333	3159.602277964081	2
0	18334	3160.386762323467	1
0	18338	3160.450211746432	2
0	18344	3160.697914632256	3
0	18346	3161.727657195848	4
0	18348	3163.406966695333	5
0	18350	3164.950446561781	6
0	18353	3166.468782289985	5
0	18358	3167.934460408065	4
0	18366	3169.799297765029	3
0	18372	3171.1121376266	2
0	18377	3171.205218711863	1
0	18383	3172.420235337119	0
0	18389	3172.520046145	1
0	18390	3172.797966643629	0
0	18401	3173.97960076545	1
0	18408	3175.418142631354	2
0	18409	3175.823410263498	1
0	18414	3175.837441656626	0
0	18420	3175.981582059794	1
0	18422	3176.882523801937	2
0	18425	3178.076484226639	1
0	18430	3178.901823410959	0
0	18434	3179.257210069844	1
0	18440	3180.433441889955	2
0	18442	3180.538493070472	3
0	18443	3180.823089345778	2
0	18449	3182.170022995215	1
0	18454	3182.62631114344	0
0	18466	3184.136891243301	1
0	18468	3184.785508700002	0
0	18479	3184.979873516065	1
0	18481	3185.126942857908	2
0	18482	3185.817395526777	1
0	18488	3186.466050617384	0
0	18518	3190.131365326133	1
0	18520	3190.378379276521	2
0	18521	3191.128250645143	1
0	18526	3191.951608715426	0
0	18547	3193.456709035696	1
0	18553	3194.021937020386	2
0	18558	3196.185644021612	1
0	18564	3199.249348362331	0
0	18578	3201.953986674529	1
0	18579	3202.03442382564	0
0	18585	3202.049309291102	1
0	18587	3202.445970703895	0
0	18594	3202.873440727591	1
0	18596	3202.987291321277	2
0	18597	3203.850952354054	1
0	18602	3205.013158355945	0
0	18608	3206.206464328111	1
0	18610	3206.21804523443	2
0	18611	3206.244730123543	1
0	18615	3206.290385216098	2
0	18618	3206.700651172876	1
0	18623	3207.583419252698	0
0	18627	3208.513661092813	1
0	18630	3210.148751563927	0
0	18657	3217.137543425612	1
0	18661	3218.348018570312	0
0	18770	3236.331241604755	1
0	18773	3237.59715481603	0
0	18849	3252.964633531192	1
0	18851	3254.013516059239	2
0	18852	3254.909471827325	1
0	18860	3255.718604784232	0
0	18866	3256.112492638259	1
0	18868	3256.889914617861	2
0	18870	3257.95745455153	3
0	18871	3258.142413828708	2
0	18876	3258.344558585531	1
0	18884	3260.149035128722	2
0	18885	3261.577477566343	1
0	18890	3261.639300154747	0
0	18920	3270.863676095839	1
0	18921	3271.416234905988	0
0	18936	3272.58742004997	1
0	18937	3272.924531365471	0
0	18959	3275.239801108674	1
0	18961	3275.868955270558	2
0	18962	3276.115531755143	1
0	18970	3276.738009537393	0
0	19002	3281.464206213018	1
0	19004	3281.628766208566	2
0	19005	3281.637073313761	1
0	19010	3282.623780259331	0
0	19039	3290.542724965558	1
0	19040	3290.789948402893	0
0	19062	3297.820482469598	1
0	19063	3297.997473607666	0
0	19069	3298.121971957349	1
0	19076	3299.553461987625	2
0	19077	3299.553667195426	1
0	19083	3299.739864828769	0
0	19089	3299.992939138242	1
0	19090	3300.35521382355	0
0	19096	3300.640079775122	1
0	19102	3300.884682543095	2
0	19103	3301.306090123019	1
0	19108	3301.451575854417	0
0	19121	3303.152627885383	1
0	19127	3303.88165041278	0
0	19134	3305.962679931704	1
0	19138	3307.548185171211	2
0	19141	3308.437744427994	1
0	19147	3309.359604790339	2
0	19149	3309.869120961358	3
0	19150	3310.657639776984	2
0	19155	3311.189364482678	1
0	19162	3314.832979630939	0
0	19176	3315.616903653638	1
0	19179	3316.892454017693	0
0	19187	3317.679849518959	1
0	19188	3318.428645841741	0
0	19194	3318.536710016226	1
0	19196	3318.763111647635	0
0	19235	3325.534283536692	1
0	19237	3326.908474691497	0
0	19243	3328.042174878975	1
0	19244	3329.301360793391	0
0	19257	3330.449805607107	1
0	19258	3330.76848995255	0
0	19275	3333.229885099835	1
0	19276	3334.575470402689	0
0	19318	3343.737938002446	1
0	19319	3344.892319898958	0
0	19341	3348.918839773976	1
0	19343	3349.555071145183	0
0	19364	3353.690630479169	1
0	19366	3354.248850476417	2
0	19367	3354.920426557425	1
0	19375	3355.245474456817	2
0	19376	3355.972856471092	1
0	19381	3356.39462959643	0
0	19422	3367.272079599241	1
0	19425	3367.831770926502	0
0	19437	3370.470612944271	1
0	19438	3371.115114766339	0
0	19467	3375.038066376118	1
0	19468	3375.555038778614	0
0	19567	3392.224597981057	1
0	19569	3392.406347954166	2
0	19571	3393.239406156489	3
0	19572	3393.302891037318	2
0	19578	3393.386763324036	1
0	19583	3394.039965054656	0
0	19596	3395.830768467947	1
0	19599	3397.350468503196	0
0	19629	3400.654848910069	1
0	19631	3400.921888196325	2
0	19632	3401.266307446284	1
0	19638	3401.615104638832	0
0	19644	3402.825362081215	1
0	19645	3403.508211197849	0
0	19651	3403.622036573812	1
0	19652	3405.987782756011	0
0	19667	3407.904969788486	1
0	19669	3408.381104538712	0
0	19726	3421.676607837755	1
0	19728	3422.322923406949	2
0	19732	3422.666336243057	3
0	19733	3423.534907428738	2
0	19739	3424.80430449384	3
0	19740	3426.70373387422	2
0	19745	3427.147791215516	1
0	19750	3428.059126785352	0
0	19756	3430.985423359723	1
0	19758	3432.083456088294	0
0	19765	3432.427512462715	1
0	19768	3433.993589228775	0
0	19774	3434.105586951218	1
0	19775	3435.216299352638	0
0	19781	3435.513399796235	1
0	19782	3435.545472021284	0
0	19814	3444.753965082922	1
0	19816	3444.930443921555	2
0	19822	3448.235327844156	3
0	19823	3448.330276651851	2
0	19828	3448.389763976278	1
0	19833	3449.27515912941	0
0	19846	3452.387769351484	1
0	19848	3453.331656943609	0
0	19876	3457.037361343273	1
0	19878	3458.802679228506	2
0	19879	3458.881611811136	1
0	19883	3459.199762719671	2
0	19890	3460.738588628848	1
0	19895	3461.626339575021	0
0	19918	3464.388648573745	1
0	19920	3464.789430067021	0
0	19928	3465.25406427587	1
0	19931	3465.412923643861	2
0	19932	3465.567772893546	1
0	19938	3465.999621625999	2
0	19940	3466.628120069148	3
0	19941	3466.959272611107	2
0	19948	3468.176392743617	1
0	19955	3468.824790062925	0
[...]
4	162971	28158.882485610039	158.10483025431
4	162980	28160.444731640395	152.5288630385
4	162985	28161.652253617758	152.54212825796
4	162992	28162.238982143414	151.75210259251
4	163006	28164.530387425285	152.51930600858
4	163018	28166.589164681387	150.0587723798
4	163024	28168.280676517916	148.53377286545
4	163032	28170.505585150849	147.83528978119
4	163037	28170.952035771598	146.78101834211
4	163047	28171.358796691519	139.66399475792
4	163064	28176.177735985249	143.71252154124
4	163191	28195.425238640327	161.89764382761
4	163200	28196.482142358555	162.51666873169
4	163219	28200.114225752388	160.02088722514
4	163237	28201.072009871065	157.64588877213
4	163246	28204.924883593658	159.53913625097
4	163256	28205.105950584396	156.67909686124
4	163261	28205.250470517586	142.98220547621
4	163274	28209.235076394536	146.59985433258
4	163300	28213.683072963897	148.34488499467
4	163310	28213.712292808032	142.13758698136
4	163315	28213.715812134907	134.43694081953
4	163323	28214.23827178326	133.59751189225
4	163337	28218.162523772788	134.31756262726
4	163351	28219.417121002155	133.54602704314
4	163421	28228.942814686754	140.2741354955
4	163493	28247.839096960025	153.34836204222
4	163500	28248.037877807095	151.10539079593
4	163521	28252.949535486684	149.75849774055
4	163581	28265.254182799779	155.1542435256
4	163588	28266.726897671134	153.00227161382
4	163593	28266.785150027381	150.39517656582
4	163610	28272.750873496877	153.95630242994
4	163625	28274.598754380735	153.65274169009
4	163634	28275.423712434854	144.06783596848
4	163640	28275.708149999867	138.6770565087
4	163650	28277.827417279698	139.97893024423
4	163727	28291.599122374586	147.59409535509
4	163732	28292.292645127476	144.76266088747
4	163740	28293.901995494996	141.77384064001
4	164006	28347.836394884362	188.80630399144
4	164011	28348.008340838374	184.65867769621
4	164018	28349.104262968069	183.86542268598
4	164031	28350.733635177821	181.99691667851
4	164044	28351.734835898477	180.38255796673
4	164059	28353.263512161859	179.38760805935
4	164080	28355.591543177383	177.04824598222
4	164091	28356.521123084223	171.53315795606
4	164150	28367.490793737701	176.56432117564
4	164166	28368.915433461115	174.87126621546
4	164199	28371.586078087393	176.90383996097
4	164205	28371.975145497234	174.24326744481
4	164215	28373.332818874357	154.74448549136
4	164245	28376.393091550665	148.91284056408
4	164256	28377.650993907615	149.85090931866
4	164263	28377.708712783264	137.4919376053
4	164271	28379.422010850513	134.28712003695
4	164279	28381.266471182537	133.32412682043
4	164300	28383.096132260301	133.70750244531
4	164310	28384.945855051225	127.18350728989
4	164327	28386.66012313304	121.67157414714
4	164334	28386.931015651437	121.51780936815
4	164339	28387.416599808418	119.33615708397
4	164354	28391.829853986459	123.21180953831
4	164563	28430.657716137415	155.78916917656
4	164576	28432.272103663746	157.13482336265
4	164600	28434.239525668665	155.57060289015
4	164613	28436.847606154517	158.04450151697
4	164656	28445.770098120811	165.86907950181
4	164691	28452.386351426535	172.24740709842
4	164697	28452.706284256269	169.04912966133
4	164707	28453.47408115653	167.33191852782
4	164726	28456.131014034335	166.21260226466
4	164731	28456.178871399257	158.66575625262
4	164738	28459.076710385401	158.63719984248
4	164759	28460.877312556358	155.37814374013
4	164767	28462.427829930418	156.73574357275
4	164774	28463.699116272456	134.10172673624
4	164783	28465.844428873105	136.01451191473
4	164796	28471.704304891107	134.5919083583
4	164812	28474.055789350978	134.88804660401
4	164821	28474.865497279452	134.33545651542
4	164826	28474.877309661156	132.81664876967
4	164832	28476.447532108731	133.14797954045
4	164837	28476.491338866755	123.74202618581
4	164842	28477.929768808963	124.50133808747
4	164847	28478.398529591805	118.70269091403
4	164853	28479.937280051391	117.59517437602
4	164860	28480.930898343222	113.28605332717
4	164865	28481.686873925023	107.94342285219
4	164872	28482.302975137503	106.26862683634
4	164907	28484.072372605405	106.36624615768
4	164920	28485.996130991795	106.7812467783
4	164933	28486.374399755537	103.61990338912
4	164938	28486.580421320991	99.686205687347
4	164951	28491.630775559214	96.387372336227
4	165385	28575.981002580663	176.96403594457
4	165391	28576.718308035432	159.28751434742
4	165396	28576.866385724172	143.49097779024
4	165407	28578.175302859694	144.35866334684
4	165426	28580.264574897111	142.03104552708
4	165444	28583.99509124434	141.37638744971
4	165453	28584.987066850609	137.08428406435
4	165514	28594.869919231492	144.51847579156
4	165520	28595.616678574338	143.33345096742
4	165525	28596.886659538298	137.16165439392
4	165531	28597.655140599198	136.36360363899
4	165538	28599.000339629434	135.19412443809
4	165555	28600.868723419162	127.61489301029
4	165570	28602.053436086435	127.88993811391
4	165603	28608.032750728369	127.90568457259
4	165608	28608.141775293452	125.04329808857
4	165615	28609.339999403896	125.74943419246
4	165628	28611.190500122231	124.86555364901
4	165633	28612.458787224432	120.49967369891
4	165640	28615.177179710623	121.86629552386
4	165653	28616.142856190196	120.57314656986
4	165666	28617.449122361493	121.558800734
4	165676	28618.446242046322	107.30296194759
4	165687	28618.66307162517	94.653663592764
4	165692	28619.797583273677	93.480282720116
4	165699	28620.464648459493	87.405093510557
4	165723	28625.870892028244	92.257369407789
4	165736	28627.240360688135	90.114935760289
4	165741	28628.79255969545	91.387230156257
4	165748	28632.704603734035	93.489893842363
4	165757	28634.827946772301	93.266604802004
4	165775	28636.931967822	93.661551641075
4	165782	28637.355901142779	91.538420702559
4	165793	28638.383473959564	86.146213901671
4	165834	28642.064009927315	89.503657104987
4	165850	28644.606541458984	83.494316789018
4	165859	28648.62855100266	85.439756632276
4	165883	28651.839463925016	88.284963974562
4	165896	28653.870167995322	88.640909111584
4	165907	28654.578612905013	89.191976057297
4	165913	28654.941763603316	84.959290977086
4	165923	28655.900356152544	84.641881988109
4	165943	28659.673839454178	85.953847499719
4	166001	28670.970050503468	96.64784068735
4	166012	28672.658690342088	94.674568512767
4	166017	28672.660775603705	94.567958346365
4	166027	28673.810620058135	95.376405744295
4	166038	28674.94727045476	91.569143098936
4	166060	28676.632633527078	90.069980046951
4	166065	28676.994178285528	87.786707898072
4	166078	28679.160705999997	89.111452777801
4	166104	28681.929567465299	91.127276537874
4	166110	28682.454321260881	90.820968852077
4	166115	28684.209971677615	90.138388439114
4	166130	28688.752117709542	89.478066733938
4	166152	28690.439162726247	84.470096405676
4	166159	28691.835176340252	81.741929155818
4	166172	28693.799876920764	72.969210908242
4	166209	28697.624781638396	75.335264046047
4	166214	28697.773611364178	75.267800901239
4	166219	28697.902758791949	75.123229809921
4	166224	28698.400969823831	73.085991649987
4	166230	28699.51366258129	72.825485451227
4	166237	28700.127929629616	68.446037289536
4	166244	28701.752660390878	62.948999368
4	166262	28704.427210982168	65.513594126775
4	166284	28707.449033787136	68.533121964072
4	166298	28711.408485349823	71.76877452414
4	166311	28713.950739913292	61.954146541897
4	166319	28714.944388639275	59.013261307879
4	166329	28715.193509124133	52.707239728318
4	166335	28716.572189485327	48.241547155322
4	166342	28717.552687540377	44.845729479566
4	166349	28717.890709541231	44.977390480251
4	166356	28718.455011723014	44.636289553916
4	166377	28720.248465244334	41.438444115283
4	166396	28723.885470554625	37.421924559678
4	166419	28726.124661875163	37.518887622754
4	166426	28726.621249883359	35.115879087009
4	166438	28729.829530875694	35.597580342466
4	166448	28729.885667775448	30.262138498043
4	166453	28731.810853233911	27.002110278938
4	166458	28733.596084002411	27.933086405734
4	166471	28737.410569551626	19.590841129204
4	166516	28742.846189578378	24.112492429003
4	166532	28745.667687998067	22.873132878858
4	166567	28751.170487606354	27.994587242832
4	166591	28756.339704279237	33.067057246019
4	166596	28756.515658637531	29.715398459975
4	166606	28757.726982362483	29.799280025239
4	166619	28760.12014991424	24.908310630408
4	166626	28760.402182662934	22.241391832302
4	166635	28762.581724760814	22.552508002447
4	166646	28763.672431543343	16.49780766607
4	166651	28764.052437282306	6.896899868075
4	166661	28767.210083350567	8.737607850948
4	166666	28767.683819676489	7.377514468309
4	166677	28771.336456952821	10.194657958132
4	166775	28787.583441369136	22.172299064349
4	166805	28792.702904527753	27.148383415169
4	166816	28793.813054339163	24.362263413304
4	166861	28801.966122065211	30.167550839037
4	166871	28803.353874566823	24.500558031246
4	166878	28804.956999732758	21.664405242964
4	166884	28805.572205026894	22.036731171467
4	166891	28805.920851553469	20.835540219618
4	166896	28806.56790257054	18.867909723101
4	166906	28807.796230056753	18.436859645182
4	166928	28809.885349623127	19.413646381287
4	166937	28813.613190925168	21.911239518008
4	166944	28814.116416131302	22.096864905993
4	166959	28817.644945110024	23.820469955602
4	167022	28825.622689476941	26.380794716664
4	167034	28826.779013548219	17.48020451781
4	167041	28827.030939357099	16.918047348057
4	167111	28839.65426758801	28.114403179574
4	167120	28841.322720751203	15.604789984268
4	167147	28846.582677720688	19.075118201945
4	167170	28849.878129664916	20.663190338404
4	167178	28851.394362991157	22.027844397349
4	167186	28854.668747012599	25.055983770766
4	167191	28854.995408137352	24.933746557513
4	167197	28856.114865255696	18.802038729354
4	167202	28856.248496938696	18.093225204813
4	167215	28860.37527181039	18.456326329976
4	167251	28863.856398471532	19.12423689792
4	167287	28867.4259562043	22.287121131972
4	167294	28867.644232439837	20.650624953005
4	167334	28873.78839234919	22.985056822294
4	167417	28893.669935889546	39.212434754452
4	167430	28894.954757143174	31.843926100268
4	167435	28895.584414056774	29.107463968325
4	167443	28897.353029495308	30.872473258903
4	167451	28899.32276757779	28.98286131878
4	167462	28900.738482566239	23.111143977086
4	167474	28903.551188143139	18.91162641081
4	167531	28910.670006396017	25.250081879815
4	167537	28911.793194004385	22.843219932191
4	167543	28912.285829279507	22.027230716691
4	167548	28913.292388038996	20.863328900164
4	167553	28914.087627323156	21.459054510764
4	167558	28914.107356260155	21.419070923901
4	167567	28917.766412038423	24.750896822465
4	167605	28921.561107755554	25.625530555651
4	167610	28921.740987954321	20.109757097815
4	167615	28922.515170679753	2.548700629535
4	167626	28924.634625480872	2.106703346842
4	167630	28925.118194636008	2.033718649249
4	167717	28944.344409688208	7.688953060424
4	167769	28947.199609559341	10.171961174431
4	167807	28951.713491807904	13.303922031168
4	167818	28952.527664682557	11.479084967472
4	167826	28956.007113610942	9.381309313036
4	167830	28956.029399749547	6.112574428615
4	167847	28958.178218580186	0.703683854393
4	168084	29003.119258600019	29.855279175041
4	168089	29003.413654698361	20.053098251136
4	168104	29004.985439501198	21.504032804905
4	168644	29110.700032800151	109.78599859581
4	168649	29111.008666659143	109.39829404831
4	168659	29112.490248494215	108.75895157407
4	168683	29118.071158526028	113.20648211028
4	168714	29122.440486675719	106.20995825775
4	168720	29123.173490642491	106.74364721093
4	168730	29124.318316170564	107.21840607846
4	168746	29125.105469245649	104.4950771639
4	168751	29125.327567898778	100.86964727044
4	168759	29127.03538961624	101.87816826813
4	168764	29127.967375165697	102.61363621208
4	168771	29129.936272350495	103.52444887133
4	168776	29130.13135367991	99.384700351876
4	168787	29134.370683474884	100.73219593584
4	168839	29139.982501199482	104.08480525742
4	168847	29140.66234281566	103.28449445485
4	168902	29147.554630562559	97.23807493012
4	168907	29147.810077103131	95.355101520396
4	168925	29151.006607747652	95.394786903498
4	169028	29160.027368054848	103.09413935026
4	169064	29170.663580067207	112.13657996569
4	169079	29172.755415968695	113.28021147528
4	169113	29175.414364431176	108.18502409386
4	169118	29175.421201000629	107.04348625672
4	169123	29175.657465483663	103.61016044126
4	169128	29175.716108628766	99.290537868012
4	169135	29175.929989028514	98.815457293829
4	169145	29179.420912827139	99.894125869352
4	169160	29181.215040827252	100.57106985127
4	169170	29182.185024724505	101.35569185624
4	169175	29182.215592066816	91.264764143744
4	169182	29182.418546411059	86.751897810146
4	169187	29183.864724757291	85.166263917194
4	169196	29184.855916460657	82.540354149631
4	169203	29186.101857183039	83.344590503365
4	169218	29188.48281414879	73.379330622766
4	169265	29197.062269117077	79.498477784993
4	169339	29210.331087859472	92.628086266848
4	169357	29214.446239146051	83.778647194906
4	169363	29214.942102420881	84.239195213707
4	169368	29215.144321877945	79.855571756944
4	169373	29215.307753053022	78.53737556237
4	169381	29215.677415727991	76.392593720284
4	169406	29220.137903220789	64.301677120694
4	169462	29227.237635734454	70.967201243301
4	169504	29231.920379456194	74.594152611699
4	169518	29233.741439200853	62.931061462516
4	169530	29235.997739625529	62.365402872421
4	169557	29237.41028914202	55.122989947479
4	169586	29240.33423524579	56.17095021526
4	169591	29240.704226433393	56.29660093725
4	169596	29240.949384142141	54.3268027621
4	169601	29241.415013836552	51.61768804952
4	169617	29245.491730809801	50.910561524187
4	169650	29248.945983841257	50.700160155222
4	169657	29249.336836900025	40.432004473867
4	169662	29249.54885553485	37.456719694781
4	169671	29250.10888984701	36.799520662909
4	169681	29250.319030302339	32.961996467369
4	169686	29250.406097797406	25.55534816967
4	169706	29256.406202651649	30.008542869406
4	170386	29381.146086043276	153.13242227957
4	170407	29383.377123963166	153.95457349781
4	170419	29385.648573494724	150.79960252572
4	170435	29387.105638893513	148.51120865466
4	170441	29387.690152100138	145.34627121155
4	170449	29388.330589379052	143.92753923627
4	170458	29390.964066992289	141.83633103554
4	170472	29391.351984808396	139.24926340254
4	170477	29391.517268845335	137.21408254035
4	170485	29393.344609153622	135.10739441843
4	170495	29393.656141959881	130.2611559187
4	170500	29393.982032167309	129.92461842603
4	170517	29397.895842073666	131.56444711904
4	170574	29405.391385553373	133.74546611396
4	170579	29405.700581844818	130.77276301087
4	170584	29407.696966136646	130.89309811964
4	170591	29410.205925384178	133.18587099393
4	170598	29411.202593975623	130.60358969122
4	170633	29419.667132034336	138.27723524043
4	170650	29421.939142213598	137.1905544973
4	170688	29425.307693056899	138.55160638093
4	170693	29425.403239083678	134.69091358626
4	170715	29429.933311827835	137.72713413421
4	170948	29475.940894716761	183.59203440274
4	170958	29476.678900966292	182.63646472964
4	170971	29477.785232133918	178.66846560552
4	170982	29478.184796642659	177.2459028451
4	170994	29481.22130449221	177.98013793657
4	170999	29482.407291629879	174.89886887473
4	171007	29483.708180796362	174.97381467186
4	171021	29485.163473496245	176.14775474516
4	171026	29485.459692647247	174.07840742093
4	171032	29486.282320956034	162.26183620097
4	171037	29486.675886429137	160.50631317066
4	171044	29489.517584676311	162.56365224867
4	171051	29490.335593827524	163.26297405052
4	171064	29490.827260493899	161.52317276256
4	171069	29491.49574302338	159.54564818858
4	171076	29494.283214394638	161.02321962633
4	171090	29501.723350608575	163.05818798546
4	171118	29507.773307990877	164.85156242232
4	171132	29508.736689902939	165.50410197727
4	171139	29511.123135832246	167.28477656894
4	171151	29515.580733569459	170.10263740523
4	171161	29517.778742657153	171.9491436573
4	171174	29523.397267560943	177.48917082636
4	171224	29530.83484339861	183.95731828819
4	171230	29531.284994864994	179.57526215428
4	171237	29533.284881563368	168.84895488236
4	171245	29534.332931701265	166.86566742019
4	171260	29537.962439357436	159.14574417503
4	171272	29538.735477223835	159.32656693669
4	171293	29543.268184788728	155.35555162081
4	171478	29572.847193201957	181.7040474328
4	171491	29577.032243077008	181.58670023102
4	171509	29578.786485504903	182.48185609824
4	171546	29584.514610706274	185.44504142221
4	171561	29586.79500028725	185.08791209768
4	171566	29587.430762531971	184.86772085569
4	171572	29589.158014866212	179.52669599547
4	171583	29590.290390146308	177.2815301247
4	171705	29614.775016678069	197.25507400512
4	171710	29615.049584513973	196.65539345168
4	171716	29615.864518019611	196.08031084488
4	171725	29616.968485983988	196.54117315841
4	171757	29619.599720042492	197.93342745165
4	171770	29622.179668820094	198.00853425751
4	171782	29623.216205425425	198.82292090789
4	171798	29624.224953050664	195.21363641266
4	171828	29628.909232942407	197.39730695845
4	171836	29629.595333342596	186.27346387147
4	171841	29629.687036371881	179.77921194803
4	171848	29630.305225740152	179.88666508255
4	171867	29632.096089624242	181.30482448151
4	171872	29632.158039410021	179.7908253268
4	171881	29637.111771656658	184.32443174311
4	171887	29638.212326013728	184.3208780799
4	171892	29638.42018129213	184.44519126967
4	171903	29642.30989292073	187.87553065067
4	171928	29644.212063938058	184.63758978301
4	171935	29647.927711306858	186.89571748583
4	171948	29649.677348694536	184.12363649253
4	171954	29650.92747067691	175.84994944668
4	171961	29651.09264107495	174.54010787901
4	171974	29651.862083314813	173.06298380676
4	171982	29653.014165603652	172.3326802874
4	172009	29665.133686120855	181.15118634946
4	172114	29678.263471243306	189.46695784198
4	172119	29678.282889664147	187.53196842807
4	172125	29679.043398769788	185.0979261549
4	172132	29679.425437840396	183.23141297339
4	172142	29679.615083835795	175.74100310621
4	172147	29679.938717447362	171.50108460094
4	172154	29683.160446383091	163.8681512296
4	172180	29690.465710387312	164.20319172294
4	173021	29864.0413467509	337.12694491438
4	173041	29868.451922327836	337.66986573932
4	173076	29871.139664702646	338.53596731274
4	173088	29872.043528189886	333.64456234684
4	173104	29875.270072492506	335.43263162551
4	173111	29876.873043298684	335.33257622475
4	173149	29879.125036459037	325.07969248376
4	173169	29883.453281596015	328.12577200366
4	173176	29884.106795807096	325.84214564376
4	173181	29884.277458398741	325.94405104494
4	173186	29884.485513266693	320.50279465686
4	173198	29888.40185104893	323.0800856969
4	173221	29891.889862573325	315.43448003105
4	173236	29894.702675865115	315.61126331407
4	173246	29895.030701780421	315.47107608836
4	173255	29896.226362015417	315.72627986725
4	173267	29898.28641304321	307.57052281487
4	173305	29906.997592018734	312.22732128514
4	173315	29908.324696840273	304.72201938686
4	173325	29909.080424898098	300.67828737265
4	173337	29909.784491781346	298.15020075647
4	173344	29910.461271496515	298.07622519726
4	173356	29911.089144135148	296.89163982886
4	173363	29912.874274613471	294.92401373469
4	173368	29913.504091267443	290.00113085522
4	173375	29915.049013007365	291.10652050082
4	173395	29916.548364896006	277.84440076622
4	173402	29917.735954076453	266.20274807183
4	173407	29919.359339617583	267.27545967434
4	173416	29922.602042040933	269.36589405646
4	173428	29925.644098100185	270.02269267526
4	173457	29934.742275573341	271.9737329238
4	173507	29945.36321468503	281.30145280003
4	173596	29963.28417791481	297.77549953679
4	173601	29963.364529964046	295.0074595814
4	173608	29965.118476091232	295.56830275492
4	173614	29966.490090604858	296.2806002106
4	173619	29966.53134568057	288.57209295
4	173628	29967.961800580446	286.78786312885
4	173633	29968.108420750009	280.01347139667
4	173642	29969.062211365564	277.71218331512
4	173727	29987.389274631879	289.61051471289
4	173735	29988.442372313754	285.59889461121
4	173756	29992.786981696258	288.55861734646
4	173777	29993.947892045852	280.91650198776
4	173792	29996.085332574717	274.85788815685

