version 2
run First-n3-2-20191016-14:52:37-11088
attr configname First-n3
attr datetime 20191016-14:52:37
attr experiment First-n3
attr inifile omnetpp.ini
attr iterationvars ""
attr iterationvarsf ""
attr measurement ""
attr network org.omnetpp.queueing.Pizza
attr processid 11088
attr repetition 2
attr replication ""
attr resultdir results
attr runnumber 2
attr seedset 2
param **.PS.maxInventoriedPS 3
param **.U1.interArrivalTime exponential(2s)
param **.U2.interArrivalTime exponential(4s)
param **.PS.serviceTimeForInventoryU1 exponential(0.8s)
param **.PS.serviceTimeForInventoryU2 exponential(1.0s)
param **.PS.serviceTimeDirectU1 exponential(1.2s)
param **.PS.serviceTimeDirectU2 exponential(1.4s)
param **.PS.probabilityProducing 0.5
param **.CS.serviceTimeU1 exponential(0.8s)
param **.CS.serviceTimeU2 exponential(1.0s)

vector 0 Pizza.EntryQueueU1 queueLength:vector ETV
attr interpolationmode sample-hold
attr title "queue length, vector"
vector 1 Pizza.CS queueLength:vector ETV
attr interpolationmode sample-hold
attr title "queue length, vector"
vector 2 Pizza.EntryQueueU2 queueLength:vector ETV
attr interpolationmode sample-hold
attr title "queue length, vector"
vector 3 Pizza.sink lifeTime:vector ETV
attr interpolationmode none
attr title "lifetime of arrived jobs, vector"
attr unit s
vector 4 Pizza.sink lifeTimeU2:vector ETV
attr interpolationmode none
attr title "lifetime of arrived jobs, vector"
attr unit s
0	0	0	0
0	7	1.145383979254	1
0	12	4.959248770767	0
0	28	7.048072724609	1
0	29	7.153771736524	0
0	35	7.337153272846	1
0	38	7.744913506768	2
0	39	7.860824720863	1
0	45	8.343068566861	2
0	46	8.406174147506	1
0	51	8.472571207911	0
0	55	9.389228817316	1
0	57	10.796618395726	2
0	63	11.501467403698	3
0	65	12.619127755961	4
0	72	12.866161618152	5
0	75	13.211259494398	4
0	81	13.378559445049	5
0	82	13.410342701202	4
0	89	14.293385373831	3
0	97	15.100782772038	4
0	100	16.312615939561	3
0	104	16.508134465713	4
0	106	18.243155519684	5
0	108	18.497651694454	6
0	110	18.851838835295	7
0	114	19.173502554717	8
0	117	22.500210667442	7
0	123	22.998389919513	8
0	124	23.128542205836	7
0	128	23.755931547674	8
0	134	24.354720798551	9
0	135	24.482525469964	8
0	144	27.351938245359	9
0	145	27.698324919738	8
0	150	28.16611569315	7
0	157	30.6603317572	6
0	161	30.717444363728	7
0	163	30.772602763898	8
0	166	31.015625854604	7
0	170	33.518422733578	8
0	173	36.466865401262	7
0	180	38.042568384743	6
0	185	40.038507944925	5
0	190	40.538390102723	4
0	195	41.51650684069	3
0	200	42.083142643224	2
0	206	43.701683043717	3
0	209	45.881127755354	2
0	213	46.185844187995	3
0	215	46.967612003477	4
0	219	48.580843384289	5
0	220	48.862382997372	4
0	224	49.582373821552	5
0	227	51.007501155566	4
0	232	51.590099397928	3
0	237	52.309262029921	2
0	244	54.370869554638	1
0	249	54.763065223491	0
0	255	54.804586039673	1
0	256	55.312914687288	0
0	291	59.722492508181	1
0	292	60.354233997383	0
0	307	61.888844542288	1
0	310	62.926496160391	0
0	323	65.95268803498	1
0	330	69.245007401113	2
0	331	69.361794447488	1
0	342	74.149858675186	2
0	343	74.536341125168	1
0	352	76.789542677241	2
0	353	77.164037987857	1
0	358	78.034169644265	0
0	362	78.133356078171	1
0	364	78.783263540874	2
0	366	79.34748852665	3
0	378	81.007018908535	2
0	384	81.585671751101	1
0	389	81.852659044823	0
0	419	84.852999331415	1
0	422	85.072604884741	0
0	428	85.205200983292	1
0	429	85.26871421654	0
0	455	87.753619767123	1
0	457	88.036438733523	0
0	479	89.53575283193	1
0	483	90.673177609166	2
0	485	91.527177010329	1
0	490	91.71277293223	0
0	540	100.325871228273	1
0	541	100.651857843552	0
0	553	101.501899998077	1
0	555	101.717377681382	2
0	558	102.59182311898	3
0	559	102.937130770698	2
0	564	102.99324151189	1
0	570	103.257903875175	2
0	574	105.07513055242	1
0	580	105.273310214074	2
0	583	106.639316030823	1
0	590	106.664476324384	2
0	592	107.083381545709	1
0	598	108.304316099684	0
0	604	108.321842558638	1
0	606	109.16454347392	2
0	608	110.570063143793	1
0	613	110.91055252486	0
0	625	112.550390727358	1
0	626	112.564470447656	0
0	639	113.408887044285	1
0	642	114.857861936036	0
0	653	116.032598558674	1
0	654	116.101352112021	0
0	671	120.055121503838	1
0	673	121.88044804984	2
0	674	122.853549625936	1
0	679	123.006907030066	0
0	692	123.849287228501	1
0	695	124.242070972877	2
0	696	124.384194096505	1
0	701	124.624516642411	0
0	707	124.64553564313	1
0	708	125.466874679677	0
0	761	132.733289518543	1
0	762	132.846618922958	0
0	774	137.063526792001	1
0	776	137.247291541161	2
0	778	137.603964803049	3
0	784	139.241162461562	4
0	787	139.94744642065	3
0	794	142.844368223053	4
0	795	143.545367331275	3
0	801	143.755423068911	4
0	804	144.493102382667	3
0	809	144.526798945219	2
0	813	145.275642609115	3
0	815	145.932392864254	4
0	818	148.173442656342	3
0	823	148.28343290915	2
0	829	149.25901504763	1
0	839	149.757035092433	2
0	840	149.857331649441	1
0	845	150.087018439553	0
0	849	150.361192219479	1
0	851	150.669815807699	2
0	853	150.700157065114	3
0	856	150.799351890315	2
0	860	150.981624105657	3
0	864	151.602481329219	2
0	868	151.914899933936	3
0	870	152.991681376901	4
0	872	153.919791841206	5
0	874	154.205600563225	6
0	880	155.259505366057	5
0	885	155.685712411883	4
0	893	156.816879413125	5
0	899	160.379944876261	4
0	905	160.616858687795	5
0	907	160.883837452534	4
0	913	161.439930554985	5
0	914	162.503306162988	4
0	919	163.775624617693	3
0	923	163.803921569501	4
0	928	164.993834642416	5
0	929	166.123144000996	4
0	936	166.621574472593	5
0	938	167.206423126406	6
0	940	167.726880500026	5
0	945	168.06535206273	4
0	951	168.115521764245	5
0	953	168.24545559966	6
0	955	168.298968531014	5
0	960	168.356733178387	4
0	965	169.330824919526	3
0	976	171.575073607024	4
0	977	171.638871697558	3
0	982	171.901973099791	2
0	987	172.001612326616	1
0	993	172.050566874236	2
0	996	172.936630392636	1
0	1000	174.163871752571	2
0	1004	174.910437092097	3
0	1005	176.42129398358	2
0	1012	177.55217073764	1
0	1019	178.789529690421	2
0	1021	179.000172814188	3
0	1022	179.284162839714	2
0	1027	179.326794142935	1
0	1031	182.770574212117	2
0	1034	183.571290790463	1
0	1040	184.897883493309	2
0	1042	185.186610061735	3
0	1044	185.859972131739	4
0	1045	186.359081635101	3
0	1049	186.422031662529	4
0	1053	187.82867690425	5
0	1054	188.454517959294	4
0	1058	188.637887721867	5
0	1061	189.266341762253	4
0	1067	189.369505568425	5
0	1068	190.539096760822	4
0	1075	192.003833273354	3
0	1079	192.352129424502	4
0	1081	192.563112856299	5
0	1083	192.77043372188	6
0	1088	194.853000103402	5
0	1094	195.317913142904	6
0	1095	195.361895766222	5
0	1102	195.75920621305	6
0	1103	197.340369058611	5
0	1109	197.493604940364	6
0	1110	197.744782296326	5
0	1114	198.284401737002	6
0	1116	198.782067896561	7
0	1118	198.952920884978	8
0	1122	199.746112547428	9
0	1124	199.948165065115	10
0	1125	200.605984073747	9
0	1131	201.179390622116	10
0	1133	201.714002796614	11
0	1134	201.766292952664	10
0	1138	202.015098649164	11
0	1144	202.635297308143	12
0	1146	203.350395919866	13
0	1147	203.493838233084	12
0	1152	205.264895360073	11
0	1156	205.390905904249	12
0	1158	206.007882555034	13
0	1162	207.695964105303	12
0	1170	208.211446460033	13
0	1175	208.709142801112	14
0	1176	209.167359965774	13
0	1182	209.339818484043	14
0	1183	209.657586492441	13
0	1188	209.943787558089	12
0	1193	210.516836237743	11
0	1197	210.707646356597	12
0	1204	213.612620238648	11
0	1208	213.793341690447	12
0	1210	215.118858795194	13
0	1212	215.188612106635	14
0	1216	216.68582060886	13
0	1222	216.991882048965	12
0	1228	217.403473797593	11
0	1234	218.185920644252	10
0	1239	218.475700671171	9
0	1250	223.938379594448	8
0	1260	226.044208077478	7
0	1265	226.127208648807	6
0	1271	229.766396481729	7
0	1273	231.423991421724	8
0	1275	232.662327170005	9
0	1276	232.857188760535	8
0	1286	235.36188106317	9
0	1289	236.257836868699	8
0	1299	237.423761021491	9
0	1302	240.63597163912	8
0	1306	241.437010106188	9
0	1308	241.528610000774	10
0	1311	241.918298557227	9
0	1319	244.464949073799	8
0	1324	244.65147895013	7
0	1329	245.298023780631	6
0	1338	246.942786687734	5
0	1344	247.033217019136	6
0	1347	247.398270217598	5
0	1353	247.58876269445	6
0	1355	247.715705872365	7
0	1356	248.356661095944	6
0	1360	249.681574752973	7
0	1362	250.020648852243	8
0	1366	250.361241270747	9
0	1367	250.671421057948	8
0	1371	251.860500770367	9
0	1373	253.705846853093	10
0	1377	254.911793112441	11
0	1378	255.6008604751	10
0	1382	256.135150829533	11
0	1385	257.303553323561	10
0	1391	258.480921503479	11
0	1392	259.377520628538	10
0	1400	263.058233571699	9
0	1408	263.762886441207	8
0	1415	264.64735121073	9
0	1418	265.713400962625	8
0	1423	265.755323171189	7
0	1429	266.335182778601	8
0	1431	266.744759350498	9
0	1434	266.804775107041	8
0	1446	272.04477038066	9
0	1448	272.73867973197	10
0	1452	274.762980630473	11
0	1453	274.774029337912	10
0	1458	275.835890343679	9
0	1462	275.917356837315	10
0	1468	277.342157511501	11
0	1470	278.332628042173	10
0	1475	278.407242030206	9
0	1480	278.68019581192	8
0	1486	279.810960886677	9
0	1489	280.351000571648	8
0	1493	280.974184788381	9
0	1495	281.078998193617	10
0	1500	282.404290888144	9
0	1504	282.481445396216	10
0	1509	283.567622900745	9
0	1517	284.09085448809	10
0	1518	285.621248318467	9
0	1524	286.271918990412	10
0	1525	286.853930577824	9
0	1529	287.34191981289	10
0	1532	287.605307034319	9
0	1537	288.787704656953	8
0	1542	289.901239783388	7
0	1548	290.309174757499	8
0	1550	291.296334969516	9
0	1552	291.446483317529	10
0	1553	291.531584130934	9
0	1557	293.022108669243	10
0	1560	293.898735164939	9
0	1568	295.530222964135	10
0	1572	298.001576052383	11
0	1573	298.125225114944	10
0	1579	298.532802463012	11
0	1582	298.807717860755	12
0	1583	299.439113070871	11
0	1590	300.594452908515	12
0	1591	300.778369723488	11
0	1597	300.896527068365	12
0	1598	300.998513363268	11
0	1603	301.579903632868	10
0	1607	301.676566992255	11
0	1610	303.501254683943	10
0	1617	304.544354947907	9
0	1623	304.767025337707	8
0	1628	305.172240372805	7
0	1634	305.27527175306	6
0	1640	305.483273053617	7
0	1641	306.461127353137	6
0	1648	308.390666000253	5
0	1654	308.763477495325	4
0	1660	308.860996427049	5
0	1662	308.97823788454	4
0	1667	309.051277416006	3
0	1673	309.976053489098	4
0	1675	310.346178245818	5
0	1676	310.374559582762	4
0	1682	311.512981870632	5
0	1683	311.927402201075	4
0	1687	312.170520014882	5
0	1689	312.797784281163	6
0	1693	313.529282616306	7
0	1695	313.928921605571	8
0	1697	314.599829650818	9
0	1703	315.54324777639	8
0	1709	316.013818999466	7
0	1714	316.369426944549	6
0	1720	317.394272257007	5
0	1726	318.300694733006	4
0	1731	318.612031748207	3
0	1735	318.765465552106	4
0	1739	319.542341210746	3
0	1744	319.661585439645	2
0	1751	320.918461573426	1
0	1759	323.171150162961	0
0	1805	331.495779842016	1
0	1807	331.933378882708	2
0	1812	333.547716398464	3
0	1813	333.868317495598	2
0	1818	334.181121322858	1
0	1823	334.224474966539	0
0	1827	334.361077035507	1
0	1832	336.518253307466	0
0	1839	338.884997214746	1
0	1842	339.650832505279	2
0	1844	339.910135525656	3
0	1845	340.348675235262	2
0	1850	340.455180535816	1
0	1858	342.127152125525	0
0	1864	342.64214869103	1
0	1865	343.687435577892	0
0	1882	344.598700288688	1
0	1883	344.770503925044	0
0	1887	344.931803303768	1
0	1889	345.010019562102	2
0	1892	346.156524955293	1
0	1896	346.182760045764	2
0	1900	346.415675321506	3
0	1902	346.728962546547	2
0	1908	346.877564178154	3
0	1909	347.34018686126	2
0	1913	348.199383211604	3
0	1915	348.576774294204	4
0	1920	349.744588895369	5
0	1922	350.282047924316	6
0	1923	351.316889648753	5
0	1930	352.356700190821	6
0	1931	352.599306972681	5
0	1935	353.198238259188	6
0	1938	354.168662243155	5
0	1942	354.393308243434	6
0	1945	355.574542071496	5
0	1951	356.061330197326	4
0	1959	356.173480644599	5
0	1960	356.528970385594	4
0	1967	357.7729217082	5
0	1969	358.005119121444	6
0	1971	358.1033519037	7
0	1972	358.105612375346	6
0	1977	358.107263871875	5
0	1983	359.375807341929	6
0	1986	359.822585359995	7
0	1988	360.998174601321	6
0	1993	361.249518327151	5
0	2000	361.772142188982	4
0	2004	361.892377671052	5
0	2008	362.968869754665	6
0	2009	363.040354734243	5
0	2015	363.947666114117	6
0	2016	365.288291662305	5
0	2025	367.10980378174	4
0	2030	368.225424727298	3
0	2037	371.504183167389	2
0	2041	373.12423183139	3
0	2044	375.235049983771	2
0	2048	375.239628329229	3
0	2050	375.492905455339	4
0	2053	376.104827938287	3
0	2059	376.535315004124	4
0	2062	377.751946951124	3
0	2068	378.97602657129	4
0	2071	379.546030763054	3
0	2078	381.454548613238	2
0	2082	381.727658817021	3
0	2089	384.090682144112	4
0	2090	384.148387893065	3
0	2096	384.1712133654	4
0	2097	384.30905489577	3
0	2103	385.092086975079	4
0	2105	385.33086041264	5
0	2109	385.431415479268	4
0	2114	385.953032338076	3
0	2119	387.065818080243	2
0	2126	389.500670619432	3
0	2128	389.523805687973	4
0	2129	389.997099123693	3
0	2135	391.849798385168	2
0	2142	392.409568448046	1
0	2147	394.523579716874	0
0	2159	395.79563700372	1
0	2161	395.837195001737	2
0	2163	396.186407552921	3
0	2165	396.398447571294	4
0	2168	397.763262038693	3
0	2173	398.289376268118	2
0	2178	398.931922514272	1
0	2186	399.743779065945	2
0	2188	399.895454455766	3
0	2191	400.705267201652	2
0	2195	401.293871096781	3
0	2199	404.137641318898	2
0	2204	404.241034988802	1
0	2209	405.608065471528	0
0	2213	406.195205908547	1
0	2218	408.418489641517	0
0	2229	409.049551349978	1
0	2231	409.203332557982	0
0	2247	409.89834404767	1
0	2248	410.518179316306	0
0	2252	410.580201227932	1
0	2257	412.650733896073	0
0	2263	413.711269748465	1
0	2264	413.726723541068	0
0	2268	414.843252315579	1
0	2271	415.845437075633	0
0	2275	416.004478464886	1
0	2277	416.239448314251	2
0	2279	416.509330579397	3
0	2283	417.070083251136	4
0	2284	417.226650545943	3
0	2290	417.93969816031	4
0	2292	417.974276892954	5
0	2293	418.153674351621	4
0	2297	418.312916145412	5
0	2299	418.661499226504	6
0	2301	418.844647736333	7
0	2303	419.323794667953	8
0	2305	419.480798497246	9
0	2307	421.5418479536	10
0	2310	421.748646356168	9
0	2315	422.626474500323	8
0	2320	423.39042510762	7
0	2326	424.619825219882	6
0	2335	427.245433675873	7
0	2336	427.752898287946	6
0	2341	428.379220857395	5
0	2349	430.345370273262	4
0	2353	430.943521772824	5
0	2355	433.04563801319	6
0	2357	434.662318232798	7
0	2361	435.620704630476	8
0	2364	436.28836161403	7
0	2368	437.455334882241	8
0	2372	437.710730397794	9
0	2374	438.056562961005	8
0	2381	438.892768162153	9
0	2382	439.025031565189	8
0	2388	439.737124506949	7
0	2394	439.857010625768	8
0	2398	440.509725377192	9
0	2400	440.746393063585	8
0	2407	440.965816066725	7
0	2413	441.429962524082	6
0	2418	442.256838829727	5
0	2424	442.312313207766	6
0	2425	442.484883925334	5
0	2431	443.3790895303	6
0	2434	444.674053474982	5
0	2440	444.918321209631	6
0	2441	445.022243546554	5
0	2446	445.429526223619	4
0	2451	447.291514588488	3
0	2457	447.475130661643	4
0	2458	447.507505944437	3
0	2462	449.213792132645	4
0	2466	450.777802250458	5
0	2470	451.107953661387	4
0	2477	451.562608676975	3
0	2482	451.790673466575	2
0	2488	451.837571910506	3
0	2489	451.910577351737	2
0	2493	453.604176104303	3
0	2496	456.359537402031	2
0	2500	456.893712519659	3
0	2502	457.375683316654	4
0	2508	459.702883405376	5
0	2510	460.623071886898	6
0	2516	462.571019394081	7
0	2517	462.825261171242	6
0	2521	463.160753181804	7
0	2525	464.91125848844	6
0	2530	465.396892631508	5
0	2536	465.805154834164	6
0	2537	466.131340447014	5
0	2542	467.055659694056	4
0	2547	468.041415586252	3
0	2552	468.518937553456	2
0	2558	469.259984704746	3
0	2559	469.471877762492	2
0	2567	470.069601914578	3
0	2568	470.207608716379	2
0	2573	471.531939660193	1
0	2582	472.34468203077	0
0	2611	475.132254484705	1
0	2614	475.297159988406	0
0	2635	478.769781861074	1
0	2636	479.241929792276	0
0	2644	479.792947695501	1
0	2646	479.889717333646	0
0	2657	480.70668374349	1
0	2661	480.764879783724	2
0	2663	480.988671538199	3
0	2667	482.31948610336	4
0	2669	482.457308985568	5
0	2670	482.464101442811	4
0	2676	482.8270800234	3
0	2682	483.068738837526	4
0	2684	483.151031559214	5
0	2685	483.199690971489	4
0	2694	484.670357984004	5
0	2695	484.699991749959	4
0	2701	484.985975888596	3
0	2707	485.176855228812	4
0	2708	485.51919055671	3
0	2714	485.521269563828	4
0	2715	486.332879668541	3
0	2720	488.404411670769	2
0	2725	489.139329172843	1
0	2731	490.183277610562	2
0	2732	490.322378713237	1
0	2736	492.757576696621	2
0	2738	493.035342683877	3
0	2740	495.180755381112	4
0	2743	495.700370611956	3
0	2747	496.683183277773	4
0	2750	497.126285183255	3
0	2755	497.575134644547	2
0	2761	500.955813471036	3
0	2764	501.675562091217	2
0	2769	503.175255263007	1
0	2774	503.41953842816	0
0	2782	505.74584539939	1
0	2783	505.843405377091	0
0	2787	505.966276385845	1
0	2790	506.803664850792	0
0	2828	513.119770579481	1
0	2829	513.54115449982	0
0	2852	518.063557010756	1
0	2854	518.335078371603	2
0	2856	519.295827387319	3
0	2860	520.173583382758	2
0	2866	520.312898917323	3
0	2867	520.582994745794	2
0	2872	521.209520081135	1
0	2878	522.756158653035	0
0	2894	524.067812836592	1
0	2895	524.077162787347	0
0	2911	526.421298581843	1
0	2915	528.481101798881	0
0	2962	532.635302208164	1
0	2965	533.066918155622	2
0	2969	534.006429681817	1
0	2974	534.3989554328	0
0	2987	536.25307987924	1
0	2992	538.700034219736	0
0	3001	539.678280614095	1
0	3007	542.110806121771	0
0	3013	542.741534010246	1
0	3014	543.222183258301	0
0	3039	550.945720201727	1
0	3044	551.876390475382	2
0	3046	552.540733700314	3
0	3048	552.899715553421	4
0	3049	553.75839526444	3
0	3054	553.915552042893	2
0	3062	555.23320128204	1
0	3068	556.14837846793	0
0	3087	560.543555088598	1
0	3089	561.745146161595	2
0	3091	562.281186243704	3
0	3092	562.850274973849	2
0	3097	563.129719503157	1
0	3103	563.196099585612	2
0	3109	566.682845802267	1
0	3117	567.498665544379	0
0	3124	568.594284599419	1
0	3125	568.738719534227	0
0	3137	571.170760972426	1
0	3138	571.730897643982	0
0	3156	573.540808888849	1
0	3157	574.037132251353	0
0	3168	575.254289745529	1
0	3169	576.080256390222	0
0	3178	576.461841143628	1
0	3180	577.570348749971	2
0	3182	577.613032087972	3
0	3184	577.674269947189	4
0	3188	578.874700460328	5
0	3192	579.998427061574	6
0	3199	581.875892736827	5
0	3205	582.88645898189	4
0	3211	583.027318897318	5
0	3212	583.112557725857	4
0	3219	584.633762203253	3
0	3224	584.739715578342	2
0	3229	584.888163739463	1
0	3235	585.180275063251	2
0	3237	586.191491960056	1
0	3242	586.914993203213	0
0	3246	589.349705660713	1
0	3248	589.733392077944	2
0	3250	589.875775759934	3
0	3252	590.716433427105	4
0	3256	590.843997971569	5
0	3261	593.03980151821	4
0	3266	593.078175503538	3
0	3271	593.368579026847	2
0	3277	594.829218227324	1
0	3281	594.979993986315	2
0	3283	595.399083801106	3
0	3287	596.629290059483	4
0	3289	596.77838147238	3
0	3296	598.39970781281	4
0	3297	598.837139598472	3
0	3303	599.806687040965	4
0	3304	599.823815529409	3
0	3309	600.333109486352	2
0	3314	600.561548295921	1
0	3318	600.621083272559	2
0	3320	601.830288272736	3
0	3322	602.80500036898	4
0	3326	604.152546103137	5
0	3331	610.934645495686	4
0	3345	612.652023393013	5
0	3346	612.77890182183	4
0	3352	614.234214955217	3
0	3358	614.338952677394	4
0	3359	616.397827775465	3
0	3365	618.12803368064	4
0	3366	620.71629940948	3
0	3372	622.985655528894	4
0	3374	623.077187581414	5
0	3376	623.656726615223	6
0	3379	624.516318214669	5
0	3385	625.381154731015	6
0	3386	626.620045227193	5
0	3394	629.358950620592	4
0	3400	629.476327694959	5
0	3401	629.82167363961	4
0	3408	630.765651163124	5
0	3409	630.798720579976	4
0	3414	630.814215454481	3
0	3421	632.089165452663	2
0	3425	632.095399686891	3
0	3430	634.703438767669	2
0	3435	635.680428093216	1
0	3440	639.609424321684	0
0	3444	641.015886825992	1
0	3446	641.526240232388	2
0	3448	641.937666601865	3
0	3454	645.007838053868	4
0	3456	645.594049416795	5
0	3457	646.925808570053	4
0	3463	648.853631263287	5
0	3465	649.235715129961	6
0	3468	649.51835631068	5
0	3475	650.984890683143	6
0	3476	651.843016613965	5
0	3482	651.929998642258	6
0	3483	652.043937804694	5
0	3494	653.383433634256	4
0	3502	654.005943569497	5
0	3503	654.176592895881	4
0	3509	654.876458235679	5
0	3510	656.26686965366	4
0	3515	657.788962074308	3
0	3519	658.061956799905	4
0	3521	658.509934130462	5
0	3523	659.378144759631	6
0	3529	661.758642545196	7
0	3530	661.944021243908	6
0	3535	662.483205020395	5
0	3541	662.89090562836	6
0	3544	663.300945394446	7
0	3545	663.962702396076	6
0	3552	664.204971106791	5
0	3556	665.081690524142	6
0	3559	665.937762873993	5
0	3564	667.725197018666	4
0	3569	667.84070625635	3
0	3575	668.613096744035	2
0	3581	669.127126668	3
0	3582	671.623057732137	2
0	3587	672.28834642647	1
0	3593	673.77288452634	2
0	3597	675.306908551089	3
0	3598	675.378794180728	2
0	3603	675.815128789757	1
0	3613	680.969391438612	0
0	3620	681.882089943149	1
0	3622	682.356034145323	2
0	3623	682.480702175927	1
0	3628	682.651065073613	0
0	3640	683.653719244273	1
0	3641	684.375535831108	0
0	3647	684.417450768714	1
0	3650	685.404094849949	2
0	3653	686.284420169407	3
0	3654	686.421323051083	2
0	3660	687.254454803917	3
0	3661	687.41400634395	2
0	3667	691.824732593612	1
0	3673	693.807596996339	2
0	3675	694.140993009559	3
0	3676	694.708472679134	2
0	3681	695.38361227444	1
0	3685	696.40418646779	2
0	3690	697.557645610325	1
0	3695	698.702547509955	0
0	3713	700.492499085266	1
0	3714	700.542097597587	0
0	3728	702.220503640114	1
0	3730	704.902431277294	0
0	3742	705.723861645652	1
0	3745	707.573342771075	2
0	3746	708.481252826335	1
0	3752	710.507103385909	0
0	3758	711.176545488056	1
0	3760	711.792914542223	0
0	3791	716.107894351367	1
0	3793	716.35410374618	2
0	3794	717.997227551249	1
0	3804	721.193381616657	2
0	3805	721.316256590197	1
0	3810	721.364883435753	0
0	3829	722.774065612731	1
0	3830	723.524149172597	0
0	3839	724.408872367429	1
0	3840	724.676172888471	0
0	3870	726.464263938949	1
0	3873	726.747013028164	2
0	3875	727.060929893037	3
0	3878	729.021299606025	2
0	3883	729.417736666218	1
0	3888	729.475651709681	0
0	3926	732.805627614274	1
0	3929	734.496917283435	2
0	3930	734.704594240335	1
0	3935	734.819536511678	0
0	3984	738.053567825587	1
0	3986	738.359507501979	0
0	3997	739.954460442435	1
0	3999	740.174539905808	2
0	4001	744.047057874606	1
0	4007	744.467914970726	2
0	4008	744.649621437521	1
0	4013	744.829601327656	0
0	4022	748.283444585446	1
0	4026	750.145353066857	0
0	4048	753.506925847128	1
0	4051	754.176168347793	0
0	4057	754.338388158456	1
0	4059	754.867326788487	0
0	4078	756.561669274617	1
0	4079	756.963702553783	0
0	4090	759.152478764973	1
0	4092	759.503768788467	2
0	4095	760.062307933507	1
0	4100	760.083828163485	0
0	4104	760.514319194684	1
0	4107	761.115716654456	0
0	4115	762.563957587259	1
0	4118	762.872174128384	0
0	4131	764.974886620514	1
0	4136	767.022022872279	0
0	4147	768.402027052941	1
0	4148	768.497485536461	0
0	4198	774.471219190699	1
0	4201	774.937821004368	0
0	4214	777.425977605747	1
0	4215	777.597122807901	0
0	4235	779.668142466708	1
0	4241	781.70181274797	2
0	4246	783.628991117407	1
0	4251	783.657240497524	0
0	4260	785.164042584337	1
0	4262	785.322995490304	2
0	4269	787.86637369967	1
0	4274	787.959654071401	0
0	4278	788.295224549108	1
0	4280	789.18904037982	2
0	4283	791.158205458285	1
0	4289	791.599504343449	2
0	4291	792.032236015327	3
0	4294	793.034647697393	2
0	4305	793.990542164403	1
0	4310	794.353307540357	0
0	4316	795.429684840562	1
0	4317	796.070077396375	0
0	4334	799.87162710415	1
0	4335	799.952201940555	0
0	4346	800.108165669963	1
0	4348	800.206392531137	2
0	4355	801.736634479166	1
0	4364	802.324368091211	0
0	4377	804.610883341694	1
0	4378	804.952102492048	0
0	4385	805.24571596555	1
0	4387	805.427365597245	2
0	4389	806.110468734438	1
0	4395	806.501958590431	0
0	4415	809.680460733876	1
0	4417	810.018051452069	2
0	4421	810.76110712981	3
0	4422	811.781035519232	2
0	4428	813.36387915735	1
0	4436	814.661606014167	0
0	4445	815.177241503328	1
0	4446	816.028741019515	0
0	4458	816.908784207673	1
0	4460	817.333636187112	0
0	4483	818.325337392651	1
0	4486	818.790149079937	0
0	4502	820.880526419062	1
0	4504	821.967483419247	2
0	4511	822.715460422469	1
0	4516	822.975111524093	0
0	4534	825.018515006272	1
0	4536	825.040673149799	2
0	4538	825.699514362369	3
0	4540	826.67971564106	2
0	4547	827.736388425483	3
0	4548	828.117559533954	2
0	4553	828.291009821938	1
0	4560	830.191813780315	0
0	4572	831.075195814969	1
0	4573	831.097837451017	0
0	4591	833.660417109234	1
0	4592	833.781081028439	0
0	4598	833.880531887444	1
0	4599	833.983309284896	0
0	4618	836.004551126271	1
0	4619	836.142649770206	0
0	4633	837.368826899529	1
0	4638	839.0006029788	0
0	4645	839.418298370906	1
0	4647	839.712382872586	0
0	4660	840.153828739717	1
0	4661	840.228763106378	0
0	4676	842.206471247333	1
0	4681	843.838575376971	0
0	4685	844.794122893539	1
0	4689	845.181892645631	2
0	4691	845.32574837235	1
0	4697	846.015030536575	0
0	4725	851.184382513963	1
0	4726	851.228916449993	0
0	4732	851.350904280955	1
0	4737	853.222167158562	2
0	4739	853.364318297744	3
0	4740	854.159509410773	2
0	4745	854.573540094017	1
0	4752	855.426203764341	0
0	4758	855.76498054176	1
0	4760	856.141236230357	2
0	4761	856.919696874763	1
0	4767	856.938658962177	2
0	4768	856.997362452394	1
0	4772	857.306341045995	2
0	4775	858.5806913054	1
0	4779	859.038567488865	2
0	4785	861.378441649603	3
0	4786	861.6237006688	2
0	4793	862.972327039915	1
0	4800	863.307302009114	0
0	4804	863.522570751816	1
0	4806	863.95306994701	2
0	4808	866.818449495367	3
0	4815	871.147649854388	2
0	4819	871.399112262651	3
0	4823	873.851874505059	4
0	4824	874.421561623231	3
0	4828	875.004325264558	4
0	4830	876.695187401971	5
0	4832	876.826406628659	6
0	4836	878.66943159367	5
0	4841	878.789997003749	4
0	4845	879.100397227045	5
0	4850	880.738373272817	4
0	4856	881.65839507021	5
0	4860	882.401599481828	6
0	4861	882.552445234163	5
0	4868	885.47979139461	4
0	4873	885.948545868328	3
0	4879	886.525442133453	4
0	4880	886.709423063605	3
0	4887	887.569702095855	2
0	4892	888.323215088582	1
0	4896	889.440638673213	2
0	4899	889.704882718169	1
0	4905	890.457132332897	2
0	4906	891.190295194179	1
0	4911	892.41227123859	0
0	4923	895.019761850939	1
0	4928	896.170676040544	2
0	4929	897.053915888998	1
0	4934	897.478795553169	0
0	4953	899.015653034016	1
0	4954	899.168344421084	0
0	4960	899.427845246914	1
0	4964	901.820942738798	0
0	4975	902.369392299874	1
0	4979	902.851945468393	2
0	4980	905.052904583207	1
0	4985	905.475367084769	0
0	5023	912.344564504345	1
0	5024	913.009971909639	0
0	5031	913.900223474489	1
0	5032	914.106525999272	0
0	5049	914.935873759863	1
0	5051	914.993184224531	2
0	5052	915.550148934661	1
0	5057	915.819514646132	0
0	5067	916.301883630304	1
0	5071	916.923335089891	2
0	5075	919.101239858911	3
0	5076	919.64318144499	2
0	5082	919.791365728188	3
0	5086	919.965141435958	2
0	5094	921.420572255558	1
0	5100	921.494736138244	2
0	5102	921.687719778103	3
0	5106	921.8801547106	4
0	5109	922.832766998979	5
0	5111	922.878394932644	6
0	5112	923.2161456244	5
0	5117	923.61247075027	4
0	5123	924.559277384877	3
0	5130	925.495464776283	4
0	5132	926.487592914393	3
0	5139	927.287650078737	2
0	5144	928.2452699981	1
0	5152	929.61531966359	2
0	5155	931.308004335298	1
0	5160	931.813229347558	0
0	5166	932.012654826587	1
0	5167	932.092124100482	0
0	5171	932.440847628258	1
0	5176	934.160476810806	2
0	5178	934.574827928979	3
0	5179	934.89763386355	2
0	5185	935.423839122981	1
0	5190	936.203189478318	0
0	5221	940.076167135858	1
0	5222	940.258707808321	0
0	5240	941.910066897807	1
0	5242	942.606663933927	0
0	5258	944.084031421263	1
0	5260	944.125184672382	2
0	5263	944.99358880382	3
0	5269	948.691078549539	2
0	5275	948.986063433635	3
0	5276	951.131802884749	2
0	5281	951.26797462275	1
0	5286	952.001176540937	0
0	5324	957.640771164368	1
0	5326	957.702429141595	2
0	5331	959.85119634662	1
0	5336	960.137909658186	0
0	5347	961.475669960856	1
0	5350	964.209124493204	0
0	5392	969.876394782596	1
0	5396	971.063331630163	2
0	5398	971.54032130724	3
0	5399	971.980985632906	2
0	5405	973.139413937366	3
0	5407	973.158273428424	4
0	5408	973.618161822906	3
0	5414	973.712909128404	4
0	5415	974.077841254381	3
0	5421	974.682758782588	4
0	5423	974.699132506556	5
0	5424	974.747963346516	4
0	5428	974.792358549821	5
0	5431	975.224920550259	4
0	5437	978.005965646497	5
0	5438	978.688728936252	4
0	5442	979.256637530286	5
0	5444	979.533714544299	6
0	5446	979.768775620753	7
0	5451	981.147031690151	8
0	5453	982.104116468216	9
0	5456	982.317577184279	8
0	5462	982.475684066131	9
0	5464	982.780884449863	10
0	5466	983.420926626755	9
0	5470	983.796709098158	10
0	5474	984.089420538933	11
0	5478	984.524783812226	12
0	5480	984.572857532028	13
0	5484	985.023807222016	12
0	5490	985.180023772876	13
0	5491	985.190672134907	12
0	5500	988.34902572911	11
0	5510	988.630111948636	12
0	5511	989.992680916566	11
0	5521	990.330265440387	12
0	5523	992.065292240905	13
0	5525	992.682380621464	14
0	5526	993.102643935021	13
0	5532	993.183549124088	14
0	5534	993.482083609482	15
0	5539	995.200101796093	14
0	5548	996.711766115637	15
0	5550	997.067634880954	16
0	5552	997.704529402389	17
0	5553	998.085877049515	16
0	5558	998.158356095788	15
0	5565	999.382488558212	16
0	5566	1000.197442509425	15
0	5572	1000.316539646431	16
0	5573	1002.863099986614	15
0	5579	1003.367349366523	14
0	5586	1005.749234472045	13
0	5590	1006.536325484989	14
0	5592	1007.55518587444	15
0	5600	1008.813907665173	14
0	5606	1009.890234489869	13
0	5611	1010.131890568949	12
0	5616	1010.138060576457	11
0	5622	1010.340671578338	10
0	5628	1010.469292574965	11
0	5632	1010.97030644384	12
0	5633	1011.097440930684	11
0	5637	1011.124928066978	12
0	5641	1011.933623709377	13
0	5643	1013.53458732359	14
0	5645	1013.624476681404	15
0	5647	1014.071263210373	16
0	5652	1016.151643934498	17
0	5654	1016.747027815479	16
0	5659	1016.783987143681	15
0	5664	1017.019266268454	14
0	5671	1017.819853538244	13
0	5675	1018.30206033091	14
0	5681	1021.512249885822	15
0	5684	1022.665196698683	14
0	5689	1022.890381338822	13
0	5698	1023.987304980804	12
0	5706	1024.983191159735	13
0	5713	1027.066481015028	12
0	5719	1027.586664893074	13
0	5720	1027.851942877081	12
0	5724	1028.098811657377	13
0	5727	1028.404776307771	12
0	5733	1028.559759773822	13
0	5735	1028.800391767013	14
0	5736	1029.143536011198	13
0	5742	1029.617230649278	12
0	5747	1030.195771735758	11
0	5751	1030.336991837683	12
0	5753	1032.582290517844	13
0	5756	1034.266366713408	12
0	5762	1036.784319287618	13
0	5769	1038.380920629167	14
0	5772	1038.705345895328	15
0	5773	1039.022265387378	14
0	5779	1039.402628770036	15
0	5781	1039.69446841817	16
0	5783	1039.883712653268	17
0	5784	1039.936435988803	16
0	5790	1040.318721977691	17
0	5791	1040.433272201779	16
0	5796	1041.486056710611	15
0	5804	1042.404407170064	14
0	5809	1042.515373749403	13
0	5814	1044.727706627101	12
0	5818	1045.019333186757	13
0	5821	1045.638759666685	12
0	5826	1046.486677054128	11
0	5832	1048.607040779237	10
0	5837	1048.621075698952	9
0	5842	1050.825531193434	8
0	5848	1051.736546606326	7
0	5855	1052.463228136657	6
0	5861	1052.649711872268	5
0	5867	1052.993751457722	4
0	5873	1054.880622120512	5
0	5877	1055.500307557245	6
0	5878	1056.671341373731	5
0	5883	1056.68849981347	4
0	5887	1056.970911584889	5
0	5892	1058.045048332306	4
0	5896	1058.613988151123	5
0	5901	1059.485420849907	4
0	5908	1060.407842359562	3
0	5917	1061.977357446875	2
0	5921	1062.903605670434	3
0	5925	1063.681875238427	4
0	5927	1064.172901866394	3
0	5932	1064.26091421311	2
0	5936	1064.70855254286	3
0	5938	1064.929089608186	4
0	5941	1066.526836866735	3
0	5945	1068.891962593915	4
0	5951	1070.200047483517	5
0	5952	1070.96450543721	4
0	5957	1073.393631793178	3
0	5962	1074.3079181381	2
0	5968	1075.841758299528	3
0	5969	1076.256916418231	2
0	5975	1078.629363609612	3
0	5978	1079.428666180013	2
0	5983	1079.763823511096	1
0	5988	1080.068089818272	0
0	6024	1087.300018522782	1
0	6025	1087.361185808562	0
0	6043	1088.621923470439	1
0	6047	1089.609906369797	2
0	6049	1090.072399705609	3
0	6050	1090.104312070811	2
0	6055	1090.398120920811	1
0	6061	1091.355193496445	0
0	6076	1093.228131658062	1
0	6079	1093.569134663576	2
0	6081	1093.856333203699	3
0	6083	1093.988158589325	4
0	6086	1094.295095679128	5
0	6088	1094.976924570979	4
0	6094	1095.469222654484	3
0	6102	1096.518334854973	2
0	6107	1096.719482973994	1
0	6113	1097.129863048856	0
0	6124	1097.684339338132	1
0	6126	1097.732555012035	0
0	6153	1101.664367785847	1
0	6155	1103.91417724882	0
0	6162	1104.248598627094	1
0	6163	1104.258879284435	0
0	6189	1106.072236640606	1
0	6192	1107.114204725926	0
0	6199	1107.295829711707	1
0	6200	1107.565832656042	0
0	6206	1107.619537646945	1
0	6211	1107.933914909079	2
0	6212	1108.410714800239	1
0	6217	1109.40717530727	0
0	6226	1110.527254510046	1
0	6228	1111.731786420514	0
0	6239	1112.356607380063	1
0	6243	1113.923380555841	0
0	6250	1114.440845806174	1
0	6252	1114.527979456306	2
0	6255	1114.891148509231	3
0	6258	1116.223355527117	2
0	6263	1116.358503958253	1
0	6268	1116.384819855335	0
0	6281	1117.230609010771	1
0	6283	1117.695487057272	0
0	6294	1118.386360402792	1
0	6295	1119.2916595266	0
0	6305	1120.942708233526	1
0	6308	1122.05561878617	0
0	6323	1123.883573140904	1
0	6328	1125.864462978092	0
0	6362	1134.376171078776	1
0	6363	1134.766795437032	0
0	6383	1135.85596516654	1
0	6385	1136.091649356379	0
0	6394	1136.803995345981	1
0	6397	1137.68558063412	0
0	6436	1144.818934764404	1
0	6437	1145.062836716815	0
0	6451	1145.595932329402	1
0	6452	1145.645054442878	0
0	6495	1150.727409832056	1
0	6497	1151.582968619531	2
0	6499	1151.661906137697	3
0	6504	1153.082845112147	2
0	6509	1153.27029990717	1
0	6514	1153.313884747868	0
0	6520	1154.779506566336	1
0	6522	1155.370429013202	2
0	6526	1155.683750762401	1
0	6532	1157.824585179234	2
0	6534	1158.713530812888	3
0	6535	1159.054822816434	2
0	6540	1160.474692608572	1
0	6545	1160.824684625073	0
0	6551	1161.037419565178	1
0	6553	1161.400074679383	0
0	6571	1163.926686016605	1
0	6573	1165.585017708499	0
0	6604	1169.429879395858	1
0	6608	1170.368977141165	0
0	6641	1175.568173109038	1
0	6647	1177.871072264427	2
0	6649	1178.311412262012	3
0	6650	1179.726100383832	2
0	6655	1181.264389764069	1
0	6660	1181.507466201265	0
0	6669	1182.47655123523	1
0	6675	1187.394955071376	0
0	6686	1187.879061620049	1
0	6687	1187.958846993504	0
0	6698	1189.777453853405	1
0	6703	1194.071173120598	0
0	6712	1195.436291897566	1
0	6720	1198.653460089503	0
0	6736	1202.194750491871	1
0	6738	1202.885806933866	2
0	6741	1203.931541224854	1
0	6747	1204.674352461188	0
0	6756	1205.618802969806	1
0	6757	1206.455112313598	0
0	6771	1209.196731078647	1
0	6773	1209.52657769665	2
0	6775	1209.568851085101	3
0	6779	1213.652629973055	4
0	6785	1214.667466559345	5
0	6789	1214.93169390988	6
0	6792	1215.610088344757	5
0	6798	1215.644590934358	6
0	6800	1216.074824361839	5
0	6805	1216.158744949351	4
0	6811	1216.160722401075	5
0	6812	1217.311054803552	4
0	6817	1218.610615644469	3
0	6828	1220.186658060208	2
0	6832	1220.315416545979	3
0	6837	1222.715918702497	4
0	6838	1223.475723897046	3
0	6843	1223.697565937673	2
0	6847	1223.916743129435	3
0	6851	1224.291484217079	2
0	6857	1224.899830000187	3
0	6858	1225.795028534309	2
0	6866	1228.548127943413	1
0	6874	1230.316082765579	0
0	6885	1230.814390737953	1
0	6888	1231.212081793654	2
0	6890	1231.323769168035	3
0	6891	1231.495880834019	2
0	6896	1231.542194766558	1
0	6903	1231.946731409718	0
0	6909	1231.955451121701	1
0	6910	1232.047790826998	0
0	6916	1232.221227689444	1
0	6917	1232.434693469062	0
0	6941	1233.916092918981	1
0	6942	1234.51980956427	0
0	6955	1236.302158413999	1
0	6957	1236.471168816883	2
0	6958	1236.681131208827	1
0	6964	1237.273222219948	2
0	6965	1237.542015826967	1
0	6970	1238.118591629268	0
0	6978	1238.686868304797	1
0	6983	1240.9567220348	0
0	6989	1241.206963327852	1
0	6990	1241.818183974908	0
0	6997	1242.310784438308	1
0	6998	1242.311731774657	0
0	7011	1243.604696800002	1
0	7012	1243.658234041857	0
0	7044	1245.574041578174	1
0	7050	1247.601454436449	0
0	7074	1249.517539248947	1
0	7075	1249.589333299249	0
0	7082	1249.972998358755	1
0	7084	1250.539852082615	2
0	7091	1251.671219698281	3
0	7092	1251.705677887381	2
0	7097	1253.102391674483	1
0	7103	1254.370985168501	2
0	7104	1254.424502813008	1
0	7110	1258.378691871035	2
0	7116	1259.661194061795	3
0	7118	1259.814459067073	4
0	7119	1261.100222798017	3
0	7123	1263.005529849965	4
0	7127	1264.650235118732	3
0	7133	1264.906259245031	4
0	7134	1264.966408609922	3
0	7138	1265.191794506821	4
0	7141	1266.8695813873	3
0	7145	1268.10732484194	4
0	7147	1268.309510563252	5
0	7149	1268.471718002907	6
0	7151	1269.628812657251	7
0	7153	1269.848551069152	8
0	7157	1270.431394532146	7
0	7163	1270.687116920235	8
0	7164	1270.6990321527	7
0	7170	1271.6395872802	8
0	7172	1271.882499134117	9
0	7181	1276.66510248007	8
0	7187	1277.632484418328	9
0	7188	1278.20895239576	8
0	7193	1278.356462720625	7
0	7199	1280.825618182088	6
0	7205	1281.134406793636	7
0	7207	1281.246945350589	8
0	7209	1281.549296968912	9
0	7210	1281.971960796437	8
0	7214	1283.677646057882	9
0	7220	1285.425116039646	10
0	7221	1285.927421141577	9
0	7225	1286.035733233776	10
0	7230	1287.36421086192	9
0	7236	1287.828504582737	10
0	7239	1288.318971549084	9
0	7246	1289.654413708411	8
0	7251	1290.671914513963	7
0	7256	1291.108374449493	6
0	7264	1293.953779599527	7
0	7267	1296.074097623594	6
0	7276	1298.601244594754	5
0	7282	1300.39463100031	4
0	7287	1301.499321378694	3
0	7294	1304.566555375701	2
0	7299	1306.317556947607	1
0	7305	1308.143730198165	2
0	7306	1308.427262234978	1
0	7311	1309.290160418361	0
0	7317	1309.812192572497	1
0	7318	1310.053132747964	0
0	7329	1310.996294690812	1
0	7331	1311.597838748952	0
0	7355	1314.457045560328	1
0	7358	1314.814779879746	0
0	7364	1314.946710552287	1
0	7365	1315.187473031356	0
0	7371	1315.545431986723	1
0	7376	1316.421689252369	2
0	7379	1316.577683961237	3
0	7380	1316.900578377671	2
0	7385	1317.014137278292	1
0	7391	1317.210431649418	0
0	7397	1317.228478988334	1
0	7399	1317.288258708069	2
0	7400	1317.858735535654	1
0	7406	1318.610493417661	2
0	7407	1318.919635067531	1
0	7411	1320.011361015613	2
0	7415	1320.897287951141	1
0	7421	1321.099186373483	2
0	7424	1321.201285993858	3
0	7427	1321.669341073798	4
0	7430	1322.36576463637	5
0	7433	1322.565566126505	6
0	7434	1322.859824334252	5
0	7439	1323.077083782771	4
0	7444	1323.295851565914	3
0	7450	1324.245658343354	4
0	7452	1325.469436214875	5
0	7455	1326.367930675132	4
0	7460	1327.273544904629	3
0	7464	1329.286698008975	4
0	7467	1330.006754098584	3
0	7475	1334.513249964418	2
0	7480	1334.802954392866	1
0	7484	1334.839804867742	2
0	7488	1335.06244597322	3
0	7490	1335.162550566953	4
0	7491	1335.804177748626	3
0	7496	1338.1407397338	2
0	7501	1338.968178985115	1
0	7508	1341.112389425266	0
0	7512	1341.550283918842	1
0	7514	1342.956903606365	2
0	7517	1343.959643267595	1
0	7523	1345.350294075689	2
0	7524	1345.549677617623	1
0	7528	1345.901423040981	2
0	7531	1346.813448616806	1
0	7536	1350.439858923549	0
0	7544	1351.289935673475	1
0	7547	1351.562602135976	0
0	7553	1351.799499346951	1
0	7554	1353.250411744018	0
0	7575	1357.047105948297	1
0	7576	1358.373062210221	0
0	7591	1359.856259089082	1
0	7597	1361.205034138961	2
0	7598	1361.243482714251	1
0	7603	1361.418031343338	0
0	7609	1362.549823317881	1
0	7613	1364.430374616564	0
0	7619	1364.926370888614	1
0	7621	1365.189867065225	0
0	7643	1371.435041230994	1
0	7645	1372.154882912169	2
0	7649	1373.035078523833	3
0	7651	1374.016341267587	2
0	7659	1374.421234865373	1
0	7664	1374.447482706174	0
0	7678	1375.918509135886	1
0	7679	1376.099406791483	0
0	7683	1377.242836951102	1
0	7685	1377.268693360497	2
0	7690	1378.259835927196	3
0	7691	1378.483052397602	2
0	7697	1378.904145866334	3
0	7698	1379.121584935836	2
0	7702	1379.278357993051	3
0	7706	1379.755522941651	4
0	7710	1380.493807857858	5
0	7713	1380.987613658489	6
0	7715	1381.63496411906	5
0	7722	1382.215040960873	4
0	7730	1383.958567093096	5
0	7731	1385.773480782624	4
0	7737	1385.990785548626	5
0	7739	1386.65614256985	4
0	7744	1387.535927059563	3
0	7750	1388.40093507756	4
0	7755	1389.300628428666	3
0	7764	1390.10564461287	4
0	7766	1390.87944008125	5
0	7770	1391.699721318036	6
0	7771	1391.994789293984	5
0	7777	1392.729065927397	4
0	7783	1392.926810460729	5
0	7784	1393.036253371154	4
0	7792	1394.053256336344	5
0	7796	1394.957569790737	4
0	7802	1395.007476234757	5
0	7803	1395.034821437501	4
0	7808	1395.04012968827	3
0	7814	1395.590038427662	2
0	7819	1395.611688709755	1
0	7823	1396.404812632238	2
0	7825	1397.025348929719	3
0	7828	1398.324693507386	2
0	7833	1398.797845741709	1
0	7837	1399.835757496973	2
0	7842	1400.608753059345	1
0	7846	1401.150229965755	2
0	7850	1403.062288281882	1
0	7855	1403.721099079693	0
0	7870	1405.802919624043	1
0	7873	1406.44095728762	2
0	7876	1407.289455209388	3
0	7877	1407.296065825493	2
0	7882	1407.318388596988	1
0	7887	1407.685199312678	0
0	7922	1413.843939874277	1
0	7923	1414.458922964257	0
0	7955	1418.718467968964	1
0	7959	1420.20335442272	2
0	7963	1420.476622671911	3
0	7972	1424.59168565942	2
0	7979	1424.870423136633	3
0	7980	1425.062753806744	2
0	7985	1425.08991966099	1
0	7991	1426.004578195047	0
0	8002	1426.953815086884	1
0	8003	1427.227341207707	0
0	8028	1431.340361497609	1
0	8033	1432.589391750392	0
0	8056	1435.121982527434	1
0	8059	1436.273680457229	2
0	8060	1436.408824399077	1
0	8066	1437.397706214812	0
0	8073	1437.886553056422	1
0	8074	1438.321886035753	0
0	8082	1438.563881103732	1
0	8084	1438.703941800128	0
0	8088	1439.443022941157	1
0	8093	1442.218325125328	2
0	8094	1442.44529839018	1
0	8104	1443.893218706098	2
0	8106	1444.741368282548	1
0	8112	1444.897561897459	2
0	8120	1447.954610383679	1
0	8125	1448.413868708357	0
0	8131	1448.970446346411	1
0	8132	1449.047330175278	0
0	8145	1450.13363812671	1
0	8146	1450.410058343356	0
0	8159	1451.241403108576	1
0	8160	1451.931975464603	0
0	8176	1452.251550538166	1
0	8178	1452.356285566332	2
0	8181	1452.529833223488	1
0	8187	1453.148688512736	2
0	8190	1454.208501412755	1
0	8194	1454.450588266848	2
0	8196	1455.445862447232	3
0	8200	1458.490280188574	4
0	8202	1458.519312930612	5
0	8204	1458.84722688662	6
0	8207	1459.010954870062	5
0	8214	1459.744868760269	4
0	8219	1460.205431923529	3
0	8223	1460.929656215199	4
0	8226	1461.324907238011	3
0	8231	1463.407540595238	2
0	8236	1465.298803178574	1
0	8240	1466.432654922587	2
0	8242	1467.783411993064	3
0	8246	1469.360291566698	2
0	8250	1469.695694418637	3
0	8254	1471.687827123427	4
0	8259	1474.676754644286	5
0	8261	1474.747021391839	6
0	8264	1475.645430182634	5
0	8269	1476.842873732501	4
0	8274	1477.65408677352	3
0	8279	1478.215885526905	2
0	8284	1480.390211204217	1
0	8289	1480.699274442106	0
0	8304	1484.50232199974	1
0	8307	1485.022550340975	2
0	8308	1485.212111497848	1
0	8313	1485.536393502294	0
0	8349	1487.732284404082	1
0	8351	1488.494109248236	2
0	8353	1489.447444326449	3
0	8358	1490.481192881076	2
0	8363	1490.854593270323	1
0	8372	1492.548929219878	0
0	8378	1492.958786856436	1
0	8380	1494.734619189664	0
0	8388	1495.07046038936	1
0	8390	1495.149225687595	2
0	8391	1495.224573151985	1
0	8397	1497.336747412346	2
0	8401	1498.958533036411	3
0	8403	1500.678991775081	4
0	8407	1501.272144594935	5
0	8408	1501.860515957922	4
0	8413	1502.178690918253	3
0	8417	1502.761583007899	4
0	8419	1502.996362640204	5
0	8421	1503.433970282648	6
0	8425	1503.65584917101	7
0	8430	1505.341773042731	8
0	8432	1505.460195249044	9
0	8435	1505.757048453269	8
0	8441	1507.172529307942	9
0	8443	1507.546821611415	8
0	8448	1508.008686958917	7
0	8452	1508.201030966164	8
0	8455	1508.739640530666	7
0	8460	1508.915020222994	6
0	8464	1509.172812735964	7
0	8467	1510.002241882532	6
0	8472	1510.740361700071	5
0	8476	1512.754329942727	6
0	8479	1513.590060444844	5
0	8488	1516.580393817789	4
0	8494	1518.992820751776	5
0	8495	1519.365478048113	4
0	8502	1520.113500961409	3
0	8507	1520.643407157625	2
0	8513	1521.839167177248	1
0	8519	1521.982564839718	2
0	8522	1522.825379298628	3
0	8524	1523.009723337091	4
0	8527	1525.808369441314	3
0	8533	1526.768831208927	2
0	8538	1526.940548842097	1
0	8543	1527.268944932989	0
0	8554	1528.931231869137	1
0	8556	1530.045452936813	0
0	8592	1538.112874956154	1
0	8594	1539.723292141797	2
0	8595	1539.77595702624	1
0	8602	1540.473292360204	0
0	8612	1543.104089638068	1
0	8613	1543.738362345936	0
0	8624	1544.399014526029	1
0	8628	1545.453206404264	2
0	8630	1545.468918907023	3
0	8632	1545.673774669954	4
0	8634	1545.843114563249	3
0	8639	1547.29014995095	2
0	8644	1547.29715401534	1
0	8649	1547.427150532616	0
0	8656	1548.038435259616	1
0	8657	1549.650346837243	0
0	8664	1552.561421697588	1
0	8666	1552.6341155156	2
0	8667	1553.454692564022	1
0	8672	1554.240368918338	0
0	8678	1554.925299684664	1
0	8680	1555.184123034712	2
0	8681	1556.828889831016	1
0	8685	1557.885205996954	2
0	8687	1557.987284156665	3
0	8691	1560.861088865506	4
0	8692	1561.068512866325	3
0	8697	1561.098968353502	2
0	8701	1561.458840481723	3
0	8709	1565.891564839945	2
0	8714	1567.088890881153	1
0	8720	1567.758768840784	0
0	8726	1568.007322282831	1
0	8728	1568.18168611876	2
0	8729	1568.282650573599	1
0	8734	1568.665853610753	0
0	8744	1571.942258747711	1
0	8745	1572.029175946384	0
0	8766	1573.791427394937	1
0	8770	1573.883124780509	2
0	8772	1574.575800329553	3
0	8776	1577.528698502722	2
0	8781	1577.915837487668	1
0	8787	1578.00867913442	2
0	8788	1578.343342888354	1
0	8794	1580.01478194003	0
0	8800	1582.158522477516	1
0	8801	1582.20880419147	0
0	8807	1583.63096301137	1
0	8809	1584.456376210267	2
0	8811	1585.034870375587	3
0	8812	1585.426955766282	2
0	8818	1586.324311372414	1
0	8824	1586.653560514759	2
0	8828	1587.108758073264	3
0	8829	1587.174581017144	2
0	8835	1589.342253465075	3
0	8839	1590.384968422451	4
0	8841	1590.391378235717	5
0	8843	1591.132765000962	4
0	8849	1591.539040935666	3
0	8854	1591.565394632637	2
0	8859	1592.900078254312	1
0	8863	1593.57445882889	2
0	8867	1595.141678520297	3
0	8871	1595.656724217811	4
0	8872	1596.319099802001	3
0	8878	1597.849677472249	2
0	8884	1598.553668449959	1
0	8892	1599.034649542948	2
0	8893	1599.148032380695	1
0	8899	1599.613601528999	0
0	8923	1601.02820507244	1
0	8929	1601.659141387107	2
0	8932	1602.242686721893	3
0	8934	1603.612996107979	2
0	8939	1603.811654864675	1
0	8944	1604.183339320729	0
0	8950	1604.294528304433	1
0	8951	1604.669049986761	0
0	8985	1612.322608319466	1
0	8989	1613.063472656343	0
0	9004	1614.510332614124	1
0	9008	1615.740798258416	2
0	9011	1617.212280512948	1
0	9023	1619.080054578055	0
0	9030	1619.304805934586	1
0	9031	1619.415638139966	0
0	9047	1622.090865687868	1
0	9048	1622.524200329508	0
0	9054	1622.644963419068	1
0	9055	1622.810482823821	0
0	9071	1623.665307221146	1
0	9073	1624.794210025845	0
0	9093	1626.152449352923	1
0	9094	1626.402998307339	0
0	9107	1630.163481807879	1
0	9108	1630.16960170569	0
0	9123	1633.216434827944	1
0	9128	1634.573771473298	0
0	9144	1637.425937110081	1
0	9146	1637.626756815557	2
0	9148	1638.338537447446	3
0	9153	1640.842146245646	2
0	9158	1641.245933599889	1
0	9165	1641.421094704691	2
0	9166	1641.881576089637	1
0	9172	1642.408363949057	2
0	9175	1643.66018491759	3
0	9176	1643.960444216252	2
0	9182	1644.109131666543	3
0	9184	1645.519748988291	2
0	9188	1645.751683328271	3
0	9190	1646.888906661136	4
0	9192	1648.588644977412	5
0	9195	1650.156184596024	4
0	9200	1650.572578547728	3
0	9207	1651.946135834699	2
0	9212	1652.593677583191	1
0	9219	1654.80818524194	2
0	9223	1655.477938640008	3
0	9224	1655.637666434301	2
0	9229	1655.709599008496	1
0	9233	1656.737779779967	2
0	9235	1656.739386366989	3
0	9238	1657.092170141316	2
0	9243	1658.501228823036	1
0	9247	1658.785917857828	2
0	9249	1659.051361193042	3
0	9253	1659.285409981913	4
0	9255	1659.373827582286	5
0	9256	1659.805506676313	4
0	9260	1659.833638526273	5
0	9262	1660.45784704162	6
0	9265	1663.090804556472	5
0	9270	1663.652098408886	4
0	9274	1663.94879598721	5
0	9276	1666.025639090247	6
0	9278	1668.029453599248	7
0	9281	1668.260064578747	6
0	9286	1668.607546202639	5
0	9291	1669.966246621586	4
0	9296	1671.680016112598	3
0	9300	1672.377851327861	4
0	9303	1672.976031185821	3
0	9308	1673.946386218482	2
0	9314	1675.205728741862	3
0	9316	1675.613047050141	4
0	9318	1676.065200604072	5
0	9319	1677.061152174592	4
0	9324	1677.33793530099	3
0	9329	1678.111732688847	2
0	9334	1679.336294945049	1
0	9341	1681.085019148964	0
0	9363	1682.31371398893	1
0	9370	1684.059756375605	0
0	9376	1684.387264637214	1
0	9377	1684.52366009327	0
0	9395	1684.917495380165	1
0	9397	1685.25067587188	0
0	9404	1685.503565136362	1
0	9405	1685.551264758471	0
0	9414	1686.367607263853	1
0	9418	1688.856237201002	2
0	9421	1689.085028446533	3
0	9423	1689.609836327542	4
0	9428	1691.849095219934	3
0	9433	1691.87681579091	2
0	9438	1692.542137350245	1
0	9444	1693.949097261625	2
0	9445	1694.275411257141	1
0	9449	1694.495858486361	2
0	9452	1695.486060632874	1
0	9457	1696.497684663605	0
0	9464	1698.691383023597	1
0	9466	1700.145858047256	2
0	9467	1700.576058641311	1
0	9472	1700.845186928247	0
0	9488	1703.090249802668	1
0	9496	1706.34126599875	2
0	9499	1706.749046754673	1
0	9504	1706.963844474243	0
0	9516	1708.390990733418	1
0	9517	1708.421094353611	0
0	9521	1709.54737620826	1
0	9527	1711.518121592212	2
0	9528	1711.555226094902	1
0	9534	1712.007033728986	0
0	9553	1714.116618663812	1
0	9554	1714.710189753234	0
0	9561	1715.362918224318	1
0	9562	1716.812774107649	0
0	9573	1717.406589696285	1
0	9577	1719.680957273479	2
0	9578	1719.764628295457	1
0	9586	1721.150251145109	0
0	9598	1721.75269214927	1
0	9600	1723.849994022692	0
0	9613	1724.649084153836	1
0	9614	1725.323202318991	0
0	9648	1727.091880673143	1
0	9650	1727.290208807737	0
0	9673	1729.395570513554	1
0	9675	1729.410393265851	2
0	9679	1732.000822815837	1
0	9685	1732.561588862373	0
0	9692	1732.664582256764	1
0	9695	1733.045076518912	2
0	9697	1733.183503502473	3
0	9699	1733.437861843872	4
0	9702	1733.790512098138	3
0	9714	1736.21948177081	2
0	9719	1736.468698140848	1
0	9724	1736.531381046516	0
0	9744	1740.297958588066	1
0	9746	1741.033762006577	0
0	9768	1742.985752980878	1
0	9770	1743.988996330156	2
0	9774	1744.918869458586	3
0	9781	1750.458911758611	4
0	9783	1752.441161428617	5
0	9785	1752.448397326665	6
0	9787	1752.672230668528	7
0	9791	1752.988252452368	8
0	9792	1753.283198567025	7
0	9797	1753.963468389659	6
0	9805	1756.631392730404	5
0	9811	1757.285042541717	6
0	9812	1757.624932170684	5
0	9817	1757.721683022445	4
0	9822	1757.871652532442	3
0	9829	1759.440197208902	2
0	9834	1759.656989560312	1
0	9839	1760.970776200153	0
0	9843	1760.989780073807	1
0	9845	1761.256020269674	2
0	9848	1763.185806436186	1
0	9852	1763.550431828871	2
0	9855	1764.042213481058	1
0	9863	1764.992828216625	0
0	9879	1765.562277395469	1
0	9880	1766.246981118295	0
0	9889	1767.005955198684	1
0	9894	1768.748462098435	0
0	9910	1774.065811258592	1
0	9912	1777.132779105258	2
0	9916	1778.057008013728	1
0	9923	1779.143581050028	0
0	9927	1779.446643163788	1
0	9931	1780.699438647323	2
0	9938	1784.430729731636	1
0	9944	1785.553851724519	2
0	9945	1785.85448935353	1
0	9953	1791.220843649303	2
0	9958	1792.855955184707	1
0	9964	1792.944653105723	2
0	9967	1793.79982974556	1
0	9972	1794.050798218414	0
0	9978	1795.401456990028	1
0	9980	1795.854442677578	2
0	9982	1796.78133650978	3
0	9985	1796.80765087879	2
0	9990	1797.775923586488	1
0	9999	1801.157664354751	0
0	10015	1801.922763833546	1
0	10017	1802.453941909822	2
0	10019	1802.600988431122	1
0	10024	1802.986287921485	0
0	10040	1804.358494591171	1
0	10042	1804.490194329989	2
0	10050	1805.645020401215	1
0	10057	1806.600749944323	2
0	10059	1806.967029038268	1
0	10064	1807.691852145825	0
0	10078	1811.02680455179	1
0	10079	1812.289914913561	0
0	10085	1812.386461849771	1
0	10087	1813.38553254054	0
0	10118	1815.536530396914	1
0	10121	1815.941824139386	0
0	10152	1823.552784161753	1
0	10153	1824.632793582052	0
0	10171	1826.121225824693	1
0	10173	1826.192405979383	2
0	10174	1826.235463325358	1
0	10181	1826.7901508765	0
0	10203	1829.12207223719	1
0	10206	1829.801808729262	0
0	10221	1833.908130985507	1
0	10222	1834.310729989038	0
0	10230	1834.632443747027	1
0	10233	1835.121753245704	0
0	10262	1841.628902189185	1
0	10263	1842.219332495503	0
0	10271	1842.917451510958	1
0	10272	1843.936245462779	0
0	10287	1846.901122452143	1
0	10291	1848.559212074846	0
0	10300	1849.605974683994	1
0	10301	1849.88389618021	0
0	10315	1853.201588121882	1
0	10317	1854.475075699983	2
0	10318	1854.959522133667	1
0	10324	1855.506765201317	2
0	10325	1855.654305108118	1
0	10331	1857.395917929097	0
0	10368	1862.050460588716	1
0	10370	1863.893364167944	2
0	10372	1864.518026923716	1
0	10378	1865.809315837116	0
0	10390	1867.4511222471	1
0	10392	1867.61079008218	2
0	10393	1867.648375407085	1
0	10399	1868.767032532464	0
0	10425	1870.956947090551	1
0	10429	1872.918601447847	2
0	10430	1873.204663573126	1
0	10435	1873.286338348493	0
0	10459	1878.088307581948	1
0	10462	1878.480426616387	0
0	10498	1882.539557772379	1
0	10502	1884.038381883009	2
0	10505	1884.930892085921	3
0	10506	1885.022470641754	2
0	10511	1885.133075298471	1
0	10518	1885.912357431875	0
0	10530	1886.670810446975	1
0	10531	1887.049802088848	0
0	10540	1889.757021214404	1
0	10541	1890.735966787106	0
0	10555	1892.590497409438	1
0	10556	1892.893298952093	0
0	10562	1893.940693897101	1
0	10564	1894.36125717734	2
0	10566	1894.455302449345	3
0	10570	1895.856841345718	4
0	10573	1896.776287510819	5
0	10575	1896.805643887651	6
0	10576	1896.994483002282	5
0	10581	1897.597057271056	4
0	10586	1897.66044364895	3
0	10591	1898.264055167446	2
0	10599	1900.280375205686	3
0	10600	1900.513685864943	2
0	10608	1903.026238265233	1
0	10614	1903.212199129025	2
0	10615	1903.443135493935	1
0	10621	1903.444624335048	2
0	10624	1903.842434415029	1
0	10628	1904.254377077566	2
0	10631	1905.024277081695	1
0	10638	1906.350522617002	0
0	10642	1906.452085578827	1
0	10644	1906.855872137098	2
0	10647	1908.099797994426	1
0	10653	1908.625821847394	2
0	10654	1908.784620019293	1
0	10658	1908.934255098393	2
0	10660	1909.137025278265	3
0	10662	1909.387812787459	4
0	10664	1909.555956195016	5
0	10666	1909.645309308113	6
0	10668	1910.38635225707	7
0	10670	1910.62410284884	8
0	10674	1912.745932827434	7
0	10679	1912.919317937112	6
0	10688	1914.810091685188	5
0	10694	1915.021215459822	6
0	10696	1915.276186313802	5
0	10702	1915.791814367676	6
0	10703	1916.522081153077	5
0	10708	1916.550017466982	4
0	10713	1917.215000077723	3
0	10719	1918.543134661875	4
0	10720	1918.645977262812	3
0	10728	1919.872631749623	2
0	10734	1920.871732738843	3
0	10736	1921.04250296475	4
0	10737	1921.618049029126	3
0	10742	1922.363410035112	2
0	10748	1923.267093703287	3
0	10750	1923.423824591674	4
0	10753	1923.580653793814	3
0	10758	1926.820591901327	2
0	10762	1927.205100739715	3
0	10768	1930.345030370447	4
0	10770	1931.466036248788	3
0	10775	1931.541012526572	2
0	10781	1931.720658335846	3
0	10783	1931.808987053855	4
0	10784	1932.662077873858	3
0	10789	1933.042600039907	2
0	10795	1934.39340131388	3
0	10797	1934.843714728763	4
0	10798	1936.255023620802	3
0	10803	1936.746069207002	2
0	10808	1938.44667730336	1
0	10814	1940.384634447425	2
0	10816	1940.761322079632	3
0	10818	1941.673333882645	4
0	10819	1943.699410859033	3
0	10825	1944.340632915923	4
0	10829	1945.61796366924	5
0	10830	1948.862850054322	4
0	10835	1948.93663791041	3
0	10840	1948.998882935498	2
0	10847	1949.383677440877	3
0	10848	1949.49515110585	2
0	10854	1949.525054158339	3
0	10855	1949.650524097966	2
0	10861	1950.06808029552	3
0	10863	1951.745131949622	4
0	10868	1952.249188519324	3
0	10872	1952.991885383064	4
0	10879	1956.106056500111	5
0	10881	1956.118742666076	6
0	10884	1958.272588057605	5
0	10891	1958.657614583264	4
0	10897	1959.766612735323	5
0	10898	1960.028381242873	4
0	10907	1961.468020620298	3
0	10912	1961.954868112672	2
0	10917	1965.085591693458	1
0	10921	1965.255981094514	2
0	10926	1966.559691245758	1
0	10932	1966.711156625173	2
0	10934	1966.839871747306	1
0	10939	1967.338172911801	0
0	10961	1968.680724958732	1
0	10963	1970.022216464233	0
0	10967	1970.981903769085	1
0	10970	1973.108977087346	0
0	10978	1974.068925673842	1
0	10979	1974.143215429031	0
0	10985	1974.324757531549	1
0	10986	1974.506891398169	0
0	11014	1979.742669517928	1
0	11023	1982.408902433273	2
0	11025	1983.213548277561	3
0	11026	1983.68315112464	2
0	11034	1984.435712997562	1
0	11040	1984.943010050031	2
0	11042	1985.19227801296	1
0	11047	1985.455443209163	0
0	11061	1986.760973861053	1
0	11062	1987.009999955349	0
0	11069	1987.179232507952	1
0	11071	1987.809066973437	2
0	11074	1988.856480167903	1
0	11079	1989.327765672515	0
0	11116	1996.206561988069	1
0	11117	1996.565063955369	0
0	11132	1998.421944176195	1
0	11138	2001.180873283765	0
0	11150	2002.163771554999	1
0	11152	2002.401074015598	2
0	11153	2003.436175587019	1
0	11163	2005.539540046005	0
0	11169	2005.8250003192	1
0	11171	2006.381328226233	2
0	11172	2006.530593163031	1
0	11177	2006.534166691828	0
0	11186	2007.145889807407	1
0	11189	2007.871253321789	0
0	11193	2008.107756427254	1
0	11197	2009.104878157034	0
0	11232	2014.933360262307	1
0	11235	2017.277474344609	0
0	11244	2019.340138919878	1
0	11250	2020.21902014358	2
0	11254	2021.152489904099	1
0	11263	2022.810352185988	2
0	11264	2023.451146554958	1
0	11269	2024.064253882569	0
0	11285	2025.210930829253	1
0	11286	2025.233625040757	0
0	11292	2025.989610502431	1
0	11293	2026.096309900857	0
0	11304	2029.734776601823	1
0	11308	2031.839334485174	0
0	11316	2033.31068800418	1
0	11317	2034.156353787656	0
0	11324	2034.525188365116	1
0	11326	2035.174931787737	0
0	11338	2036.512480764568	1
0	11339	2036.542506697911	0
0	11364	2040.719144034405	1
0	11370	2045.235493694263	0
0	11382	2046.918465667314	1
0	11383	2047.671073905161	0
0	11389	2047.674323408433	1
0	11390	2047.898941908638	0
0	11417	2051.047160882925	1
0	11418	2052.519806439541	0
0	11427	2052.92295856645	1
0	11432	2053.806475682678	2
0	11434	2054.183899449537	1
0	11440	2054.434034125222	2
0	11445	2056.055260215759	1
0	11450	2056.066581226554	0
0	11461	2057.490763205315	1
0	11462	2057.627721341725	0
0	11479	2058.00797256604	1
0	11484	2059.226396923939	2
0	11486	2059.779849626049	1
0	11492	2060.43652676968	0
0	11537	2064.781394633139	1
0	11538	2065.366869445161	0
0	11553	2066.413452217305	1
0	11556	2066.942783600739	2
0	11557	2067.552306066528	1
0	11562	2068.019715728412	0
0	11574	2068.645334661333	1
0	11578	2071.096111422858	0
0	11588	2071.873940963448	1
0	11591	2071.981338473633	2
0	11593	2071.988449072308	3
0	11599	2072.597413670191	4
0	11600	2072.805110882477	3
0	11605	2073.026556681329	2
0	11611	2073.209850603128	1
0	11616	2073.367626057292	0
0	11667	2078.853888220824	1
0	11669	2079.528491194854	2
0	11671	2081.259172469426	3
0	11673	2081.677564483556	4
0	11675	2082.055091282771	5
0	11677	2083.112482436029	6
0	11680	2083.322971811249	5
0	11685	2083.466998044031	4
0	11691	2083.743458320313	3
0	11699	2085.156257100784	2
0	11704	2085.571085474835	1
0	11708	2085.672230803261	2
0	11712	2086.60220827522	1
0	11720	2087.730235774682	2
0	11721	2088.510222702191	1
0	11728	2093.116250553234	0
0	11736	2093.651269329658	1
0	11737	2094.344448658458	0
0	11743	2096.011863277914	1
0	11744	2096.265780851864	0
0	11748	2096.334557291923	1
0	11751	2097.612695354219	0
0	11755	2097.641885557009	1
0	11757	2098.92121093591	2
0	11763	2100.603889953908	1
0	11771	2101.641828278498	2
0	11772	2101.817291345553	1
0	11778	2102.232251677961	0
0	11801	2104.837193807471	1
0	11803	2105.334330201279	0
0	11817	2107.607539909198	1
0	11819	2108.062707329657	0
0	11830	2109.474745293086	1
0	11831	2111.10685221647	0
0	11862	2116.65271902842	1
0	11865	2118.117156016353	0
0	11879	2119.597711948095	1
0	11880	2119.938884198903	0
0	11886	2120.553684142419	1
0	11889	2121.856846090314	0
0	11914	2127.436871402995	1
0	11916	2127.46599950079	2
0	11918	2128.460352978876	3
0	11922	2129.32033692299	2
0	11929	2130.528433978252	1
0	11934	2130.934624838402	0
0	11951	2131.579194957353	1
0	11952	2131.581439655376	0
0	11958	2131.782569775836	1
0	11959	2132.487738031385	0
0	11963	2132.720829129196	1
0	11966	2133.473766045738	0
0	11986	2135.105738454321	1
0	11991	2137.589193167994	0
0	12023	2142.364910690881	1
0	12024	2143.114865413188	0
0	12038	2144.876173319676	1
0	12040	2145.1039385254	0
0	12051	2145.381241026742	1
0	12052	2146.01254989251	0
0	12058	2146.25850657862	1
0	12061	2146.742054607026	2
0	12063	2146.783422237121	3
0	12065	2146.878321114855	4
0	12066	2147.316520739957	3
0	12071	2148.162639408355	2
0	12076	2149.081428110081	1
0	12083	2149.94929898151	0
0	12087	2151.569877859598	1
0	12089	2152.884772488221	2
0	12091	2153.5202697836	3
0	12095	2153.667651625752	4
0	12097	2153.870329379469	5
0	12102	2155.518994493362	4
0	12108	2156.39752743824	3
0	12112	2156.68660075011	4
0	12116	2157.643656203916	5
0	12117	2157.830165410619	4
0	12125	2159.977760481229	5
0	12129	2161.931995415917	6
0	12136	2164.637944753417	5
0	12142	2165.28749082253	6
0	12149	2166.747273527195	5
0	12154	2167.295288414098	4
0	12162	2169.474966690401	5
0	12164	2169.560712571871	6
0	12165	2169.780278660901	5
0	12171	2170.110574017248	6
0	12172	2170.826377601138	5
0	12180	2171.811385065874	4
0	12185	2172.828676261166	3
0	12192	2173.243104687716	4
0	12193	2173.777951174065	3
0	12198	2173.864546432971	2
0	12203	2174.215303727904	1
0	12208	2175.715152157812	0
0	12221	2177.218988900707	1
0	12231	2179.949852322525	0
0	12254	2182.564536898245	1
0	12256	2182.661712304214	2
0	12258	2182.767707522691	3
0	12260	2183.009758562854	2
0	12266	2184.125336845785	3
0	12267	2184.825013573151	2
0	12273	2185.629969879092	1
0	12279	2185.992940740363	0
0	12315	2189.299725166162	1
0	12316	2189.76179668446	0
0	12338	2191.094482136181	1
0	12341	2191.822022581336	0
0	12363	2196.898816970277	1
0	12365	2198.477450138437	2
0	12368	2198.649727718952	1
0	12373	2199.658102111936	0
0	12380	2201.526590181147	1
0	12382	2202.201543959678	0
0	12388	2202.287420414165	1
0	12390	2202.48268858562	0
0	12402	2204.407195539332	1
0	12403	2204.490173269702	0
0	12419	2205.529671451384	1
0	12420	2205.731916680735	0
0	12424	2205.89008403579	1
0	12426	2206.176553748551	2
0	12430	2208.039766941013	3
0	12433	2209.082876338521	2
0	12437	2209.157554669909	3
0	12444	2209.718931058491	2
0	12449	2211.509729089406	1
0	12453	2212.342522574173	2
0	12457	2213.219932986117	1
0	12465	2214.064295181679	2
0	12466	2214.478659796977	1
0	12470	2214.802014114056	2
0	12472	2214.936689609803	3
0	12475	2215.283845625643	2
0	12479	2215.806657878147	3
0	12481	2216.18116442955	4
0	12483	2216.518931159633	5
0	12486	2216.963539251683	4
0	12499	2219.725335475621	3
0	12503	2219.962594892354	4
0	12506	2220.377329829648	3
0	12519	2221.820986440718	4
0	12526	2224.560448134711	3
0	12532	2224.613504647517	4
0	12533	2224.941781648169	3
0	12540	2225.86498979472	4
0	12542	2225.876195619474	5
0	12544	2226.28086101913	6
0	12546	2226.989933645685	5
0	12552	2227.248768102546	4
0	12559	2227.402337770538	5
0	12560	2228.321352107649	4
0	12566	2228.393861237642	5
0	12567	2228.500578255995	4
0	12574	2229.653918213717	5
0	12575	2229.844674441171	4
0	12582	2230.331623354622	3
0	12588	2230.502456466429	4
0	12589	2230.614736276513	3
0	12593	2231.211172708063	4
0	12597	2232.791892616728	5
0	12599	2232.897067138981	6
0	12603	2233.20533985617	7
0	12605	2233.626043728601	6
0	12610	2233.648788401951	5
0	12615	2234.743575511157	4
0	12620	2235.027858471543	3
0	12624	2235.075419703081	4
0	12627	2236.593385004604	3
0	12632	2238.385832217982	2
0	12638	2240.953137519175	1
0	12645	2241.51795530781	0
0	12649	2242.088606029265	1
0	12653	2243.190552717364	0
0	12678	2248.480213538564	1
0	12679	2248.58132899478	0
0	12716	2257.171664903513	1
0	12719	2258.834187494878	0
0	12734	2262.358526145223	1
0	12741	2264.544470421003	2
0	12742	2264.654653135456	1
0	12747	2264.734363053064	0
0	12760	2265.293085597449	1
0	12762	2265.576147296885	2
0	12763	2265.607620860822	1
0	12772	2266.069428370286	2
0	12774	2266.276234628677	3
0	12778	2266.79567407923	4
0	12779	2267.190828551331	3
0	12785	2267.318609269168	4
0	12787	2268.078527287341	5
0	12788	2269.177851299351	4
0	12792	2269.345652331197	5
0	12799	2273.957312026041	4
0	12803	2275.34154852653	5
0	12806	2276.257058088007	4
0	12812	2277.728840297816	5
0	12815	2279.716512187931	4
0	12823	2280.068579341945	5
0	12825	2280.241617366044	6
0	12827	2280.505120672817	5
0	12832	2280.528363767132	4
0	12836	2280.788021373578	5
0	12838	2281.632500003162	6
0	12840	2282.093901397901	7
0	12847	2286.338165231753	6
0	12851	2286.503138409759	7
0	12853	2286.9498754528	8
0	12857	2287.492047291802	7
0	12863	2288.049860167846	8
0	12865	2289.152037949682	9
0	12867	2289.638692143545	10
0	12868	2289.770336587236	9
0	12874	2290.397764582636	10
0	12877	2291.075732709236	9
0	12882	2292.639371563532	8
0	12887	2293.432980185543	7
0	12897	2295.374562731886	8
0	12899	2295.564117408513	9
0	12900	2295.878507187757	8
0	12906	2296.260669541172	7
0	12911	2296.338694848328	6
0	12916	2296.56773519055	5
0	12921	2298.020040441627	4
0	12926	2298.810597983096	3
0	12935	2303.470054158511	2
0	12942	2307.229214537605	1
0	12947	2307.611716387511	0
0	12951	2308.964096362042	1
0	12955	2309.899227828342	2
0	12957	2310.174100085742	3
0	12959	2310.259535011848	4
0	12960	2310.492585270799	3
0	12968	2312.289663819976	4
0	12970	2312.754605836198	5
0	12971	2312.815703547279	4
0	12975	2313.171763410963	5
0	12984	2316.706344817054	4
0	12990	2317.483716100013	3
0	12996	2317.585675558983	4
0	12998	2317.687845216143	5
0	13000	2317.850794461832	4
0	13008	2318.291128104156	5
0	13009	2318.494628772425	4
0	13013	2318.663768750128	5
0	13015	2319.40809570169	6
0	13019	2320.66814933773	7
0	13022	2321.084676736802	6
0	13026	2321.203203973575	7
0	13030	2322.017892129467	8
0	13033	2323.433542822993	7
0	13037	2323.981169882251	8
0	13040	2324.445423795972	7
0	13048	2324.861040582341	8
0	13049	2325.840255950138	7
0	13053	2326.355388795988	8
0	13056	2327.451104519026	7
0	13061	2328.211557541609	6
0	13066	2328.388921467329	5
0	13072	2329.448062049014	6
0	13073	2329.802414421249	5
0	13078	2331.549014263119	4
0	13084	2334.099797310974	3
0	13089	2334.217011374456	2
0	13098	2336.032713051267	1
0	13103	2336.62531130885	0
0	13107	2339.388576909893	1
0	13110	2339.589494466785	0
0	13116	2341.882945918182	1
0	13117	2342.08181156916	0
0	13125	2343.648859681623	1
0	13126	2343.784214648743	0
0	13180	2351.122455615547	1
0	13182	2351.614620454288	2
0	13184	2351.740734262418	3
0	13190	2354.35443353754	4
0	13192	2354.5795488766	5
0	13193	2354.830492771079	4
0	13200	2355.056089744679	5
0	13201	2355.537790333962	4
0	13207	2355.538261301725	5
0	13212	2356.510248036939	6
0	13213	2357.193292267787	5
0	13220	2357.570652641126	4
0	13225	2357.653923922529	3
0	13229	2357.779183179802	4
0	13234	2358.241541473613	3
0	13238	2358.369704276479	4
0	13241	2359.308160996866	3
0	13249	2361.308209001447	2
0	13255	2361.696933675038	1
0	13259	2362.179049712652	2
0	13263	2363.548970060926	3
0	13266	2363.914107403878	2
0	13270	2364.453414860388	3
0	13273	2364.948229882322	2
0	13277	2365.068769816274	3
0	13282	2366.106261321556	2
0	13286	2366.704833446374	3
0	13290	2367.237326337766	2
0	13295	2367.906486017564	1
0	13300	2369.232149695786	0
0	13314	2372.000844491289	1
0	13317	2372.640032005473	0
0	13358	2376.592843016548	1
0	13359	2377.123732216221	0
0	13369	2378.221788996551	1
0	13373	2379.238588964504	2
0	13380	2379.961047344708	3
0	13381	2380.330436500257	2
0	13387	2380.607855071239	3
0	13388	2380.774472318519	2
0	13393	2380.844014040507	1
0	13400	2381.717124740798	0
0	13411	2382.104145373745	1
0	13415	2382.567685017976	2
0	13416	2383.050005674065	1
0	13421	2383.563491805884	0
0	13425	2384.547166025758	1
0	13429	2384.658650414375	2
0	13433	2384.840848368702	3
0	13434	2384.909469558332	2
0	13439	2385.849117396779	1
0	13445	2386.140267778072	2
0	13449	2386.553485230587	3
0	13451	2386.572550875787	4
0	13455	2387.689078027259	3
0	13463	2390.419093602829	4
0	13464	2391.950246330716	3
0	13468	2393.246434868001	4
0	13471	2393.695992750583	3
0	13476	2394.347106793024	2
0	13481	2395.874366290699	1
0	13489	2396.933807347693	2
0	13491	2397.233234643031	3
0	13497	2398.235904979108	2
0	13502	2399.281157694835	1
0	13510	2399.829614961315	0
0	13521	2400.819909928584	1
0	13526	2401.840369235908	0
0	13565	2409.325947069888	1
0	13567	2409.504684204933	2
0	13569	2410.295431496624	3
0	13571	2411.229885444395	4
0	13573	2411.819677456988	5
0	13576	2413.343052723756	4
0	13581	2414.171930043562	3
0	13588	2414.672100645501	4
0	13592	2416.304579238629	5
0	13593	2416.339130007666	4
0	13600	2416.645856561511	5
0	13603	2416.897645467035	4
0	13609	2416.953155405421	5
0	13610	2417.077861447812	4
0	13615	2417.542098550719	3
0	13622	2418.023704918912	2
0	13628	2418.818451520269	1
0	13635	2419.339087169706	2
0	13636	2420.483169650264	1
0	13642	2420.490717010742	2
0	13643	2420.784254209254	1
0	13650	2422.40787707785	0
0	13656	2423.562266263227	1
0	13662	2424.724155062108	0
0	13682	2429.286427035908	1
0	13683	2431.425600160719	0
0	13707	2438.010329188397	1
0	13709	2438.265131353811	2
0	13713	2439.447073827527	3
0	13716	2440.047512696655	4
0	13717	2440.910587370284	3
0	13722	2441.141313593883	2
0	13735	2443.203054648961	1
0	13741	2443.50204767902	0
0	13784	2450.54440567702	1
0	13789	2453.462114808244	0
0	13795	2454.210669894984	1
0	13797	2455.855473973882	0
0	13804	2456.521273981016	1
0	13806	2456.792574429763	2
0	13811	2457.543841704589	3
0	13814	2457.577722728694	2
0	13821	2458.361956606696	3
0	13823	2458.740802270548	4
0	13828	2459.783829279335	3
0	13834	2460.921918388256	4
0	13836	2461.145898592552	5
0	13838	2462.188077779851	4
0	13846	2463.078858204573	5
0	13847	2463.37301061284	4
0	13853	2463.677387893928	5
0	13855	2463.711199257887	6
0	13857	2463.964504829156	5
0	13863	2463.986266861716	6
0	13867	2466.182128977387	5
0	13872	2466.428277503518	4
0	13878	2466.896341746415	3
0	13883	2467.35826942956	2
0	13888	2468.013242748309	1
0	13894	2468.593985975678	0
0	13908	2470.116004184192	1
0	13910	2470.436896341318	2
0	13912	2472.102707474811	1
0	13917	2473.30017308605	0
0	13930	2474.198765164712	1
0	13933	2475.024042756231	0
0	13950	2476.616777844743	1
0	13952	2476.94483296824	0
0	13958	2477.003858031106	1
0	13962	2478.3923394022	0
0	13974	2479.612480356596	1
0	13975	2480.539402201173	0
0	13983	2482.233728380285	1
0	13984	2482.547325645512	0
0	14050	2492.807413160191	1
0	14052	2492.928949617261	2
0	14055	2493.421281259386	1
0	14060	2493.503838114652	0
0	14075	2494.976491257656	1
0	14077	2495.275267505671	2
0	14080	2495.735270702901	1
0	14085	2496.415805910215	0
0	14102	2498.630917002531	1
0	14103	2498.895911298271	0
0	14114	2499.38420724838	1
0	14117	2500.184511303565	2
0	14118	2500.536788117895	1
0	14123	2500.70470316798	0
0	14142	2503.014108535184	1
0	14145	2504.353845555555	0
0	14169	2507.913632993014	1
0	14171	2507.921084985788	2
0	14172	2508.104271782466	1
0	14178	2508.33754968011	0
0	14211	2513.166164565669	1
0	14212	2513.297028195479	0
0	14225	2514.627388065995	1
0	14227	2515.07153007069	2
0	14230	2517.89182794225	1
0	14237	2518.56891313785	0
0	14243	2519.229208124964	1
0	14244	2519.497133433828	0
0	14255	2519.662583651983	1
0	14256	2519.705222245539	0
0	14267	2520.786479395972	1
0	14271	2521.492749122948	0
0	14277	2521.836079515391	1
0	14279	2521.992357333706	2
0	14282	2523.17006756048	1
0	14289	2524.018041431453	2
0	14291	2524.544618273318	1
0	14297	2525.110468547421	0
0	14301	2525.405433529838	1
0	14304	2527.587747703341	0
0	14310	2528.075245753295	1
0	14312	2528.923977138196	2
0	14318	2530.330068757404	3
0	14319	2530.656101758272	2
0	14327	2531.388994092103	3
0	14331	2531.563048149772	4
0	14332	2531.904121444549	3
0	14337	2532.919391092445	2
0	14342	2534.904107876235	1
0	14347	2535.891233322398	0
0	14355	2536.718625280625	1
0	14356	2537.501514973475	0
0	14370	2541.048789903582	1
0	14372	2542.226528795971	0
0	14396	2544.575727755706	1
0	14397	2545.609828682166	0
0	14414	2550.504613010832	1
0	14421	2553.196030652678	0
0	14441	2554.112526214793	1
0	14442	2555.256405297542	0
0	14454	2555.942427012338	1
0	14455	2556.81849773604	0
0	14464	2557.165684145615	1
0	14467	2557.991762424895	0
0	14481	2560.23344942424	1
0	14484	2560.918115844446	0
0	14490	2560.961417662558	1
0	14497	2562.877228007244	0
0	14508	2563.090947842071	1
0	14511	2564.134992934777	0
0	14545	2567.157307447978	1
0	14546	2567.293064317442	0
0	14552	2568.080111294391	1
0	14554	2569.035568892594	0
0	14561	2569.401452444563	1
0	14562	2569.703756013063	0
0	14598	2576.439545318208	1
0	14602	2577.487798100589	2
0	14603	2577.707090510953	1
0	14608	2577.785303477653	0
0	14614	2577.807419359833	1
0	14615	2577.818159018386	0
0	14634	2580.478792991903	1
0	14638	2580.763136361908	2
0	14640	2580.84672259496	3
0	14642	2581.014133772254	4
0	14643	2581.774862337324	3
0	14647	2582.444656834325	4
0	14651	2584.719591108052	5
0	14655	2586.511167957526	4
0	14660	2587.164472026948	3
0	14666	2588.4506802541	4
0	14668	2588.601863987025	5
0	14669	2590.00667334077	4
0	14673	2590.325607780013	5
0	14675	2590.552183528872	6
0	14681	2592.506790833507	7
0	14685	2593.304079694626	8
0	14689	2593.771749853422	9
0	14693	2594.142778881741	10
0	14694	2594.277021567946	9
0	14698	2594.439519958928	10
0	14700	2595.415769305034	11
0	14703	2595.653345620979	10
0	14708	2597.014820200758	9
0	14714	2598.326631255729	10
0	14717	2599.011695334433	11
0	14718	2599.047538070004	10
0	14723	2599.190892677585	9
0	14731	2601.515178000301	10
0	14733	2601.984729441524	11
0	14735	2602.888827312747	12
0	14739	2604.163114376703	11
0	14744	2604.440752285229	10
0	14748	2604.589247805356	11
0	14750	2605.625755648171	12
0	14756	2607.606519991432	13
0	14762	2609.096023360265	14
0	14763	2609.100109665445	13
0	14768	2609.134971639243	12
0	14773	2609.23783397562	11
0	14777	2609.350981274141	12
0	14779	2609.727362949091	13
0	14784	2610.442315192354	12
0	14789	2610.527994004524	11
0	14794	2610.964792304012	10
0	14801	2612.483863021259	9
0	14806	2612.584490254574	8
0	14810	2613.509471826291	9
0	14813	2615.020521054137	8
0	14818	2616.211070203997	7
0	14822	2617.460775637527	8
0	14825	2618.626273959221	7
0	14829	2619.949871066745	8
0	14831	2620.800774326551	9
0	14835	2621.343247141425	10
0	14837	2621.646500844419	11
0	14839	2621.719203000648	12
0	14840	2622.108824125551	11
0	14846	2623.469869124248	12
0	14849	2624.625227138667	11
0	14859	2626.786483573982	12
0	14860	2626.910795387763	11
0	14865	2627.278416288915	10
0	14871	2627.945845791531	9
0	14876	2628.07865651784	8
0	14881	2629.576148412018	7
0	14886	2630.132097093759	6
0	14890	2630.299080397082	7
0	14894	2630.938073430784	8
0	14900	2631.99955608865	9
0	14902	2632.541255587137	8
0	14907	2632.877840043807	7
0	14913	2633.086834414494	8
0	14914	2633.266783675939	7
0	14920	2633.421889870557	8
0	14921	2633.591819269186	7
0	14927	2634.453065111344	8
0	14928	2634.995311495924	7
0	14934	2635.656960692807	8
0	14941	2638.494067978006	7
0	14947	2639.198454863138	8
0	14949	2639.43663226626	9
0	14951	2640.190705424816	8
0	14956	2640.75290032771	7
0	14962	2641.340264835986	8
0	14963	2641.503126314679	7
0	14968	2644.540311033679	6
0	14975	2645.22978900232	5
0	14979	2645.365391134867	6
0	14982	2646.268819587229	5
0	14992	2648.663706394221	6
0	14995	2648.678555376877	5
0	15002	2649.327536612776	6
0	15004	2650.108786263604	7
0	15005	2651.328531591433	6
0	15011	2651.488045577878	7
0	15012	2651.58081410255	6
0	15016	2652.21211910158	7
0	15018	2653.436218441246	8
0	15020	2654.577913154722	9
0	15024	2657.020538842194	10
0	15026	2657.332164699975	11
0	15030	2659.664090566338	10
0	15036	2659.77870241156	11
0	15038	2661.075534585929	10
0	15043	2661.451591811863	9
0	15050	2663.939525044643	8
0	15056	2665.605797436374	9
0	15057	2665.730765062067	8
0	15061	2665.922896752945	9
0	15063	2666.442267186367	10
0	15066	2668.234726123234	9
0	15070	2668.569425777305	10
0	15072	2669.060435527969	11
0	15077	2671.125551964321	10
0	15081	2671.296733668578	11
0	15085	2671.641479484122	10
0	15090	2672.186398831559	9
0	15094	2672.283819820837	10
0	15096	2672.77643375107	11
0	15098	2673.832950841803	12
0	15101	2674.732930644554	11
0	15105	2674.989860651929	12
0	15107	2676.504126310438	13
0	15109	2676.841676121417	14
0	15113	2677.723314949934	15
0	15115	2678.616221994965	16
0	15116	2678.721159798886	15
0	15120	2679.215315424166	16
0	15122	2679.652758324742	17
0	15124	2681.330974725855	18
0	15126	2681.696386794591	19
0	15128	2681.852873583217	20
0	15138	2683.503068564686	21
0	15140	2684.492088439059	22
0	15142	2684.689713849923	23
0	15145	2685.612602394069	24
0	15146	2685.632032493388	23
0	15152	2685.976272077755	24
0	15154	2686.108590537529	25
0	15156	2686.971214517428	24
0	15164	2687.574750565026	23
0	15170	2688.074293659858	24
0	15175	2690.021668318219	23
0	15179	2690.136545686701	24
0	15187	2692.803318059407	23
0	15193	2692.886953470069	24
0	15194	2693.097276350183	23
0	15201	2694.764150503	22
0	15206	2695.534472988554	21
0	15211	2696.791487318116	20
0	15217	2697.710584865044	19
0	15223	2697.738891328624	18
0	15229	2698.666114817018	19
0	15230	2699.15922626009	18
0	15235	2700.638537856768	17
0	15239	2700.751093972871	18
0	15241	2701.310985520485	19
0	15245	2703.448887529696	18
0	15250	2703.834694078561	17
0	15254	2704.791888414326	18
0	15259	2706.043642635691	19
0	15260	2706.364671803749	18
0	15265	2706.448462738098	17
0	15271	2708.773147075645	18
0	15273	2710.074624728317	17
0	15279	2710.60126138833	16
0	15284	2711.068878540687	15
0	15288	2711.39766265943	16
0	15290	2712.136262768749	17
0	15294	2712.974706324026	16
0	15300	2713.036466575258	17
0	15303	2713.893874351609	18
0	15306	2715.775319738452	17
0	15311	2716.211594458853	16
0	15315	2716.469224656363	17
0	15317	2716.568565461121	18
0	15320	2717.01715352016	17
0	15326	2718.098076426498	16
0	15331	2719.10942550018	15
0	15337	2719.366023581434	14
0	15343	2719.376806250703	15
0	15344	2719.451167725016	14
0	15352	2721.367232392461	15
0	15355	2722.701309297654	14
0	15359	2723.117801617756	15
0	15362	2723.708262351195	14
0	15367	2725.092485179269	13
0	15376	2727.143104274957	12
0	15382	2728.310706597352	13
0	15383	2728.3300229698	12
0	15388	2728.688668305452	11
0	15392	2728.962781880847	12
0	15398	2730.853180383959	13
0	15405	2732.749671656811	12
0	15410	2733.756567597273	11
0	15414	2734.016948092065	12
0	15421	2738.509485518463	11
0	15425	2738.53326911754	12
0	15427	2738.830101318484	13
0	15430	2739.602144793009	12
0	15436	2740.504954665604	13
0	15437	2741.134827344949	12
0	15444	2741.955577837747	11
0	15449	2744.611253334308	10
0	15454	2744.936454645913	9
0	15458	2745.137662049267	10
0	15461	2745.8504215961	9
0	15468	2746.962134985252	8
0	15473	2747.101807969198	7
0	15478	2747.357247103312	6
0	15486	2748.990844527262	5
0	15492	2749.363486495842	6
0	15493	2749.781573036633	5
0	15500	2751.000607150578	4
0	15505	2751.298937999329	3
0	15512	2751.640719894349	4
0	15513	2751.641285063998	3
0	15518	2751.67507399907	2
0	15523	2751.825067420532	1
0	15529	2754.032755796673	2
0	15531	2755.82092847568	3
0	15534	2756.042550578311	2
0	15539	2756.144290192744	1
0	15543	2757.081211646315	2
0	15546	2758.032707505283	1
0	15552	2759.217743920623	2
0	15553	2759.427549522388	1
0	15560	2760.720939967166	0
0	15597	2765.959827513997	1
0	15599	2768.118555410441	2
0	15606	2771.256246807443	1
0	15613	2772.096908003491	0
0	15627	2773.851924361232	1
0	15631	2776.156001194633	0
0	15638	2776.379659953536	1
0	15640	2776.86310013242	2
0	15641	2777.590340450868	1
0	15647	2777.695105786881	0
0	15659	2778.763276399344	1
0	15661	2779.154422125696	0
0	15667	2779.597342624375	1
0	15672	2780.128673408543	2
0	15674	2781.43260437338	1
0	15679	2781.778820549985	0
0	15718	2788.913054841856	1
0	15720	2790.609768652822	2
0	15723	2791.655350083254	1
0	15729	2792.397665017476	0
0	15753	2796.207389655903	1
0	15758	2797.196906461845	0
0	15771	2797.769649596413	1
0	15773	2797.789198253952	2
0	15776	2798.243893204794	3
0	15778	2800.35951037056	4
0	15779	2800.973825830382	3
0	15785	2801.126948740573	4
0	15786	2801.655487872606	3
0	15791	2802.12017734385	2
0	15797	2804.133941382352	1
0	15803	2804.296220498727	0
0	15809	2805.825907749975	1
0	15815	2806.95549531063	2
0	15818	2808.179925287795	1
0	15822	2808.200422320874	2
0	15824	2808.402415712033	3
0	15826	2808.674895225213	4
0	15828	2809.695660575773	5
0	15835	2811.511889503903	4
0	15840	2812.927061975814	3
0	15844	2814.67540532888	4
0	15846	2816.354158490348	5
0	15851	2818.00569770834	6
0	15852	2818.365165799739	5
0	15858	2818.73150628147	6
0	15859	2818.887939750398	5
0	15865	2821.607876573149	6
0	15866	2822.164546582922	5
0	15870	2822.386531200584	6
0	15876	2825.372781260409	7
0	15878	2826.0821308697	8
0	15881	2826.885108266461	7
0	15887	2827.464712655902	6
0	15892	2828.024106677598	5
0	15897	2829.95335220385	4
0	15902	2830.559868525427	3
0	15906	2830.785862399923	4
0	15909	2831.251315903555	3
[...]
4	152190	27682.336751667033	3870.0981328377
4	152195	27682.721413501153	3867.7640095544
4	152210	27686.312442723633	3864.3291541898
4	152328	27701.833446823509	3869.8843329844
4	152333	27701.957285660599	3869.5899538058
4	152343	27704.467477438939	3867.4576376218
4	152352	27706.811322541438	3869.5964489729
4	152376	27709.678199623107	3870.6163337576
4	152381	27710.302705045602	3868.0287943976
4	152390	27712.15210541919	3869.7902212833
4	152402	27714.524436539976	3860.4617684827
4	152458	27721.431287161056	3865.7214767379
4	152467	27723.804087770275	3866.1380691545
4	152472	27724.339012093623	3860.7514637334
4	152479	27724.693911639799	3858.9170505569
4	152506	27727.279946984394	3861.4923404632
4	152522	27729.678838786197	3861.6822819289
4	153016	27833.550743391625	3964.3501506991
4	153031	27834.940445714963	3964.6750943089
4	153044	27836.755822143107	3959.5760017237
4	153063	27838.660534034688	3960.7476923113
4	153071	27838.917424374553	3951.1526294147
4	153076	27839.510115565235	3950.0651654908
4	153081	27842.125389908912	3952.1097329359
4	153087	27843.886620435702	3949.7579631645
4	153097	27846.337363658313	3950.7241664923
4	153114	27848.959479604479	3949.906711506
4	153152	27854.235042644099	3953.6884742848
4	153162	27855.860338856291	3954.2118619397
4	153184	27859.602048266169	3953.4400628303
4	153189	27859.805919968764	3952.7180974774
4	153200	27860.627706264889	3945.0195413572
4	153275	27869.784896491407	3952.4822738078
4	153287	27874.840783016542	3952.6121429863
4	153298	27875.373193961427	3950.0479572698
4	153303	27875.400974978179	3948.3935082234
4	153310	27875.533869497919	3946.5928483288
4	153321	27876.266494878501	3943.5414035426
4	153328	27877.210475260996	3939.6766488165
4	153340	27881.941287335454	3938.7430930387
4	153349	27884.139050887905	3934.0967114207
4	153394	27888.79501660567	3938.2441402496
4	153435	27896.462648206798	3944.899405498
4	153440	27896.669025567041	3939.3784024383
4	153448	27898.029585610788	3938.9141458913
4	153459	27899.566054507645	3932.4175613179
4	153480	27906.011634724027	3931.2159630788
4	153698	27954.798047786821	3975.4913162156
4	153705	27955.757632503221	3972.831218751
4	153710	27956.401724819288	3969.9467466325
4	153729	27961.037362095383	3968.0620779416
4	153881	27991.516960283317	3995.8055011101
4	153886	27991.796453607349	3988.8473482212
4	153893	27992.116267332123	3985.480760043
4	153901	27993.436528183539	3980.5808033013
4	153915	27996.281191725533	3981.9801449456
4	154139	28046.804125136945	4023.3172760936
4	154145	28047.662404984339	4023.9321750616
4	154157	28048.56110352062	4019.424143965
4	154179	28049.959409077102	4019.6928438479
4	154186	28052.53226740737	4013.9870280791
4	154194	28053.577680577447	4012.8624006038
4	154236	28060.840389183863	4016.0808449636
4	154243	28062.203971532818	4014.8554284522
4	154248	28063.210442596013	4013.3826465084
4	154253	28063.32026130223	4008.1607607899
4	154258	28063.515379441552	4006.3250667023
4	154274	28067.41334521548	4003.9241668147
4	154311	28071.253755341466	4004.852548465
4	154316	28071.705255907391	4005.0826516801
4	154325	28072.123848687305	4003.647782085
4	154357	28078.705332231065	4008.9240198507
4	154377	28081.831061984549	4006.4030910206
4	154416	28090.532845735988	4014.7323052684
4	154421	28090.746550729601	4005.6872347565
4	154428	28093.119735476184	4006.9619495742
4	154435	28094.782414055914	4003.1405265856
4	154442	28095.798811038262	4001.9752955758
4	154489	28105.59797474779	4005.6976977414
4	154501	28106.563978797082	4005.5253770649
4	154513	28108.329369729282	3994.8751314152
4	154537	28110.932675146322	3985.7800328701
4	154542	28111.416576071052	3982.6139871865
4	154548	28111.626815620403	3982.3697900518
4	154555	28114.277818353713	3963.469111312
4	154566	28116.735367594331	3957.9119007929
4	154573	28120.27078683291	3961.4172465463
4	154593	28123.745460937828	3964.7059190584
4	154643	28130.067302143371	3968.6030672388
4	154671	28133.090370475178	3969.4986123363
4	154688	28133.325260735987	3957.8779646499
4	154706	28135.095113773903	3950.9417856829
4	154728	28137.207105060081	3944.1053683681
4	154736	28137.801620563102	3943.1108084766
4	154741	28138.041071084939	3931.6978653316
4	154748	28140.307875183348	3928.4257903867
4	154755	28143.338095494525	3927.5291506476
4	154760	28143.440994621982	3923.7146710205
4	154765	28144.105413147756	3920.1600632908
4	154788	28149.907447192892	3922.0078037898
4	154851	28162.462742402965	3933.2935730552
4	154861	28163.717056382948	3928.6980407502
4	154866	28163.806687366187	3926.4928111834
4	154880	28166.199689506933	3913.4816082914
4	154902	28169.500259834249	3916.6569237468
4	154912	28170.175531590255	3916.4543683797
4	155736	28359.779011718179	4105.362597079
4	155745	28360.639256409715	4100.1212963487
4	156071	28449.818341605976	4183.8925714255
4	156078	28450.014042845776	4176.7863979303
4	156083	28450.315084317106	4175.8393198885
4	156091	28451.99722141557	4176.6031764854
4	156102	28452.778198598546	4175.6542240488
4	156110	28454.383597837188	4167.5887599596
4	156127	28459.838301392273	4167.9383600513
4	156185	28465.916697855459	4171.205849122
4	156210	28469.341103318781	4169.8165200686
4	156217	28470.671760383708	4164.6504899937
4	156227	28472.222816822662	4165.1471153048
4	156242	28474.762664519386	4166.1245334458
4	156249	28476.721665090879	4164.8560012414
4	156254	28476.813455785647	4163.6580427642
4	156261	28477.151524519989	4160.5986639211
4	156268	28477.479495833014	4160.3321846237
4	156287	28484.036167093802	4165.9381481184
4	156346	28494.815944075791	4175.6450990743
4	156768	28586.768288684356	4260.6800763748
4	156773	28587.148439223817	4256.1302993649
4	156778	28587.254644542283	4255.0424499501
4	156788	28588.143400167657	4253.8861106799
4	156797	28589.561848278691	4251.3368016129
4	156839	28603.22575306695	4264.2050835634
4	156848	28605.268448616197	4262.2777654948
4	156863	28608.5529529553	4265.2782025073
4	156873	28609.250171909759	4265.6939051866
4	156878	28609.313675830296	4265.5459509745
4	156885	28610.315717394626	4253.2893959039
4	156892	28610.421742920636	4250.8898983329
4	156906	28611.967765649841	4246.5405487307
4	156914	28618.204827696675	4250.2688158399
4	156926	28619.778517453578	4239.1905715153
4	156939	28624.982725347608	4237.7870531261
4	156957	28627.387532701792	4239.1451478402
4	156962	28628.729672527921	4239.2782013231
4	156969	28628.919025028059	4217.1590714704
4	156993	28632.059537404004	4213.9376573387
4	157010	28633.589357261825	4213.3333720042
4	157015	28634.560232767387	4212.1550410426
4	157021	28636.194255170952	4212.6837742139
4	157030	28637.935943174965	4211.8891363342
4	157105	28654.236087173141	4223.5785115991
4	157117	28655.843666130373	4221.6322996297
4	157123	28656.402328520854	4220.9732835445
4	157133	28659.08754914037	4215.5243951811
4	157155	28663.824051068588	4218.1423520579
4	157185	28668.430869436718	4213.8513138252
4	157197	28669.973047681543	4209.7079736928
4	157227	28674.21352571485	4210.4684727163
4	157237	28675.622176301847	4211.5322843051
4	157242	28676.351456864013	4212.1114729403
4	157248	28677.518185096231	4212.4650397321
4	157253	28679.473356386474	4211.4160805666
4	157261	28680.531504734938	4209.2926415315
4	157318	28689.938220793203	4212.4995597473
4	157325	28690.573150694259	4209.4115062391
4	157524	28733.855751587307	4243.9688670173
4	157534	28734.22195112265	4240.7713753562
4	157545	28735.751562070207	4241.0566258048
4	157571	28740.147514791106	4227.0259359536
4	157577	28741.068186253734	4223.9901378874
4	157584	28741.378613831629	4218.5607606927
4	157595	28743.093368412628	4213.5189173266
4	157612	28743.531935047336	4210.599991348
4	157626	28747.814328591681	4204.6401625862
4	157633	28749.067556811861	4205.3791138048
4	157861	28792.050974039617	4236.4324943504
4	157866	28792.118930841065	4233.6802461648
4	157887	28795.240328533577	4229.1831007213
4	157906	28796.630719772287	4223.6836383598
4	157916	28798.976379826271	4222.0408748379
4	157930	28800.663138218928	4223.3376266545
4	157941	28803.27174488425	4223.1660642581
4	157946	28803.886993664778	4216.7426286027
4	157951	28804.703102599435	4215.659999516
4	157956	28807.562545361057	4216.727901616
4	157968	28810.339669310893	4214.9300084033
4	158016	28816.686736966559	4220.1772785158
4	158034	28818.743247937089	4219.1336665708
4	158046	28819.480847871044	4202.7811139421
4	158055	28820.859322703213	4199.9021812289
4	158065	28821.35229036076	4199.5204068459
4	158072	28821.841284066957	4199.0420506665
4	158084	28826.422934741795	4195.4451196328
4	158094	28828.20737750274	4174.0555177653
4	158103	28829.69318383253	4174.8108628885
4	158121	28831.223614037843	4173.9841846897
4	158133	28833.369869243532	4173.2225078322
4	158138	28834.53634102731	4159.4402905305
4	158162	28838.296245678448	4163.1455910534
4	158479	28903.917727236975	4224.1886851779
4	158488	28905.327431642638	4218.9901571853
4	158499	28906.376020072379	4213.5374079789
4	158504	28906.553523166304	4207.7007033918
4	158513	28909.387431675494	4204.2072301141
4	158520	28911.453843692971	4205.6738353979
4	158525	28912.22367392735	4203.91350777
4	158530	28912.926396275745	4204.514262131
4	158545	28917.127903228199	4208.123623173
4	158613	28928.805877414386	4217.4947800146
4	158625	28930.132418991227	4216.9148638571
4	158660	28935.186092235349	4215.0698821059
4	158674	28937.427004617862	4216.4021473264
4	158693	28940.022072024625	4214.3449395235
4	158698	28940.026052627976	4213.6020853844
4	158708	28942.349506491074	4212.0077810739
4	158716	28943.353747116055	4205.133956299
4	158727	28944.51684367295	4195.9144471354
4	158820	28960.039797793864	4210.0124839113
4	158826	28960.44387650052	4209.7863634136
4	158834	28961.697139358746	4210.9576646716
4	158839	28962.098333845527	4211.1244408988
4	158849	28962.684784913816	4191.8850933222
4	158861	28964.157014683974	4193.1634643932
4	158870	28965.536069939314	4194.1484163888
4	158906	28971.089996573947	4198.1144046979
4	159116	29018.273409906269	4242.4389582809
4	159121	29018.406522668691	4242.449579873
4	159128	29019.99372957118	4243.236633243
4	159145	29026.795342370826	4248.1285797136
4	159168	29031.986456854426	4253.079920869
4	159278	29046.424462750096	4266.9691113082
4	159308	29053.264254894328	4273.1926923123
4	159313	29053.906103725085	4273.4271345221
4	159320	29054.219718009012	4267.759518007
4	159416	29072.110589458239	4263.2160731786
4	159421	29072.391159670539	4259.5438800727
4	159430	29073.688719814878	4249.9596904415
4	159482	29080.950281356707	4255.8042189412
4	159487	29081.061065786275	4253.9122615093
4	159495	29082.506038842001	4251.2714066091
4	159507	29084.538557428452	4249.3764957836
4	159843	29156.413145718528	4313.8159398803
4	159850	29158.222375127859	4314.321744806
4	159860	29158.463441060053	4313.5770123082
4	159867	29160.178844926271	4313.1630104535
4	159898	29168.27547884465	4320.1196012239
4	159910	29169.208956108573	4316.926967525
4	159915	29169.378708793838	4310.1573734271
4	159920	29170.741361331738	4309.0291480874
4	159947	29182.461228901521	4318.2715983166
4	160356	29265.238539541218	4398.9027177583
4	160373	29270.085167227435	4401.8479052541
4	160443	29281.458110203797	4409.3977127648
4	160460	29283.963335311842	4406.0831686501
4	160469	29284.959261750354	4402.0893446215
4	160474	29285.860108415661	4401.6621589515
4	160487	29287.76552627227	4403.388593097
4	160847	29364.588522134011	4472.3467766065
4	160854	29364.939466860045	4466.0410300056
4	160862	29365.045726527679	4461.7554720053
4	160875	29366.14616539423	4459.3140950031
4	160884	29369.33888981313	4456.1809132257
4	160899	29374.626754955008	4455.2685038897
4	160934	29382.550627872484	4463.0946951987
4	160939	29382.656235305874	4461.1470814995
4	160949	29384.515586512588	4448.8681232166
4	160997	29389.850161968096	4452.6651426253
4	161134	29411.450324223095	4473.8055398696
4	161144	29413.011475561323	4473.0982545746
4	161219	29426.845979796631	4482.9055093687
4	161224	29426.961769175595	4475.1407335463
4	161233	29428.111961674904	4465.1908311443
4	161239	29428.355517164764	4464.9459718955
4	161246	29429.372138959249	4463.7745510382
4	161252	29430.626105163279	4463.966018588
4	161257	29430.785237663461	4461.5323637141
4	161276	29434.492197631366	4459.2868651018
4	161326	29439.450521562433	4461.8855991261
4	161337	29441.020843012792	4463.0995326931
4	161352	29443.701394951911	4465.4965257598
4	161418	29458.02972114013	4472.4091332476
4	161425	29458.655195646927	4466.2007393312
4	161445	29460.830808017366	4463.1688680649
4	161450	29461.362771734769	4460.2420338042
4	161455	29461.458947425631	4456.0444996895
4	161465	29464.495607366402	4457.14976798
4	161502	29468.641549548577	4450.3826863974
4	161508	29469.847506020463	4449.8038421203
4	161517	29470.918466114396	4450.4231239981
4	161529	29472.675315574326	4452.1098502217
4	161537	29475.559969711214	4443.4621608888
4	161550	29477.428404444273	4443.5249366079
4	161574	29483.893384145834	4448.8099936659
4	161605	29488.854151874062	4451.2834332761
4	161621	29489.878960556038	4451.1165569286
4	161629	29490.710609127713	4450.7837800717
4	161686	29503.598711704827	4463.4164266915
4	161694	29504.464234261752	4452.0853494407
4	161705	29505.759652520002	4446.0391080014
4	161730	29508.100985093017	4448.1903362993
4	161735	29508.354540108481	4447.643464166
4	161742	29509.243813172302	4448.1774361213
4	161749	29512.018709983228	4448.2047733409
4	161759	29514.17215115202	4446.8996170831
4	162165	29585.392603683768	4511.5527279197
4	162303	29615.700737255975	4533.6971327386
4	162309	29616.022722342595	4533.2682389404
4	162320	29618.094890765806	4528.4924895002
4	162357	29625.941513553427	4530.15136043
4	162364	29626.561143492681	4528.3126887665
4	162376	29627.78893102988	4515.7327880451
4	162411	29631.546993554532	4513.7485986662
4	162418	29631.814735379449	4512.7748564624
4	162426	29635.204910354689	4509.8236620792
4	162436	29635.42883943138	4509.4287272444
4	162443	29639.186797805369	4511.3592032439
4	162448	29640.696559281411	4509.5174702636
4	162458	29642.120466854937	4501.7519753205
4	162475	29645.281673606571	4503.2005642264
4	162483	29646.346020234956	4503.8292836576
4	162493	29647.203086097197	4502.0081136204
4	162503	29649.469349603876	4503.8667953939
4	162519	29650.68164110177	4503.9271997434
4	162524	29651.16730886241	4501.3257388953
4	162529	29651.470868158121	4495.3253401294
4	162542	29654.319143527308	4495.2925416672
4	162576	29659.292836371476	4498.4370409178
4	162585	29659.947116370935	4495.0207136893
4	162610	29664.217729115715	4493.1489644575
4	162619	29667.15809397256	4495.8280810838
4	162781	29703.479029259796	4526.76999965
4	162791	29706.157044077224	4524.7386816277
4	162798	29708.025908557734	4522.3895627247
4	162803	29708.585933071471	4521.9934708246
4	162812	29710.989512161443	4521.5655652366
4	162866	29715.242347942149	4523.6727399513
4	162871	29715.471571265406	4521.8533085424
4	162879	29716.696921186697	4522.5942502548
4	162888	29718.653149737945	4517.9422417185
4	162907	29719.851255652456	4513.6530767359
4	162912	29720.048102368161	4512.0073841396
4	162917	29721.351934333238	4510.8605546594
4	162927	29722.607237394979	4511.9089839075
4	162945	29724.576495754333	4510.9559763309
4	162954	29727.024642811135	4508.6647919496
4	162980	29731.245232667228	4511.0565863874
4	162989	29733.377810753986	4510.3985880199
4	163001	29734.715403395953	4510.6296964284
4	163016	29736.654503921706	4503.9521489159
4	163031	29738.495960700421	4504.8179991073
4	163052	29742.044646821666	4506.7085544007
4	163063	29743.165080283752	4504.8813898457
4	163081	29744.900485038793	4504.02619909
4	163099	29746.908530626433	4498.1598018993
4	163104	29746.914399042537	4489.5108950265
4	163112	29747.899527373327	4485.7770098662
4	163121	29749.298447335878	4486.9502091927
4	163131	29750.728667452243	4488.2647276645
4	163151	29756.13413154451	4472.8147644855
4	163197	29763.198945577405	4478.8218830767
4	163210	29764.341616161717	4478.2799335065
4	163237	29767.264801053342	4477.4257690445
4	163277	29775.728218224962	4485.7127344656
4	163283	29776.005172418393	4484.7321472029
4	163288	29776.206958478603	4484.223456237
4	163295	29778.338717097803	4486.0164870045
4	163300	29779.001720477729	4484.2837217711
4	163311	29783.600422471451	4487.4444662466
4	163367	29789.428986645033	4486.7007676737
4	163375	29790.430593838569	4479.7733204223
4	163387	29791.25765151114	4478.4417119255
4	163392	29791.296000267262	4477.6745200989
4	163397	29791.368062080617	4471.5281737269
4	163405	29793.024492213474	4468.8866215174
4	163442	29798.855506144792	4471.9849540063
4	163454	29801.331547633285	4470.218559732
4	163461	29801.967806973182	4469.934716179
4	163472	29803.605641378308	4469.416649205
4	163505	29808.485750654061	4473.7602905997
4	163512	29808.719851029497	4468.6822954243
4	163519	29808.998967043521	4466.6315377825
4	163526	29810.379690849218	4462.5011984433
4	163531	29811.002778230514	4461.1924989858
4	163537	29811.96248172623	4461.776436514
4	163548	29812.661349756702	4462.3158571512
4	163574	29815.894190798927	4464.6750494488
4	163583	29816.855168873918	4459.3992345011
4	163603	29818.119662834421	4459.2413573292
4	163608	29818.159400617508	4458.2376463607
4	163617	29819.740398150496	4448.1232051422
4	163643	29823.268694696862	4450.8083406074
4	163654	29824.288740635251	4450.5445691352
4	163692	29828.204151909221	4453.5295230543
4	163701	29831.016795724554	4447.8986370906
4	163799	29847.714993995199	4454.6106869666
4	163810	29851.175976106962	4457.8769129207
4	163896	29861.92706577699	4467.3928411431
4	163982	29876.373113704091	4479.6733655397
4	163987	29876.454999135769	4479.6557661544
4	163992	29877.225337058813	4473.1788201519
4	164001	29878.236587239756	4456.4732561375
4	164010	29880.750939324429	4458.0802982776
4	164036	29884.980771127833	4461.7952293257
4	164042	29886.718770369763	4462.4693895484
4	164050	29887.784009625368	4463.0906077592
4	164055	29890.382293353249	4460.2792046874
4	164064	29892.64897555339	4461.0540549498
4	164085	29895.088345386753	4459.8712624042
4	164091	29895.653197969796	4453.969647625
4	164100	29897.364663810229	4449.1579536417
4	164112	29898.521301959571	4447.1273578522
4	164117	29899.485165738202	4435.8134184095
4	164125	29900.63085681224	4434.7445871346
4	164135	29901.083935181605	4426.3066036957
4	164142	29904.35576293885	4428.6567108108
4	164152	29905.816468568265	4421.5990673645
4	164161	29908.08713707407	4421.006580808
4	164192	29916.251451324891	4424.5409107297
4	164238	29921.151541390869	4425.5012261369
4	164244	29921.823891771805	4421.6967004444
4	164256	29924.011746817537	4423.803945008
4	164262	29924.652427645426	4423.4843497434
4	164267	29924.806910935364	4418.9701261827
4	164273	29925.949638517057	4408.0810230111
4	164278	29926.659109773136	4407.1746073474
4	164287	29927.850761895791	4403.2358654634
4	164303	29930.013697930804	4399.4721169188
4	164320	29935.921099718415	4402.3385193673
4	164342	29939.526097646632	4405.3428821552
4	164354	29940.565881825723	4399.6913322606
4	164359	29940.591264769091	4398.9241346817
4	164365	29941.211061390133	4398.8981642267
4	164371	29944.458733154064	4394.2402697479
4	164379	29945.587317316827	4392.1892334791
4	164394	29949.67607557867	4390.5344325549
4	164399	29950.004366721767	4388.8586570531
4	164404	29950.799505234564	4384.7512655445
4	164409	29951.930424207979	4382.9285152723
4	164420	29955.772544970976	4382.6190382083
4	164437	29956.70857851499	4382.9576158116
4	164446	29957.173446280005	4376.2238169295
4	164481	29963.98451645564	4380.9676712821
4	164498	29965.706659813035	4381.3932632886
4	164508	29966.322095679715	4351.9538682091
4	164514	29966.519196671256	4326.9684527367
4	164521	29966.689616471157	4325.7221187498
4	164541	29970.287460488788	4322.2289302879
4	164595	29982.15671012233	4331.987134357
4	164600	29982.776268983175	4331.3182325589
4	164611	29987.652159002963	4333.5088539323
4	164630	29989.810832629634	4335.5584626394
4	164635	29989.816328991104	4332.3782342103
4	164640	29990.332121944154	4327.5954030282
4	164647	29992.834436876392	4325.2984971713
4	164662	29996.715323707717	4325.9676288839
4	164675	29998.601520318242	4316.6357228616

