version 2
run First-n5-2-20191016-14:52:39-8276
attr configname First-n5
attr datetime 20191016-14:52:39
attr experiment First-n5
attr inifile omnetpp.ini
attr iterationvars ""
attr iterationvarsf ""
attr measurement ""
attr network org.omnetpp.queueing.Pizza
attr processid 8276
attr repetition 2
attr replication ""
attr resultdir results
attr runnumber 2
attr seedset 2
param **.PS.maxInventoriedPS 5
param **.U1.interArrivalTime exponential(2s)
param **.U2.interArrivalTime exponential(4s)
param **.PS.serviceTimeForInventoryU1 exponential(0.8s)
param **.PS.serviceTimeForInventoryU2 exponential(1.0s)
param **.PS.serviceTimeDirectU1 exponential(1.2s)
param **.PS.serviceTimeDirectU2 exponential(1.4s)
param **.PS.probabilityProducing 0.5
param **.CS.serviceTimeU1 exponential(0.8s)
param **.CS.serviceTimeU2 exponential(1.0s)

vector 0 Pizza.EntryQueueU1 queueLength:vector ETV
attr interpolationmode sample-hold
attr title "queue length, vector"
vector 1 Pizza.CS queueLength:vector ETV
attr interpolationmode sample-hold
attr title "queue length, vector"
vector 2 Pizza.EntryQueueU2 queueLength:vector ETV
attr interpolationmode sample-hold
attr title "queue length, vector"
vector 3 Pizza.sink lifeTime:vector ETV
attr interpolationmode none
attr title "lifetime of arrived jobs, vector"
attr unit s
vector 4 Pizza.sink lifeTimeU2:vector ETV
attr interpolationmode none
attr title "lifetime of arrived jobs, vector"
attr unit s
0	0	0	0
0	7	1.145383979254	1
0	12	4.959248770767	0
0	28	7.048072724609	1
0	29	7.153771736524	0
0	35	7.337153272846	1
0	38	7.744913506768	2
0	39	7.860824720863	1
0	45	8.343068566861	2
0	46	8.406174147506	1
0	51	8.472571207911	0
0	55	9.389228817316	1
0	57	10.796618395726	2
0	63	11.501467403698	3
0	65	12.619127755961	4
0	72	12.866161618152	5
0	75	13.211259494398	4
0	81	13.378559445049	5
0	82	13.410342701202	4
0	89	14.293385373831	3
0	97	15.100782772038	4
0	100	16.312615939561	3
0	104	16.508134465713	4
0	106	18.243155519684	5
0	108	18.497651694454	6
0	110	18.851838835295	7
0	114	19.173502554717	8
0	117	22.500210667442	7
0	123	22.998389919513	8
0	124	23.128542205836	7
0	128	23.755931547674	8
0	134	24.354720798551	9
0	135	24.482525469964	8
0	145	27.351938245359	9
0	146	27.698324919738	8
0	150	28.264431299076	9
0	153	29.975263186306	8
0	159	30.460214551157	7
0	163	32.070043566998	8
0	169	37.737042634264	9
0	170	37.858755137447	8
0	175	40.122166977605	7
0	179	40.158648366116	8
0	181	40.52944199695	9
0	185	41.503221302662	8
0	190	41.540625422277	7
0	195	45.771330802125	6
0	203	46.98294198389	7
0	204	47.03096409982	6
0	208	47.764709799372	7
0	212	48.366230243079	8
0	213	48.390271508003	7
0	217	49.367760680342	8
0	220	50.535389666197	7
0	225	51.117987908559	6
0	230	51.837150540552	5
0	237	53.898758065269	4
0	242	54.290953734122	3
0	248	54.589972898463	4
0	249	54.840803197919	3
0	256	55.829682332767	2
0	266	59.507879366971	3
0	267	59.677395051291	2
0	275	60.469419530295	3
0	277	61.201102066254	2
0	282	61.394388189032	1
0	287	62.532973851551	0
0	299	66.802255358657	1
0	301	66.978415714979	0
0	313	68.513368944451	1
0	315	69.018160236113	0
0	321	69.433024238642	1
0	322	70.335087982566	0
0	326	71.226415063729	1
0	328	72.076438612436	2
0	334	73.693731894282	3
0	336	74.217724733406	2
0	342	74.7822742465	3
0	343	76.215814076922	2
0	349	76.657518340633	3
0	350	77.320688115059	2
0	354	78.611528458358	3
0	356	79.000427248717	4
0	359	80.656126304018	3
0	364	81.867421852869	2
0	368	82.638654228853	3
0	370	83.288561691556	4
0	373	83.475525764575	3
0	379	83.852786677332	4
0	384	84.223393867027	3
0	392	85.580323174666	2
0	399	85.847310468388	1
0	404	86.406734730386	0
0	416	87.67778137293	1
0	419	87.991581116526	2
0	422	88.519820174883	3
0	424	88.872567773369	4
0	427	89.224769425246	5
0	432	91.894877824667	4
0	439	92.675864001812	3
0	446	92.846869932633	4
0	448	94.016249047665	3
0	454	94.041102728742	2
0	460	94.753955954665	1
0	465	94.808291002198	0
0	478	95.285905948295	1
0	480	95.347583789818	2
0	481	95.383804567285	1
0	486	95.38587329936	0
0	503	99.526833495161	1
0	504	100.486693340946	0
0	512	100.702874225347	1
0	513	101.053492853221	0
0	526	102.194844938731	1
0	528	102.214888855618	2
0	529	103.347877496266	1
0	534	103.356565237198	0
0	540	105.221335587156	1
0	543	105.778560344517	2
0	544	105.869127236518	1
0	551	106.972976368635	0
0	557	107.092029456418	1
0	558	107.106354500105	0
0	564	108.162471198543	1
0	565	108.617065175264	0
0	569	108.858025447283	1
0	572	109.838989761114	0
0	585	111.526192506502	1
0	586	111.692063702825	0
0	606	115.216483681913	1
0	608	115.364606711533	0
0	622	116.607649792223	1
0	623	117.141258208484	0
0	634	118.871480283485	1
0	637	119.714181198767	2
0	639	119.995913899991	3
0	643	120.853918617972	2
0	649	121.081603906741	3
0	651	121.940100223668	4
0	653	122.432703004388	3
0	658	122.494433191934	2
0	664	122.599498647946	3
0	667	122.809870874161	2
0	673	123.060322647726	3
0	674	123.230892578069	2
0	679	123.266161963203	1
0	684	124.100969189296	0
0	688	126.313634900319	1
0	690	126.812818432208	2
0	695	129.49801072993	1
0	699	129.634099158297	2
0	702	130.916221286574	1
0	707	131.173381745746	0
0	711	132.13069608782	1
0	714	132.421935077477	0
0	718	134.099535266481	1
0	720	134.42146102105	2
0	723	135.7365505008	1
0	727	136.478434721719	2
0	729	136.5627244538	3
0	733	137.521354404213	4
0	735	137.914138148589	5
0	738	138.216152973237	4
0	745	139.223340471649	3
0	752	143.787344256193	2
0	758	144.584783217502	3
0	761	145.236429752573	2
0	766	145.625396192991	1
0	771	146.476229868643	0
0	779	147.458571622775	1
0	780	147.462272419544	0
0	821	150.112248907902	1
0	823	150.374519345585	0
0	829	150.46892216979	1
0	832	150.952418764318	0
0	839	154.072127931281	1
0	840	154.550339674943	0
0	846	154.983182777139	1
0	847	155.498074726335	0
0	851	156.503402317343	1
0	858	157.534391791835	2
0	862	159.506817426208	1
0	868	159.582915764186	2
0	870	159.959512002151	1
0	878	160.998221717226	0
0	905	164.055877336302	1
0	906	164.441016674096	0
0	912	164.494589609786	1
0	913	164.871729251282	0
0	925	165.422700074091	1
0	926	165.482290143774	0
0	938	166.488217688656	1
0	942	167.886575460732	2
0	943	168.117259701285	1
0	951	168.709647327922	2
0	953	169.20346206846	3
0	954	169.736728411739	2
0	961	170.212693640905	1
0	966	170.566627111113	0
0	973	170.731037868267	1
0	977	171.317705066596	2
0	978	171.66151268563	1
0	984	171.895129153914	0
0	990	172.163883973356	1
0	991	172.444427954877	0
0	1012	175.340365059023	1
0	1018	176.122095026989	2
0	1019	176.214929613174	1
0	1025	176.371193094052	2
0	1026	177.060251564508	1
0	1032	178.084045327144	0
0	1038	178.43980047654	1
0	1039	178.839569746695	0
0	1056	179.801874967432	1
0	1057	181.099017373999	0
0	1073	181.929184248624	1
0	1075	182.862421071617	0
0	1082	183.335829490345	1
0	1083	183.386675669263	0
0	1106	186.32624444587	1
0	1107	187.141101837652	0
0	1124	189.781701874911	1
0	1125	189.937429819496	0
0	1141	192.816855789203	1
0	1142	193.259849919081	0
0	1148	193.351467963701	1
0	1151	193.507929382673	0
0	1155	194.8817986017	1
0	1159	195.596897213423	2
0	1161	196.525084463113	1
0	1165	197.297960722062	2
0	1169	197.869952480214	3
0	1170	198.039801591912	2
0	1175	198.699871995063	1
0	1180	198.94267967971	0
0	1196	202.043933569217	1
0	1199	203.111601839083	0
0	1205	203.476555268352	1
0	1209	204.998726023205	2
0	1221	208.281979040751	3
0	1224	210.951523044414	2
0	1234	212.399050656977	1
0	1240	212.92845252467	0
0	1246	213.087451015526	1
0	1248	213.143723902002	2
0	1249	213.262863228494	1
0	1256	214.843798369321	0
0	1264	215.190627756493	1
0	1265	215.339132668633	0
0	1271	217.080620185545	1
0	1273	217.538295222697	2
0	1274	217.605785319366	1
0	1281	219.600175181018	2
0	1284	220.424757422003	1
0	1288	221.228405031904	2
0	1291	221.967464008081	1
0	1296	222.546037616906	0
0	1302	223.144419155228	1
0	1304	223.386876436562	2
0	1305	224.007306800291	1
0	1309	225.047597112009	2
0	1311	225.513921802836	3
0	1313	225.910074449941	4
0	1316	226.700665692365	3
0	1321	227.299266729043	2
0	1327	227.492979401543	3
0	1328	227.748146405105	2
0	1335	229.026496327235	1
0	1344	230.599712284462	0
0	1350	230.813743710387	1
0	1351	231.175266021333	0
0	1355	232.313003210007	1
0	1359	234.158349292733	2
0	1362	235.048679452054	1
0	1368	236.290254150851	2
0	1372	237.705301899466	1
0	1377	240.122860330838	0
0	1381	240.518932306507	1
0	1388	240.855617003287	2
0	1390	241.067641759179	3
0	1392	241.489176904701	2
0	1398	242.552868560861	3
0	1399	242.809246141999	2
0	1404	242.851168350563	1
0	1411	244.240700128732	2
0	1413	244.289172187193	3
0	1418	246.001235875096	2
0	1423	246.27879961562	1
0	1431	248.185861979892	0
0	1485	257.298107146095	1
0	1487	257.428017362504	0
0	1532	264.985302097244	1
0	1533	265.248071991538	0
0	1541	265.640442363632	1
0	1542	266.082847527668	0
0	1556	267.357635865491	1
0	1560	268.004081127548	2
0	1561	268.056284903422	1
0	1566	268.068684086474	0
0	1572	268.220921016771	1
0	1575	268.309286479561	2
0	1577	268.364836535923	1
0	1583	268.467867916178	0
0	1628	274.454147879199	1
0	1632	275.125055924446	2
0	1633	275.158600627298	1
0	1640	275.418800419846	0
0	1662	277.747689706677	1
0	1663	277.943334898556	0
0	1682	280.130827564088	1
0	1684	280.428938136335	2
0	1689	282.516281162456	3
0	1690	282.624657402643	2
0	1695	282.694000509021	1
0	1705	284.355468300592	0
0	1721	285.397361795714	1
0	1722	285.683221854771	0
0	1734	288.782778549339	1
0	1737	289.750591489345	2
0	1738	289.934556868778	1
0	1743	290.235905309998	0
0	1773	294.910500018227	1
0	1775	296.17391643202	0
0	1800	298.445028877732	1
0	1803	298.684965256909	2
0	1807	300.086341472345	3
0	1810	300.528264783607	4
0	1812	300.606481041941	5
0	1814	300.982542893996	4
0	1821	301.025794974382	3
0	1829	301.533354445057	2
0	1835	301.779221525603	3
0	1836	302.14457875977	2
0	1844	302.611704600236	1
0	1849	302.826688211815	0
0	1855	303.101040559053	1
0	1856	303.113795095804	0
0	1879	306.307083868872	1
0	1881	306.985233202152	0
0	1888	307.476184339542	1
0	1889	307.55371317862	0
0	1906	307.708381752786	1
0	1908	308.213650466153	0
0	1915	308.97537711974	1
0	1916	309.268541169476	0
0	1929	311.466214762504	1
0	1933	312.890793627668	2
0	1937	314.512936326576	1
0	1942	314.562329450852	0
0	1949	315.307705628511	1
0	1951	315.794184359313	2
0	1952	316.823734443662	1
0	1958	317.748837253929	0
0	1972	319.426042621291	1
0	1973	319.513142899922	0
0	1979	320.405570966758	1
0	1981	320.728546611302	2
0	1982	320.955965269908	1
0	1987	322.81992159752	0
0	2001	324.116588439856	1
0	2002	324.251892437007	0
0	2008	324.596257096096	1
0	2010	324.835030533657	2
0	2014	325.997924315648	1
0	2019	326.139609670844	0
0	2039	329.004840740449	1
0	2041	329.890256562498	0
0	2063	331.016389858589	1
0	2065	331.057947856606	2
0	2067	331.40716040779	3
0	2069	331.619200426163	4
0	2072	333.200392721033	3
0	2077	333.292155231767	2
0	2083	334.433577014501	1
0	2089	334.964531920814	2
0	2092	335.117561954012	3
0	2094	335.507307009582	4
0	2098	335.63272196882	5
0	2099	336.380864179676	4
0	2105	336.83768613702	3
0	2111	338.79706092833	4
0	2112	339.002120633657	3
0	2116	339.539695433714	4
0	2119	342.056871206712	3
0	2125	342.65984997973	2
0	2132	343.546798167308	3
0	2134	345.531529684757	4
0	2137	346.66157586477	3
0	2143	346.692639540132	4
0	2144	346.836177169589	3
0	2148	347.276691690269	4
0	2152	348.540994060572	5
0	2153	349.734901523638	4
0	2160	351.36562618239	3
0	2169	355.219663824377	2
0	2173	357.622604548655	3
0	2180	359.110233350556	4
0	2181	359.116886804547	3
0	2186	359.464732768217	2
0	2191	360.391756573895	1
0	2196	360.551937045919	0
0	2203	361.37436788961	1
0	2204	361.486245934359	0
0	2220	362.552744424433	1
0	2223	363.780511632726	2
0	2224	364.480705779101	1
0	2231	365.588920500341	0
0	2253	368.608034178404	1
0	2256	369.630170594617	0
0	2301	378.141509309159	1
0	2305	379.148496287337	0
0	2311	379.425563023019	1
0	2314	380.934780838838	0
0	2320	380.939171630216	1
0	2324	382.391135187114	0
0	2331	382.478403309547	1
0	2332	382.596647056833	0
0	2352	385.146860870447	1
0	2354	385.73067734996	0
0	2399	391.426252918017	1
0	2401	392.01598670574	2
0	2403	392.59134451346	1
0	2408	392.850262356764	0
0	2422	394.370288462544	1
0	2423	395.085336103148	0
0	2431	396.002550459447	1
0	2432	396.332613489695	0
0	2502	405.100655315429	1
0	2503	405.209284284208	0
0	2510	405.760925726634	1
0	2511	406.186589041224	0
0	2523	407.380394580059	1
0	2527	408.525206003138	0
0	2569	411.105525053686	1
0	2573	411.697649698801	0
0	2595	414.785327094603	1
0	2596	419.244913850566	0
0	2656	432.054542651698	1
0	2657	432.27005995398	0
0	2664	432.670363543963	1
0	2665	433.07183733695	0
0	2672	434.335855949915	1
0	2674	434.370554275196	0
0	2705	441.088707131982	1
0	2707	441.360228492829	2
0	2708	442.267888945399	1
0	2714	442.320977508545	2
0	2715	442.338403392062	1
0	2720	443.073002699518	0
0	2724	443.85742554957	1
0	2729	445.992139082694	0
0	2737	447.692736343212	1
0	2738	447.835155801558	0
0	2790	462.75701387582	1
0	2792	462.923656891566	2
0	2796	464.753134238915	1
0	2802	465.348603056584	0
0	2817	466.556494059441	1
0	2818	466.736506399035	0
0	2832	468.573833337465	1
0	2833	468.59065575902	0
0	2980	502.16232312939	1
0	2981	502.602725528491	0
0	3035	510.693731534371	1
0	3036	510.963325517583	0
0	3057	513.025009533716	1
0	3059	513.06243451561	2
0	3064	513.489475218038	3
0	3066	514.114935678267	2
0	3073	514.97611814464	1
0	3078	515.542784401689	0
0	3084	516.015890830696	1
0	3085	516.028607709509	0
0	3117	524.314895643301	1
0	3118	524.451594943793	0
0	3141	529.319164908124	1
0	3143	529.390566908478	0
0	3192	538.949989835467	1
0	3194	539.212708423351	2
0	3196	539.464694938991	3
0	3198	540.111051491529	4
0	3199	541.375068655174	3
0	3205	541.709200338836	2
0	3210	542.383972052588	1
0	3219	543.839285185975	0
0	3225	544.327614425063	1
0	3226	548.15775681999	0
0	3232	549.185236273317	1
0	3234	549.276768325837	2
0	3235	549.296996201283	1
0	3241	549.856307359646	2
0	3242	551.143521790995	1
0	3250	551.498903731149	2
0	3252	551.583462359373	3
0	3254	552.047559850184	4
0	3256	552.163689354318	5
0	3258	552.824079168228	4
0	3265	553.536019435558	3
0	3270	553.895617303454	2
0	3275	554.427516712961	1
0	3280	554.546870827226	0
0	3291	558.884114895481	1
0	3294	559.200070060429	2
0	3300	562.062653275955	1
0	3308	562.840565878559	2
0	3310	563.251992248036	3
0	3313	564.744134200288	2
0	3319	566.322163700039	3
0	3321	566.908375062966	4
0	3322	568.038297062158	3
0	3329	569.121957751321	2
0	3335	570.167956909458	3
0	3338	570.432058631486	2
0	3342	570.834218910085	3
0	3347	575.218325938384	2
0	3352	575.307441060556	1
0	3358	575.441056181453	0
0	3364	575.536403352837	1
0	3365	576.033792761732	0
0	3371	576.406918019019	1
0	3372	578.124069519511	0
0	3378	579.592416583245	1
0	3379	579.646161940159	0
0	3413	583.065149344463	1
0	3414	583.182287009609	0
0	3438	585.197778148211	1
0	3445	588.915554535955	0
0	3451	589.843536006551	1
0	3453	590.467585222191	2
0	3458	591.334416827559	3
0	3459	591.545627092779	2
0	3464	592.062365393407	1
0	3470	593.641929982502	0
0	3482	594.408427622156	1
0	3483	594.583768575864	0
0	3521	601.734929722346	1
0	3524	602.230002451339	2
0	3525	602.440319006825	1
0	3530	603.599300104928	0
0	3554	604.696666693301	1
0	3556	605.993964086968	0
0	3576	609.394505688208	1
0	3577	610.223833861223	0
0	3602	617.254996894272	1
0	3609	620.298977997685	0
0	3672	631.905041145336	1
0	3673	632.239712457055	0
0	3688	633.960432716856	1
0	3690	634.007317042044	2
0	3693	634.751747537336	1
0	3698	634.806877818093	0
0	3724	639.510857030683	1
0	3729	641.421308086365	0
0	3748	645.961858508978	1
0	3750	646.101935037162	2
0	3753	647.573072565095	1
0	3758	648.24958843276	0
0	3796	652.077381817977	1
0	3809	654.93867155503	2
0	3811	655.144631840712	1
0	3817	655.91655167031	0
0	3823	656.039370167591	1
0	3825	656.07399964533	2
0	3827	656.346066969908	3
0	3829	656.351480242337	4
0	3833	657.045709907889	5
0	3836	658.959349241019	4
0	3841	659.561912803934	3
0	3846	659.777023910681	2
0	3851	659.957003800816	1
0	3856	660.36153141526	0
0	3896	668.416480035201	1
0	3897	668.581079365368	0
0	3944	676.587920104556	1
0	3945	676.728406590471	0
0	3962	679.95798381727	1
0	3963	680.156355398669	0
0	3971	680.737087277747	1
0	3972	680.901001798005	0
0	3980	681.149030140983	1
0	3982	681.985324423842	2
0	3984	682.308768820379	3
0	3985	683.783193156307	2
0	3991	684.061325860731	1
0	3998	684.925560494716	0
0	4033	689.047969346165	1
0	4034	690.341232740406	0
0	4086	696.110042528479	1
0	4087	698.298880895479	0
0	4102	701.37913931766	1
0	4105	701.538092223627	2
0	4106	701.652035790809	1
0	4113	702.65996763375	0
0	4128	705.51823430188	1
0	4130	705.950965973758	2
0	4135	707.711199218962	1
0	4140	707.811700770414	0
0	4154	709.348414798993	1
0	4155	709.478477401714	0
0	4161	710.06997318472	1
0	4162	711.033435216377	0
0	4175	713.770768324871	1
0	4178	713.881310246273	0
0	4239	724.007297062517	1
0	4241	725.386410585446	0
0	4251	726.273219489634	1
0	4252	726.855047294983	0
0	4265	728.380173211663	1
0	4269	728.861088766858	2
0	4273	730.593098043584	1
0	4278	732.042215722024	0
0	4285	732.818197862153	1
0	4288	732.90578073115	0
0	4300	734.233044642595	1
0	4301	734.402603705439	0
0	4307	734.956623841366	1
0	4308	734.96922497943	0
0	4327	735.987376636829	1
0	4328	736.56058087118	0
0	4341	737.530425120522	1
0	4343	738.050068123449	0
0	4365	739.357066317015	1
0	4367	739.829820552124	2
0	4378	742.400646210031	1
0	4384	743.838490102925	0
0	4412	746.848038049934	1
0	4413	746.984281568656	0
0	4438	749.510608362722	1
0	4440	752.8523837533	2
0	4444	754.329223006734	3
0	4446	754.419506883999	4
0	4452	755.659245667122	5
0	4457	757.326107206553	6
0	4459	757.791215818339	7
0	4460	757.936588607643	6
0	4468	759.230115646828	7
0	4469	759.232800279723	6
0	4474	759.777959334257	5
0	4482	760.099299564038	4
0	4488	760.594391420086	5
0	4490	760.639473033399	6
0	4491	760.69050312803	5
0	4498	761.077552595547	4
0	4503	761.942761664585	3
0	4507	762.766660110413	4
0	4511	763.279912159363	5
0	4516	765.239661602881	4
0	4524	766.628194776649	5
0	4528	767.744940424929	6
0	4529	768.838993027522	5
0	4534	768.99856735263	4
0	4539	769.254206086649	3
0	4550	772.152649565201	4
0	4552	773.053053633694	3
0	4557	773.537762817927	2
0	4561	773.875854975763	3
0	4563	773.885262788204	4
0	4565	774.164279968818	5
0	4567	774.513319595911	6
0	4570	775.261917924353	5
0	4574	775.737217245873	6
0	4578	777.548334067147	7
0	4583	778.50448642008	6
0	4589	778.891450115019	7
0	4591	779.057971882011	8
0	4595	779.588539958416	7
0	4600	779.834524749879	6
0	4604	780.198729693845	7
0	4606	780.340880833027	8
0	4609	782.419712744547	7
0	4613	782.741543077043	8
0	4615	782.817088053956	9
0	4618	784.55538106682	8
0	4622	784.948747229765	9
0	4625	785.654208250628	8
0	4630	786.210327467351	7
0	4635	787.12382729479	6
0	4640	787.205902804712	5
0	4645	790.466356759952	4
0	4651	794.210614865799	5
0	4654	794.494597958926	4
0	4658	794.617338020322	5
0	4662	795.150408956127	6
0	4664	795.188239975418	7
0	4665	795.248383449573	6
0	4670	797.338948073603	5
0	4675	799.20742370977	4
0	4682	802.692922667466	3
0	4686	803.481599275181	4
0	4690	804.63405003468	5
0	4692	804.765269261368	6
0	4693	804.850607865261	5
0	4698	806.194090677254	4
0	4704	807.039259859754	5
0	4707	807.340673384953	6
0	4708	807.461868345595	5
0	4713	808.561766918676	4
0	4722	809.898671228118	5
0	4723	810.475739458259	4
0	4728	810.586199434657	3
0	4736	813.40735163207	4
0	4737	813.680959044722	3
0	4741	813.694655052037	4
0	4744	814.964917835452	3
0	4751	815.87433433046	2
0	4755	816.207232102048	3
0	4758	816.615160295382	2
0	4762	817.666713736309	3
0	4764	817.932290638656	4
0	4768	818.893593761517	5
0	4771	820.181824724592	4
0	4778	821.165170267249	5
0	4779	821.314636604499	4
0	4786	821.769970375161	5
0	4788	823.368947081447	6
0	4791	823.722008063849	5
0	4797	824.519861271052	6
0	4798	824.859998861238	5
0	4803	825.638519230379	4
0	4807	826.206916312077	5
0	4810	826.282351945576	4
0	4815	827.287171246822	3
0	4822	827.631777468539	4
0	4823	828.938426098061	3
0	4828	829.209321569788	2
0	4833	830.194144819276	1
0	4838	831.165924499168	0
0	4854	834.263273262823	1
0	4857	835.737611001182	2
0	4864	836.807599218391	1
0	4869	837.053344410459	0
0	4876	837.532413041723	1
0	4878	837.534217487845	2
0	4879	837.663071704698	1
0	4884	838.194970868309	0
0	4916	840.080626919338	1
0	4919	840.33845187399	2
0	4922	841.091521174201	3
0	4923	841.192933657222	2
0	4930	841.600717883535	1
0	4936	841.712972633788	2
0	4939	842.126413865774	3
0	4942	842.852807156795	2
0	4947	843.070236577762	1
0	4952	843.919113861791	0
0	4963	844.291326873272	1
0	4964	844.472613461925	0
0	4979	845.779566043533	1
0	4980	846.368628233611	0
0	4987	847.097347577709	1
0	4988	847.454791918563	0
0	5023	852.453826491621	1
0	5024	852.484691653109	0
0	5031	852.868177609794	1
0	5032	852.870083694791	0
0	5066	855.977068541983	1
0	5070	856.613163894835	2
0	5071	856.715953225247	1
0	5077	857.176674183484	0
0	5107	859.536995299656	1
0	5108	860.59453405728	0
0	5124	866.868330744409	1
0	5126	867.208760089411	2
0	5128	867.347101238162	3
0	5134	870.440720390451	4
0	5137	870.901733259376	3
0	5143	871.173791522623	2
0	5150	871.737141412529	3
0	5152	871.918712950728	4
0	5153	872.154596161572	3
0	5159	873.306609353587	2
0	5165	874.220114849254	1
0	5171	874.47978625169	0
0	5180	875.571886218449	1
0	5181	875.884024674138	0
0	5198	877.674152905896	1
0	5201	878.024168091672	2
0	5204	879.021520435649	3
0	5207	880.244286390387	4
0	5209	880.467904463468	5
0	5212	880.82814190108	4
0	5218	881.544120655504	3
0	5225	882.018895394531	2
0	5230	882.209691265362	1
0	5235	882.546329088471	0
0	5239	883.039088021878	1
0	5248	886.0673820517	0
0	5254	887.132028496878	1
0	5256	887.148402220846	2
0	5258	887.241628264111	3
0	5259	887.319413936346	2
0	5265	887.998664934034	3
0	5267	888.338583605254	4
0	5269	888.395421609725	5
0	5273	890.068740441221	6
0	5275	891.31941232501	7
0	5276	891.707395281447	6
0	5281	891.951833271594	5
0	5286	892.701927922929	4
0	5292	893.568233051688	5
0	5294	893.939800649603	6
0	5296	894.810613118093	7
0	5301	895.882438538679	6
0	5308	897.001398584546	5
0	5313	897.840081294472	4
0	5319	898.640281623931	3
0	5325	898.83512801626	4
0	5330	900.465546935747	3
0	5334	900.877221067796	4
0	5338	900.996701003262	5
0	5340	902.023552664186	6
0	5342	903.386580090296	7
0	5344	903.468536281652	8
0	5345	903.62390052995	7
0	5349	904.749810123298	8
0	5352	905.072656995681	7
0	5356	905.109216540556	8
0	5358	906.076727368291	9
0	5360	906.23610593589	10
0	5366	908.108269730183	11
0	5367	908.720827373811	10
0	5374	909.462136009412	9
0	5384	911.860294972059	8
0	5389	912.124471154047	7
0	5396	914.570862145878	6
0	5402	915.41609118491	5
0	5409	915.88317727632	6
0	5410	915.884988026537	5
0	5420	918.550645503726	4
0	5425	919.232808157569	3
0	5430	919.640352313349	2
0	5435	920.259363517093	1
0	5440	921.061279488653	0
0	5470	923.691733064355	1
0	5471	924.016891315148	0
0	5507	926.83250727132	1
0	5509	928.411849765077	0
0	5528	930.303448545233	1
0	5530	930.730450314552	2
0	5532	931.704084457448	1
0	5539	932.027434395935	0
0	5568	934.435107365064	1
0	5572	935.881460081263	2
0	5575	936.313847824139	3
0	5577	937.167021621438	2
0	5585	939.139238148349	1
0	5591	939.910038784218	0
0	5607	940.953318069238	1
0	5609	941.649396821789	0
0	5628	942.21629543312	1
0	5630	942.688853162791	2
0	5631	942.689099008835	1
0	5637	943.020298483253	2
0	5641	943.355331242568	3
0	5642	943.5821614289	2
0	5648	944.834416565542	1
0	5653	945.12889840603	0
0	5702	950.596152954623	1
0	5703	950.764190959018	0
0	5709	951.314632252336	1
0	5711	951.483965438228	2
0	5712	951.651513204666	1
0	5717	951.716649998193	0
0	5740	961.076696119185	1
0	5741	961.495455340218	0
0	5749	965.476952365815	1
0	5753	966.015603765694	2
0	5754	966.182546357301	1
0	5764	968.347373208948	2
0	5765	968.646279752232	1
0	5770	969.632504988287	0
0	5790	973.471905586116	1
0	5791	973.701207321833	0
0	5824	976.085471911949	1
0	5825	976.253262990387	0
0	5888	989.436171318579	1
0	5890	989.901140735245	0
0	5896	990.285264592452	1
0	5897	990.30246080852	0
0	5903	990.648690222659	1
0	5905	991.948376815992	0
0	5921	995.159476693353	1
0	5923	995.236565295403	0
0	6021	1015.015517841139	1
0	6022	1015.126756602851	0
0	6033	1015.779423363728	1
0	6035	1016.337166290843	0
0	6050	1020.426368101721	1
0	6051	1020.539940006781	0
0	6067	1023.539790118402	1
0	6070	1023.877661196242	2
0	6071	1024.340908912004	1
0	6077	1024.88211035727	0
0	6090	1027.754486717337	1
0	6091	1027.787834726521	0
0	6097	1027.881626590461	1
0	6100	1028.466603983822	0
0	6121	1032.215426678965	1
0	6122	1032.978834080293	0
0	6126	1033.531604634138	1
0	6129	1033.939979764846	0
0	6141	1036.472469541516	1
0	6143	1036.856121024143	2
0	6144	1037.11963944237	1
0	6148	1039.761947006633	2
0	6150	1043.152960672599	3
0	6152	1043.377742803542	4
0	6155	1043.429578089494	3
0	6163	1044.686707940569	2
0	6169	1045.513024585701	3
0	6172	1046.450435566545	2
0	6176	1046.611300837427	3
0	6178	1048.088147997603	4
0	6180	1048.294883118385	5
0	6182	1048.754166828695	6
0	6185	1050.156204035006	5
0	6191	1050.461089501165	6
0	6193	1051.289251920681	7
0	6197	1052.081754822543	8
0	6205	1052.643597779244	7
0	6210	1052.675703947082	6
0	6215	1052.94474811698	5
0	6221	1054.578694483133	4
0	6227	1054.896970716004	5
0	6230	1055.413820598001	6
0	6232	1055.590410482293	7
0	6234	1055.627851926964	8
0	6235	1056.172625760874	7
0	6240	1057.07102199321	6
0	6247	1060.560389795627	5
0	6255	1063.642791345387	6
0	6256	1063.770388186279	5
0	6260	1064.600513985886	6
0	6263	1065.656785432954	5
0	6268	1065.809124960336	4
0	6274	1067.629147676092	5
0	6275	1067.789603047971	4
0	6282	1070.863469641908	3
0	6287	1070.981541214592	2
0	6291	1071.812293313697	3
0	6294	1072.712189720505	2
0	6300	1073.733860782628	3
0	6301	1073.842371042479	2
0	6307	1074.051788631441	3
0	6308	1074.397156696815	2
0	6313	1076.351090977576	1
0	6320	1077.470934270116	0
0	6326	1078.795700178493	1
0	6328	1080.254792886524	2
0	6329	1082.174072939478	1
0	6333	1082.280784706844	2
0	6335	1082.406826513827	3
0	6339	1083.297352080074	4
0	6344	1084.665119137284	3
0	6350	1085.472894344586	4
0	6351	1085.674494578656	3
0	6355	1086.15976822587	4
0	6360	1088.33720591868	5
0	6362	1088.446168020424	6
0	6363	1088.838022362781	5
0	6370	1091.207888377314	4
0	6377	1093.684555865728	3
0	6381	1094.760639948097	4
0	6386	1095.721569588085	3
0	6391	1098.354468966775	2
0	6396	1099.521885909219	1
0	6402	1099.931945296089	0
0	6415	1100.307339216062	1
0	6416	1100.55237817231	0
0	6427	1101.744022310285	1
0	6429	1103.669412179408	0
0	6466	1107.247215689538	1
0	6470	1107.6400064594	0
0	6487	1109.002477787407	1
0	6489	1109.460697701646	2
0	6491	1110.138446720168	1
0	6498	1111.874441549844	2
0	6500	1112.050275373696	3
0	6501	1112.351014457586	2
0	6507	1114.492977541636	1
0	6512	1114.736053978832	0
0	6529	1116.42871261264	1
0	6536	1116.95741239039	2
0	6540	1117.87870414303	1
0	6546	1118.855804623746	2
0	6551	1120.142239360694	1
0	6557	1121.025094945438	2
0	6559	1121.405678802034	1
0	6565	1121.49808285683	2
0	6567	1122.49339236009	3
0	6568	1122.557735715434	2
0	6573	1122.573062282685	1
0	6579	1124.26559973311	0
0	6585	1124.300775774616	1
0	6588	1126.440164151315	0
0	6594	1127.34060978921	1
0	6595	1127.37740764258	0
0	6612	1128.844359592506	1
0	6613	1129.938686724307	0
0	6646	1132.422287701347	1
0	6648	1132.755681119327	0
0	6659	1136.817511181289	1
0	6661	1139.698285816791	2
0	6665	1143.852979961695	3
0	6670	1145.489232637048	2
0	6677	1146.279076051859	3
0	6678	1146.842321412723	2
0	6687	1147.741962381527	1
0	6692	1147.827675108331	0
0	6705	1148.679578208377	1
0	6709	1149.934023381202	0
0	6725	1152.763131316746	1
0	6726	1152.771246530534	0
0	6737	1153.160822372447	1
0	6739	1153.276607203793	2
0	6741	1153.992310116158	1
0	6746	1154.052644738392	0
0	6752	1154.251144946282	1
0	6753	1154.34087702722	0
0	6763	1156.033304609098	1
0	6765	1156.513943149579	2
0	6766	1157.025033020504	1
0	6772	1157.476014103106	2
0	6773	1157.69513920698	1
0	6778	1157.745794569125	0
0	6784	1157.879717454249	1
0	6785	1159.333623389364	0
0	6803	1160.857033062792	1
0	6807	1161.632543545137	2
0	6808	1162.354705938143	1
0	6813	1162.65960802464	0
0	6831	1163.744199096905	1
0	6833	1163.855981161101	2
0	6838	1165.048687577429	1
0	6843	1165.910149517537	0
0	6864	1168.611375924131	1
0	6868	1169.196500698043	2
0	6873	1169.480126621201	3
0	6877	1169.986681407928	2
0	6883	1170.052089380551	3
0	6886	1170.964068822897	2
0	6891	1171.151729433639	1
0	6898	1172.728961776147	2
0	6906	1173.957081910641	3
0	6909	1174.798925301717	2
0	6914	1174.804547252465	1
0	6920	1175.59071664571	0
0	6926	1176.522665913597	1
0	6930	1178.628513377058	0
0	6960	1182.715485346349	1
0	6963	1184.53021268583	0
0	7016	1196.966412123801	1
0	7018	1197.69020815248	0
0	7024	1198.25108067613	1
0	7025	1199.090977102603	0
0	7037	1199.65779490763	1
0	7039	1199.770333464583	2
0	7041	1200.072685082906	3
0	7042	1200.981163848424	2
0	7047	1201.368364863083	1
0	7052	1201.612611740735	0
0	7058	1202.201034171876	1
0	7066	1204.298184453212	2
0	7068	1205.758947073548	1
0	7074	1205.873833861172	2
0	7077	1206.26859576349	3
0	7078	1206.59412563484	2
0	7084	1208.031018008814	3
0	7085	1209.93705751996	2
0	7090	1209.939457860008	1
0	7095	1211.00808133618	0
0	7159	1225.203607351762	1
0	7162	1225.464119899713	2
0	7170	1226.991727464604	3
0	7175	1229.274397172606	2
0	7180	1229.336795056153	1
0	7185	1230.414713569049	0
0	7201	1231.274490830391	1
0	7203	1232.014073167744	2
0	7208	1234.071488285884	1
0	7214	1234.490341494917	2
0	7215	1234.506618429032	1
0	7220	1234.791341763089	0
0	7226	1235.340292254976	1
0	7228	1235.781252827101	2
0	7229	1236.240283330671	1
0	7236	1236.740200081779	0
0	7277	1240.808613565131	1
0	7281	1241.745422722792	2
0	7283	1241.951807898549	1
0	7289	1242.886952530918	0
0	7319	1249.788536536554	1
0	7321	1251.195156224077	2
0	7322	1251.209939153228	1
0	7327	1251.661476213624	0
0	7368	1262.047376947469	1
0	7369	1263.033308727183	0
0	7402	1266.201319267174	1
0	7405	1266.428668282795	0
0	7418	1268.577866837907	1
0	7422	1269.810361834345	0
0	7458	1275.525802861374	1
0	7460	1276.045525187871	2
0	7462	1276.111144789874	3
0	7464	1276.471146383947	4
0	7465	1276.931209487268	3
0	7470	1276.947546300504	2
0	7475	1277.343975348071	1
0	7479	1278.164403815025	2
0	7482	1279.359854242266	1
0	7490	1280.856982510146	0
0	7496	1281.569005203862	1
0	7497	1281.845028806845	0
0	7516	1283.165336549447	1
0	7517	1283.257366364444	0
0	7528	1284.226397924956	1
0	7534	1285.676590029489	2
0	7537	1286.100651461646	3
0	7541	1288.132869917176	4
0	7542	1288.891879550997	3
0	7547	1289.77166404071	2
0	7555	1291.536365409813	1
0	7564	1291.865313935931	2
0	7566	1292.639109404311	3
0	7570	1293.459390641097	4
0	7571	1294.230526275131	3
0	7578	1294.68647978379	4
0	7581	1294.964802908544	3
0	7587	1294.983174481282	4
0	7588	1295.177393990224	3
0	7593	1296.577100816659	2
0	7599	1297.492891738685	1
0	7604	1297.570143385449	0
0	7608	1297.846012305386	1
0	7611	1298.424983307865	0
0	7627	1300.665368753839	1
0	7628	1300.676700982673	0
0	7639	1301.286841708879	1
0	7640	1301.404464316596	0
0	7663	1303.80253744357	1
0	7667	1305.060875182683	2
0	7668	1305.637569061	1
0	7674	1306.667746824321	2
0	7679	1307.554996176367	3
0	7681	1308.088850439451	4
0	7682	1308.259362926956	3
0	7689	1309.254310202749	4
0	7690	1309.330928129433	3
0	7696	1310.865710589495	2
0	7701	1311.125545605948	1
0	7706	1311.30332909685	0
0	7723	1315.553283242105	1
0	7725	1315.694531028204	2
0	7726	1316.250250244225	1
0	7733	1317.092074972613	0
0	7761	1321.69463157987	1
0	7763	1322.105233425082	2
0	7765	1322.989279374626	1
0	7770	1323.383879784944	0
0	7782	1323.822100775703	1
0	7784	1323.889225023736	2
0	7785	1323.984856633462	1
0	7791	1325.329700330561	0
0	7828	1330.562417769603	1
0	7829	1330.568253757211	0
0	7899	1345.737263800148	1
0	7900	1345.925205510386	0
0	8009	1367.38275099598	1
0	8010	1368.293413193315	0
0	8016	1368.681383005601	1
0	8018	1368.904665131546	0
0	8033	1374.404103844116	1
0	8034	1375.089933150569	0
0	8112	1395.011103942165	1
0	8114	1395.565395048721	0
0	8233	1424.762717864668	1
0	8235	1425.332628734722	2
0	8237	1425.451050941035	3
0	8239	1426.660168701982	2
0	8246	1427.163384999933	3
0	8247	1427.315345607662	2
0	8252	1427.66836914356	1
0	8257	1427.981785663949	0
0	8267	1428.451430120058	1
0	8268	1428.477609804247	0
0	8275	1430.757640329771	1
0	8276	1431.055796524691	0
0	8354	1448.476402240567	1
0	8357	1449.898403758445	0
0	8393	1458.190553225548	1
0	8395	1458.390422531831	2
0	8399	1458.669281177646	3
0	8400	1459.015874404822	2
0	8407	1460.36819340333	1
0	8412	1461.065528737294	0
0	8418	1465.968087638241	1
0	8425	1469.174973629754	2
0	8427	1469.267165027491	3
0	8430	1470.234149693408	2
0	8436	1471.334266511659	1
0	8441	1471.350332303991	0
0	8469	1473.215038037267	1
0	8470	1473.266810856864	0
0	8504	1481.41357318167	1
0	8506	1481.423635419592	2
0	8510	1483.010545746918	1
0	8516	1483.257480443825	2
0	8518	1483.492584314181	1
0	8523	1484.016466046996	0
0	8551	1492.07232876789	1
0	8554	1492.762370199418	0
0	8566	1492.961070527855	1
0	8568	1493.115749999145	2
0	8571	1493.31177936925	3
0	8573	1494.004454918294	4
0	8576	1496.65285877676	3
0	8582	1497.437333723161	4
0	8583	1497.591953111212	3
0	8587	1500.599541657372	4
0	8590	1501.260440552395	3
0	8594	1501.567389119738	4
0	8596	1501.797550050239	5
0	8598	1502.703718318641	6
0	8604	1504.848059838429	5
0	8609	1505.61235157998	4
0	8613	1506.145060277885	5
0	8617	1508.884257207052	4
0	8622	1509.46105049738	3
0	8628	1511.324345184097	4
0	8633	1513.450019295923	5
0	8634	1514.167487383944	4
0	8644	1514.63684491966	3
0	8649	1514.647207826719	2
0	8655	1516.234157585963	1
0	8662	1516.513360286697	2
0	8663	1516.958896896227	1
0	8668	1518.543440582978	0
0	8684	1520.675234842434	1
0	8685	1520.79527052366	0
0	8693	1521.547804202845	1
0	8694	1521.703901769671	0
0	8698	1521.980308395198	1
0	8700	1522.299670545926	2
0	8704	1522.928274838219	3
0	8705	1523.392869877572	2
0	8711	1524.22944816071	3
0	8713	1524.278259453423	4
0	8717	1525.387281791643	3
0	8722	1525.497803628838	2
0	8727	1525.857350694309	1
0	8733	1526.510665060733	2
0	8735	1527.094210395519	3
0	8737	1527.484639411582	4
0	8738	1527.625939686588	3
0	8743	1530.118572950134	2
0	8747	1530.791578696531	3
0	8749	1531.288225588271	4
0	8751	1531.789018941163	5
0	8757	1532.623898740445	4
0	8762	1532.916513784823	3
0	8767	1533.426166704637	2
0	8773	1534.080985392186	1
0	8781	1535.901022151758	0
0	8829	1540.339155553214	1
0	8831	1540.698296359615	2
0	8833	1540.832575728095	3
0	8837	1543.643708852884	4
0	8842	1545.230332129144	3
0	8849	1545.440045043436	2
0	8855	1546.649225371608	1
0	8862	1546.727448180887	0
0	8880	1550.355956015861	1
0	8888	1552.843098147638	2
0	8891	1553.546853530769	3
0	8892	1553.816729736801	2
0	8897	1554.445365476413	1
0	8907	1556.307886477864	2
0	8908	1556.310914661502	1
0	8915	1557.208950814808	0
0	8940	1559.453404911472	1
0	8943	1560.73517073751	0
0	8949	1561.482672726248	1
0	8951	1561.663828963681	0
0	9063	1585.687712278774	1
0	9064	1586.187182968686	0
0	9086	1587.691526787775	1
0	9088	1588.57663699377	2
0	9092	1590.378287018329	3
0	9093	1590.457922417904	2
0	9098	1591.031052129088	1
0	9103	1591.193979452399	0
0	9114	1591.213478618913	1
0	9117	1591.763717197241	0
0	9143	1593.320595790947	1
0	9146	1595.391333463178	0
0	9152	1595.394146439231	1
0	9157	1597.570873155955	2
0	9159	1598.101103898906	3
0	9162	1599.593375186558	2
0	9167	1599.60296585292	1
0	9174	1600.97386375276	0
0	9191	1602.15694611129	1
0	9193	1602.766902560535	2
0	9195	1603.630944688026	3
0	9199	1604.400041252768	4
0	9200	1604.680039965798	3
0	9206	1605.088693195919	4
0	9208	1606.009931254873	3
0	9213	1606.219854407276	2
0	9218	1606.267298709407	1
0	9223	1606.39160682662	0
0	9235	1606.848763001621	1
0	9236	1608.765038126292	0
0	9250	1611.181947768862	1
0	9251	1611.192005660049	0
0	9286	1617.969422142407	1
0	9288	1618.508917757534	0
0	9350	1632.437894413161	1
0	9351	1633.138882439082	0
0	9358	1633.788855438026	1
0	9361	1635.068058261371	0
0	9390	1642.954654604227	1
0	9392	1643.448529844275	2
0	9394	1643.472336255275	3
0	9396	1643.956207766315	4
0	9397	1644.20555676639	3
0	9402	1644.437982272969	2
0	9408	1644.587316410213	3
0	9411	1645.29537535803	4
0	9412	1645.415100880692	3
0	9419	1645.537999128759	4
0	9421	1645.977810245905	5
0	9422	1646.169411410526	4
0	9428	1646.3893072495	5
0	9430	1646.753848754278	6
0	9432	1646.843250312365	7
0	9435	1648.468481873889	8
0	9437	1648.657023026258	9
0	9438	1648.80761056924	8
0	9443	1649.235665756432	7
0	9456	1653.028057090592	8
0	9457	1653.446187910654	7
0	9463	1654.433003234354	8
0	9464	1654.578197214612	7
0	9469	1655.169353012782	6
0	9475	1656.774146272751	7
0	9477	1657.386546891789	8
0	9480	1658.466886474333	7
0	9485	1658.714703162075	6
0	9491	1658.788462008129	7
0	9492	1659.003096995197	6
0	9498	1659.333136889046	5
0	9504	1659.736369959472	6
0	9507	1660.641791646829	5
0	9513	1661.739660113423	4
0	9519	1663.448890449395	3
0	9524	1663.589134182593	2
0	9529	1663.855938515737	1
0	9533	1665.808794141151	2
0	9538	1666.809734582909	1
0	9545	1668.855634864201	2
0	9546	1669.406984979671	1
0	9551	1669.57477315956	0
0	9558	1670.216906010878	1
0	9559	1671.876028083167	0
0	9635	1683.655393436004	1
0	9636	1683.703033372942	0
0	9667	1686.58479845852	1
0	9668	1686.809274905221	0
0	9699	1695.088332321643	1
0	9700	1696.990070769629	0
0	9738	1702.540853200094	1
0	9739	1704.032028685133	0
0	9752	1706.369714946346	1
0	9753	1706.789776037396	0
0	9759	1706.846806917956	1
0	9761	1707.383679948455	0
0	9775	1708.799734647086	1
0	9776	1709.019126021274	0
0	9869	1734.937619958783	1
0	9870	1735.09456281377	0
0	9876	1735.320898151547	1
0	9878	1735.823003592693	2
0	9879	1735.840731132522	1
0	9887	1736.380937462194	0
0	9893	1737.872263603586	1
0	9894	1738.399308823666	0
0	9910	1738.898755868655	1
0	9914	1740.465639918612	2
0	9915	1740.628619275924	1
0	9926	1742.212906502937	0
0	9953	1748.29778403182	1
0	9957	1749.282083622393	2
0	9958	1749.394282506775	1
0	9963	1749.755542551441	0
0	9970	1751.578338254018	1
0	9972	1752.363366416202	2
0	9974	1752.434546570892	3
0	9975	1752.828076929588	2
0	9980	1754.772790752584	1
0	9985	1755.240996177939	0
0	9991	1755.364212828699	1
0	9992	1756.053333518232	0
0	10017	1759.55878038291	1
0	10019	1759.734615959405	2
0	10020	1760.007665682113	1
0	10025	1760.297390786721	0
0	10034	1760.493088327541	1
0	10036	1760.848801770037	2
0	10037	1761.108414043387	1
0	10042	1761.20427589741	0
0	10076	1769.133809533968	1
0	10077	1769.562173179471	0
0	10102	1773.117480475153	1
0	10103	1773.171920167923	0
0	10131	1777.24701824106	1
0	10133	1777.634139854034	2
0	10134	1778.451809585	1
0	10141	1779.650449933578	2
0	10142	1780.851783447014	1
0	10147	1781.120581507917	0
0	10185	1789.134465511594	1
0	10187	1790.711840647936	0
0	10316	1814.749204266997	1
0	10318	1815.641714469909	2
0	10322	1816.166706487449	3
0	10324	1816.702246583107	2
0	10332	1817.768326663615	3
0	10334	1817.914981224258	4
0	10337	1818.071602668792	3
0	10344	1819.100246958168	4
0	10345	1819.306086975764	3
0	10351	1819.33798575948	4
0	10352	1819.816330645513	3
0	10358	1819.87129167074	4
0	10359	1821.607671195963	3
0	10365	1821.98626976725	4
0	10366	1822.370312782864	3
0	10370	1822.48074784559	4
0	10372	1823.283111100552	5
0	10377	1825.141744397878	4
0	10383	1827.202192967855	5
0	10385	1827.622756248094	6
0	10387	1827.716801520099	7
0	10389	1829.118340416472	8
0	10390	1829.689106888203	7
0	10395	1830.178400225791	6
0	10399	1830.234403243675	7
0	10401	1830.263759620507	8
0	10404	1831.621710113643	7
0	10410	1832.753979578079	6
0	10415	1833.51265624408	5
0	10419	1833.738490938542	6
0	10421	1834.008846946364	7
0	10425	1834.563275057003	6
0	10430	1834.90910562341	5
0	10437	1835.428878938819	4
0	10442	1835.970369560501	3
0	10447	1836.509123605209	2
0	10451	1836.787886192601	3
0	10454	1837.644582393422	2
0	10458	1837.772757172277	3
0	10461	1838.941452593353	2
0	10465	1839.953193745363	3
0	10467	1839.998152724002	4
0	10472	1842.808437312087	5
0	10475	1844.615534935305	4
0	10480	1844.682792298328	3
0	10485	1844.777892535036	2
0	10490	1845.063315763593	1
0	10495	1845.331823140018	0
0	10525	1849.251075789079	1
0	10527	1849.4546102404	2
0	10529	1850.312732210159	1
0	10536	1850.521204501773	0
0	10558	1854.602032329231	1
0	10561	1855.141977459783	0
0	10565	1855.512080815667	1
0	10567	1855.668811704054	2
0	10570	1858.23429535236	1
0	10576	1859.450087852095	2
0	10578	1859.712458238587	3
0	10580	1859.994317203913	4
0	10581	1860.665968836055	3
0	10587	1861.926103065805	2
0	10592	1862.001079343589	1
0	10597	1862.915890736828	0
0	10601	1863.203410770094	1
0	10603	1863.855621461477	2
0	10608	1865.563320722727	3
0	10610	1866.01363413761	4
0	10611	1868.042574915191	3
0	10620	1868.700980615162	2
0	10625	1870.283313886903	1
0	10630	1870.433988939786	0
0	10641	1871.554553856272	1
0	10645	1872.831884609589	2
0	10649	1874.220781670486	3
0	10651	1874.376394233205	4
0	10653	1874.388750108567	5
0	10655	1875.123196567177	6
0	10657	1875.591800064431	7
0	10661	1876.813936677268	8
0	10662	1877.069090708162	7
0	10667	1877.425906085686	6
0	10677	1878.414894329616	7
0	10678	1878.867964057668	6
0	10685	1879.503837988078	7
0	10686	1880.113632504487	6
0	10691	1880.118706970873	5
0	10696	1880.489130427671	4
0	10703	1880.87415695333	3
0	10708	1882.244923612939	2
0	10715	1886.011226175833	1
0	10724	1887.917949516383	0
0	10764	1892.283671098234	1
0	10768	1893.80953927319	0
0	10787	1896.30068825807	1
0	10790	1897.257985918164	0
0	10796	1897.324931733501	1
0	10797	1897.973627526643	0
0	10847	1905.807449163627	1
0	10849	1905.901193730126	2
0	10850	1905.961477162486	1
0	10857	1906.621492529972	0
0	10868	1908.399726776566	1
0	10869	1908.467972742526	0
0	10881	1911.089530901441	1
0	10883	1911.662243345293	2
0	10884	1911.684591487154	1
0	10890	1911.773729299109	2
0	10892	1912.336881302907	1
0	10897	1913.657103833713	0
0	10903	1913.95409611768	1
0	10904	1914.037719750231	0
0	10911	1914.452306042026	1
0	10913	1914.529278641129	2
0	10914	1914.800698452854	1
0	10920	1916.65598291221	0
0	10939	1919.809557585747	1
0	10940	1920.536009261118	0
0	10944	1920.674825599561	1
0	10947	1923.335170498343	0
0	10951	1924.416652978365	1
0	10957	1925.368784200094	0
0	10963	1925.421395403467	1
0	10965	1925.658697864066	2
0	10968	1926.653277216865	1
0	10976	1928.02039360333	0
0	10992	1929.082624167668	1
0	10995	1929.600174580844	2
0	10997	1929.934904293692	1
0	11002	1930.52151732077	0
0	11020	1934.099728814375	1
0	11022	1934.431504739485	0
0	11035	1939.805424726247	1
0	11036	1939.969439337	0
0	11083	1952.639380930038	1
0	11084	1953.044204502631	0
0	11105	1959.553233136301	1
0	11106	1960.066518790403	0
0	11110	1960.208323230568	1
0	11112	1960.470279269885	2
0	11115	1961.23923783082	1
0	11122	1963.688360542911	0
0	11181	1976.93499671234	1
0	11183	1976.96411801759	2
0	11185	1978.461277261801	1
0	11191	1978.628397353241	2
0	11194	1979.08876876859	1
0	11198	1979.675682480523	2
0	11202	1980.557847671027	3
0	11205	1984.349858461905	2
0	11211	1985.824032725416	1
0	11218	1986.757169303936	2
0	11220	1986.830917449249	3
0	11221	1987.422092531769	2
0	11227	1987.676222383444	1
0	11233	1988.505958258339	2
0	11234	1988.551910261361	1
0	11239	1988.96585019573	0
0	11270	1993.562733207436	1
0	11276	1994.209356314052	0
0	11317	2006.910927641567	1
0	11318	2007.428999459941	0
0	11346	2012.465925350767	1
0	11348	2013.080471179797	0
0	11363	2014.389001560799	1
0	11369	2014.895823761695	2
0	11373	2015.874412764388	3
0	11374	2015.959443087183	2
0	11381	2017.321102247627	1
0	11386	2018.79775234712	0
0	11392	2020.557714507945	1
0	11393	2020.840543328269	0
0	11399	2021.178144713719	1
0	11400	2021.274208790474	0
0	11413	2022.341386046666	1
0	11414	2022.875437895972	0
0	11454	2027.556604012006	1
0	11457	2028.340568548149	2
0	11460	2028.626160904725	3
0	11463	2029.940045834956	2
0	11469	2030.314516954361	1
0	11475	2030.663086340177	2
0	11477	2030.743439349422	3
0	11479	2030.885341568019	4
0	11482	2031.703889170175	3
0	11488	2032.422593486799	2
0	11494	2032.935486690032	3
0	11495	2033.020099079675	2
0	11501	2034.091552929911	1
0	11506	2035.666298072181	0
0	11512	2036.608391607191	1
0	11513	2036.698385049892	0
0	11534	2038.192482750513	1
0	11537	2039.391464453057	2
0	11539	2039.878769727764	3
0	11541	2040.238835309719	4
0	11544	2040.663498341381	3
0	11549	2040.746435838793	2
0	11555	2040.867935696273	3
0	11559	2044.335367781027	2
0	11566	2044.858726118284	3
0	11568	2045.158569769595	2
0	11573	2045.220376751194	1
0	11579	2045.513218518139	2
0	11580	2046.234336399769	1
0	11586	2047.460055132914	2
0	11589	2048.602749821759	1
0	11594	2048.795471631853	0
0	11628	2054.760092221367	1
0	11629	2055.659286727851	0
0	11660	2060.63514587253	1
0	11662	2061.035726288543	2
0	11666	2062.294593794603	3
0	11667	2062.610950108536	2
0	11673	2063.386627613989	1
0	11678	2064.689191394119	0
0	11706	2070.043421532208	1
0	11715	2073.2615778393	0
0	11731	2073.994492383455	1
0	11732	2074.723272216214	0
0	11745	2075.836038104565	1
0	11746	2076.068976448868	0
0	11752	2076.792010298889	1
0	11755	2077.986938340279	0
0	11800	2083.675197559465	1
0	11804	2084.749669196606	0
0	11811	2085.220903552109	1
0	11813	2085.283757333682	2
0	11814	2085.326071462513	1
0	11820	2085.487132152165	2
0	11821	2086.232369838522	1
0	11827	2086.425391505525	2
0	11828	2086.440978347731	1
0	11834	2086.624499830613	0
0	11842	2087.283435846892	1
0	11843	2088.097032890431	0
0	11849	2088.686480725075	1
0	11857	2091.000701785055	0
0	11868	2091.592027073088	1
0	11873	2092.769121822621	2
0	11874	2092.979110278167	1
0	11879	2093.187287733862	0
0	11886	2093.818430481118	1
0	11888	2094.095024798496	2
0	11889	2094.210820085603	1
0	11894	2095.913618374337	0
0	11898	2097.008416424275	1
0	11902	2098.638187567129	2
0	11903	2098.695704121626	1
0	11907	2099.919556792859	2
0	11909	2101.276676783482	3
0	11912	2102.541467052359	2
0	11918	2103.044347393252	3
0	11919	2103.099774731645	2
0	11925	2103.329385677617	3
0	11926	2103.766063684102	2
0	11932	2104.206651229495	3
0	11937	2106.092282927105	2
0	11944	2106.95688011502	1
0	11950	2107.466578348112	2
0	11951	2108.037487290375	1
0	11956	2109.501428320249	0
0	11960	2109.763550102428	1
0	11962	2110.357250331104	2
0	11967	2110.581096898473	1
0	11974	2111.461855640052	0
0	12006	2117.935979891077	1
0	12009	2118.685720416102	0
0	12042	2124.153631324215	1
0	12047	2125.373778943622	0
0	12064	2127.286161994683	1
0	12068	2128.460458375629	2
0	12069	2128.478627622071	1
0	12075	2129.26434901529	0
0	12088	2129.668337308961	1
0	12090	2129.963222493899	2
0	12094	2132.44963236487	1
0	12099	2132.53115847314	0
0	12117	2132.699651072413	1
0	12120	2133.948385558102	0
0	12143	2141.130840369667	1
0	12145	2141.339136718299	2
0	12146	2141.52452600792	1
0	12151	2141.636941594274	0
0	12163	2142.977726119577	1
0	12165	2143.023460234313	2
0	12166	2143.274799064495	1
0	12171	2143.728954074647	0
0	12184	2144.69118886974	1
0	12185	2145.719269340657	0
0	12206	2147.49948173775	1
0	12208	2148.391210924074	2
0	12211	2148.466793623584	1
0	12216	2148.773481688649	0
0	12264	2161.171296216941	1
0	12265	2161.241253328091	0
0	12279	2163.881237959203	1
0	12280	2163.946281474236	0
0	12296	2164.626165648225	1
0	12298	2166.280551591541	0
0	12310	2166.976224724952	1
0	12311	2167.087331672619	0
0	12324	2168.880322138308	1
0	12328	2169.505636450652	2
0	12330	2169.855223492754	1
0	12335	2169.949815158387	0
0	12339	2170.016066426594	1
0	12341	2171.689463663745	2
0	12347	2172.086948193477	1
0	12352	2172.236750814038	0
0	12356	2172.427182596122	1
0	12361	2172.813532311741	0
0	12367	2175.870846328843	1
0	12374	2178.023398856755	0
0	12398	2179.833770822313	1
0	12400	2180.133444233464	2
0	12401	2180.433880215806	1
0	12407	2180.854094836616	2
0	12408	2180.991794751662	1
0	12416	2182.174286491064	0
0	12422	2182.446122663451	1
0	12424	2182.457328488205	2
0	12427	2182.770934117911	1
0	12431	2182.861993887861	2
0	12434	2182.925313393362	1
0	12438	2183.509080030013	2
0	12440	2184.4142994674	3
0	12443	2184.713415549362	2
0	12447	2185.405822934504	3
0	12451	2185.723118891157	4
0	12452	2186.177921282025	3
0	12456	2186.571657143869	4
0	12459	2187.306708479238	3
0	12466	2187.774008033119	2
0	12470	2187.789029427497	3
0	12474	2188.546650342454	4
0	12476	2188.707003602197	3
0	12485	2192.714187094045	2
0	12492	2193.063884853824	3
0	12493	2193.421923275115	2
0	12499	2193.446082439842	3
0	12501	2193.707635837896	4
0	12503	2194.627046702903	5
0	12507	2195.759910024697	4
0	12512	2196.293450235055	3
0	12518	2197.140636078805	2
0	12523	2197.352946569677	1
0	12529	2197.991412917108	2
0	12532	2198.921183220687	1
0	12536	2198.937127903736	2
0	12539	2199.650810817681	1
0	12545	2202.462641617078	2
0	12550	2205.809830893342	3
0	12551	2206.063075924482	2
0	12557	2207.085174594297	3
0	12558	2207.213767451185	2
0	12563	2208.21113823594	1
0	12567	2209.350867403585	2
0	12570	2209.559764121423	1
0	12576	2211.9722420185	0
0	12587	2213.721514382133	1
0	12591	2216.212827892491	0
0	12629	2219.64032395558	1
0	12631	2219.923385655016	2
0	12632	2220.107518045658	1
0	12638	2220.416666728417	2
0	12641	2221.690725736167	1
0	12646	2221.984770542078	0
0	12659	2224.014240660511	1
0	12661	2224.243895836957	2
0	12663	2225.997093122523	1
0	12669	2226.025004475064	2
0	12672	2227.381588840713	3
0	12674	2227.614099683375	4
0	12675	2227.901044360712	3
0	12680	2228.012519398562	2
0	12685	2228.350281281981	1
0	12690	2229.1008874519	0
0	12771	2247.424866634696	1
0	12772	2247.432938430957	0
0	12800	2252.060637037274	1
0	12801	2252.407408293158	0
0	12841	2260.043530163544	1
0	12844	2260.8638435287	0
0	12855	2261.653115940026	1
0	12859	2262.31482030041	0
0	12877	2264.615058925499	1
0	12878	2264.931472526126	0
0	12904	2267.707732178525	1
0	12905	2268.018510774167	0
0	12936	2276.008353030943	1
0	12937	2277.071120584758	0
0	12960	2283.575788017217	1
0	12961	2283.748756079271	0
0	12974	2285.11980692706	1
0	12980	2285.924773406314	0
0	13018	2292.529927849988	1
0	13019	2292.783291114665	0
0	13025	2293.012099407034	1
0	13026	2293.359998995288	0
0	13043	2297.150854241596	1
0	13047	2297.741375338273	2
0	13048	2297.772312426902	1
0	13053	2297.803900941899	0
0	13074	2300.219991975373	1
0	13075	2301.231405608163	0
0	13104	2307.243064570092	1
0	13105	2307.490551017141	0
0	13173	2318.226279690156	1
0	13174	2318.323579020742	0
0	13180	2318.338373979463	1
0	13181	2318.943804812695	0
0	13194	2319.967319959466	1
0	13195	2320.249341872233	0
0	13201	2320.36375862159	1
0	13203	2320.724272577553	2
0	13204	2320.985167561713	1
0	13209	2321.243890652325	0
0	13215	2321.26949718071	1
0	13217	2322.379586726366	2
0	13218	2322.826018294735	1
0	13223	2322.895560016723	0
0	13229	2323.875877028872	1
0	13235	2325.251063582785	0
0	13243	2326.0586537796	1
0	13246	2326.522193423831	2
0	13247	2326.546509989559	1
0	13252	2326.88590926218	0
0	13264	2327.210354147595	1
0	13266	2327.69644279646	0
0	13282	2328.509773556965	1
0	13284	2328.788340555082	0
0	13294	2331.498989495829	1
0	13296	2332.377430950383	0
0	13333	2338.760695987355	1
0	13334	2338.848894285822	0
0	13353	2344.437827467661	1
0	13355	2344.953771612817	2
0	13357	2346.446091826506	3
0	13360	2347.523452885616	2
0	13366	2348.452853767221	3
0	13368	2349.11252657517	4
0	13371	2349.240252184805	3
0	13377	2350.200167182038	4
0	13379	2350.870270399034	5
0	13382	2351.915846059588	4
0	13387	2353.588436012747	3
0	13391	2354.206569338911	4
0	13393	2354.468324419271	5
0	13400	2356.079760983283	4
0	13407	2357.695178633702	3
0	13412	2357.696621413403	2
0	13417	2357.878672586381	1
0	13421	2357.977969547381	2
0	13424	2359.606217263288	1
0	13428	2359.610448140509	2
0	13430	2359.951725463391	3
0	13433	2360.041759530717	2
0	13438	2360.398380252603	1
0	13442	2360.852536810621	2
0	13446	2361.303076762563	3
0	13447	2361.461532620295	2
0	13452	2362.21091596686	1
0	13456	2362.496580340762	2
0	13460	2363.418065572667	1
0	13466	2363.732676752792	2
0	13473	2364.348298353809	3
0	13476	2366.115375909035	2
0	13481	2366.416460468025	1
0	13487	2367.286540194419	2
0	13492	2368.611793110456	1
0	13496	2369.0858845182	2
0	13500	2369.768635749813	1
0	13505	2369.805987153984	0
0	13520	2374.810045290881	1
0	13524	2375.130008000403	2
0	13526	2375.435211987546	1
0	13531	2376.773095287282	0
0	13580	2383.853910152892	1
0	13581	2383.989252904076	0
0	13595	2385.260184836612	1
0	13599	2385.584174434503	0
0	13605	2385.962132533017	1
0	13606	2386.476011316658	0
0	13623	2388.307174191426	1
0	13624	2388.517907713173	0
0	13637	2390.820612075394	1
0	13640	2390.886437332511	2
0	13641	2390.911266878811	1
0	13646	2391.444789206632	0
0	13657	2391.868971919477	1
0	13659	2393.69744995059	0
0	13716	2399.166513465926	1
0	13718	2399.303629631293	2
0	13719	2399.357099119126	1
0	13725	2399.88956089853	2
0	13730	2401.070791587428	3
0	13731	2401.767101804648	2
0	13737	2401.938543981853	3
0	13738	2402.964567415887	2
0	13743	2404.384356742849	1
0	13749	2405.325429138821	2
0	13752	2405.975182190427	1
0	13762	2407.396984914354	2
0	13764	2407.643067088515	3
0	13766	2407.703791078282	4
0	13767	2408.328095762169	3
0	13771	2408.697555492425	4
0	13774	2409.169628009032	3
0	13779	2409.451168488488	2
0	13785	2412.427077838832	3
0	13787	2412.825778409996	4
0	13788	2413.80744310513	3
0	13794	2414.052892748329	4
0	13796	2414.063041989796	5
0	13798	2414.159739148064	6
0	13799	2414.886862510149	5
0	13804	2415.773343307431	4
0	13808	2416.594278391249	5
0	13813	2420.543377211043	4
0	13818	2421.514960339886	3
0	13822	2421.614087002097	4
0	13827	2427.179592462207	3
0	13833	2428.015705433786	4
0	13835	2428.061577927345	5
0	13837	2428.1611263553	6
0	13840	2429.089048448348	7
0	13841	2429.457255876429	6
0	13846	2429.79890096184	5
0	13850	2429.911155241378	6
0	13854	2430.192986454349	7
0	13855	2430.565900021046	6
0	13859	2430.669764465819	7
0	13861	2430.919807478456	8
0	13869	2432.983113825274	7
0	13874	2432.985586290945	6
0	13880	2433.24676418439	7
0	13882	2433.36830064146	8
0	13887	2433.846107464884	7
0	13894	2434.755984131386	6
0	13899	2434.917719008639	5
0	13903	2435.415842281855	6
0	13908	2438.173722092903	5
0	13912	2438.48572176855	6
0	13917	2440.410117301103	5
0	13923	2441.371371983995	6
0	13925	2441.495762527685	7
0	13929	2441.786055010318	8
0	13931	2441.937255963646	9
0	13933	2442.011675944045	10
0	13935	2442.189470113075	11
0	13936	2442.61612177696	10
0	13940	2443.110659317383	11
0	13944	2443.85550476184	12
0	13948	2444.608795007689	13
0	13949	2444.801828302567	12
0	13956	2446.171350869851	11
0	13961	2447.959126355413	10
0	13967	2448.03008497842	11
0	13968	2448.124129272597	10
0	13975	2449.747039794875	11
0	13977	2449.754387411035	10
0	13983	2449.855843283027	11
0	13984	2450.052387523784	10
0	13989	2450.648266635906	9
0	13995	2452.050887589507	10
0	13997	2452.393503399746	11
0	13998	2452.475406889703	10
0	14003	2454.454819650098	9
0	14007	2455.213093266523	10
0	14012	2456.499825774001	9
0	14018	2456.727880657491	10
0	14020	2456.735332650265	11
0	14021	2456.896004838481	10
0	14027	2457.129282736125	9
0	14032	2457.460876279724	8
0	14037	2458.189427257619	7
0	14042	2458.764476893918	6
0	14047	2459.794110438338	5
0	14052	2461.300579124205	4
0	14058	2461.980412230146	5
0	14060	2462.436498215299	6
0	14061	2462.832202281743	5
0	14065	2463.32565529749	6
0	14069	2464.007272456232	7
0	14070	2464.303867581412	6
0	14075	2464.697025816374	5
0	14079	2465.218667508416	6
0	14083	2467.085436473536	7
0	14089	2467.433667103554	8
0	14090	2468.21652574878	7
0	14097	2469.921152260058	6
0	14102	2471.021496404689	5
0	14106	2471.097447074322	6
0	14109	2471.295067971704	5
0	14114	2472.043139793691	4
0	14119	2473.523262822938	3
0	14127	2474.775548900155	2
0	14132	2474.838060027481	1
0	14137	2476.144874915424	0
0	14191	2484.434550041433	1
0	14192	2484.56072475731	0
0	14198	2485.056031639322	1
0	14199	2485.125282291254	0
0	14222	2487.752530036253	1
0	14223	2489.77609945088	0
0	14243	2491.408920853828	1
0	14245	2491.723783306329	2
0	14251	2493.086597974999	3
0	14252	2493.368864982806	2
0	14260	2493.970660953956	1
0	14272	2494.717241499743	2
0	14274	2495.393106602771	1
0	14282	2496.071729335724	0
0	14296	2497.658090532327	1
0	14304	2499.613664664007	2
0	14305	2501.07154169855	1
0	14314	2502.20552775721	0
0	14320	2502.576061972612	1
0	14321	2503.057339829015	0
0	14327	2504.36426453752	1
0	14329	2504.507510809944	2
0	14331	2505.236769101109	1
0	14336	2505.442786090662	0
0	14347	2505.640771169337	1
0	14350	2508.367462456687	0
0	14356	2508.682976882422	1
0	14358	2508.845397655862	2
0	14361	2509.894259524104	1
0	14369	2510.094664212365	0
0	14411	2515.61762968007	1
0	14414	2516.450951364032	0
0	14449	2519.539577016012	1
0	14451	2520.853187961592	0
0	14457	2520.987690508511	1
0	14458	2521.124312457494	0
0	14480	2523.872440388157	1
0	14482	2525.844425893049	2
0	14489	2528.024651828883	3
0	14490	2530.903163349909	2
0	14501	2531.592660867104	1
0	14506	2531.741072478432	0
0	14546	2535.502254693347	1
0	14548	2535.75283721413	0
0	14555	2537.202675185956	1
0	14556	2537.612521501371	0
0	14563	2538.239183028771	1
0	14564	2538.59894535703	0
0	14577	2538.774657422365	1
0	14578	2538.873595089864	0
0	14610	2541.343028830753	1
0	14612	2541.3510713635	2
0	14617	2542.348664245674	1
0	14622	2542.785675464465	0
0	14628	2543.423238558428	1
0	14629	2543.512761115147	0
0	14640	2544.579478347359	1
0	14641	2545.034049209195	0
0	14647	2547.355018338562	1
0	14651	2547.897491153436	2
0	14653	2548.20074485643	3
0	14655	2548.273447012659	4
0	14656	2548.516599375525	3
0	14664	2550.024113136259	4
0	14665	2550.188608984439	3
0	14670	2551.149886233468	2
0	14674	2551.260080941558	3
0	14678	2551.442421399044	4
0	14680	2552.784716723315	3
0	14688	2553.063381316787	4
0	14689	2553.359352317034	3
0	14694	2554.487778440073	2
0	14703	2555.698870505725	3
0	14704	2555.956229359895	2
0	14709	2556.266785630327	1
0	14715	2556.890940794004	0
0	14721	2557.046726044852	1
0	14725	2557.338948966601	0
0	14738	2558.923061796398	1
0	14739	2559.186326230305	0
0	14745	2559.783768592368	1
0	14746	2560.977466328985	0
0	14767	2563.298101987829	1
0	14771	2564.55111124673	2
0	14774	2566.179436267265	1
0	14781	2567.311356827015	0
0	14809	2570.222339631172	1
0	14811	2571.117111832979	0
0	14822	2571.364034344648	1
0	14824	2571.419703048214	2
0	14827	2572.478599318341	1
0	14832	2572.712569697382	0
0	14843	2573.494618632256	1
0	14844	2575.311974136464	0
0	14855	2575.764384600385	1
0	14856	2576.001039789721	0
0	14867	2577.891543191323	1
0	14874	2579.253654878807	0
0	14880	2579.412618531629	1
0	14882	2579.6762617151	0
0	14893	2580.569528341755	1
0	14895	2581.462435386786	2
0	14896	2581.751204885941	1
0	14905	2582.061528815987	2
0	14906	2582.422491446386	1
0	14910	2582.621169679617	2
0	14921	2588.082920454852	1
0	14930	2590.001204566883	0
0	14955	2591.821670145798	1
0	14956	2591.966724665026	0
0	15006	2603.302946485408	1
0	15010	2604.640371499019	2
0	15012	2605.644369426765	1
0	15018	2605.892125720384	2
0	15024	2607.663015657678	1
0	15029	2607.799478572578	0
0	15036	2608.621630160338	1
0	15038	2609.253199221252	0
0	15051	2611.043808408852	1
0	15055	2612.614711745607	2
0	15056	2613.206486823516	1
0	15061	2613.646754003722	0
0	15079	2615.023191631934	1
0	15081	2615.040728442819	2
0	15083	2615.628459768532	3
0	15085	2615.787403091189	2
0	15090	2615.872547234771	1
0	15095	2616.002401906242	0
0	15107	2616.15097814381	1
0	15109	2616.67963361648	0
0	15115	2616.996570331079	1
0	15117	2617.103506993027	0
0	15157	2625.034573558124	1
0	15159	2625.331405759068	2
0	15164	2627.006259106188	3
0	15165	2627.174823843204	2
0	15170	2627.356728567114	1
0	15175	2627.52180078202	0
0	15240	2638.278155231253	1
0	15241	2638.426763547328	0
0	15247	2638.831693383438	1
0	15248	2639.383577908257	0
0	15280	2646.315991224931	1
0	15281	2646.497504780884	0
0	15287	2646.658188880104	1
0	15293	2648.483329862042	2
0	15297	2649.075045187107	3
0	15298	2649.194338218234	2
0	15304	2649.279568931506	3
0	15305	2649.868766629949	2
0	15310	2649.967217374713	1
0	15315	2650.172173601246	0
0	15326	2650.649379777482	1
0	15328	2650.841437290708	2
0	15332	2652.210875446861	3
0	15334	2654.115165810508	4
0	15335	2654.763160636933	3
0	15340	2654.824881307279	2
0	15347	2654.914964774605	1
0	15355	2656.273893706952	2
0	15357	2656.346157415358	1
0	15362	2656.427153105087	0
0	15385	2659.488452655187	1
0	15386	2659.495111994181	0
0	15408	2663.580495857745	1
0	15410	2663.602947701287	2
0	15412	2664.417032294541	3
0	15413	2665.142933187142	2
0	15418	2665.989690457895	1
0	15423	2666.3359066345	0
0	15482	2674.777232567066	1
0	15483	2675.232403842832	0
0	15494	2677.550656347734	1
0	15495	2677.58790097049	0
0	15501	2677.652999459102	1
0	15503	2677.922357335833	2
0	15509	2678.212804946694	1
0	15517	2678.876361754592	0
0	15530	2679.624081925078	1
0	15533	2682.715921119363	0
0	15548	2684.32304093448	1
0	15550	2685.19687817956	2
0	15553	2686.326465740215	3
0	15554	2686.46555216925	2
0	15559	2686.884713520925	1
0	15564	2686.965510877388	0
0	15571	2688.481001729056	1
0	15572	2688.957408778631	0
0	15588	2691.30243641041	1
0	15590	2691.541826038698	2
0	15592	2691.681021278228	3
0	15593	2693.092536819058	2
0	15598	2693.38286024831	1
0	15605	2693.905634198969	0
0	15611	2695.049850616414	1
0	15613	2695.828505243849	2
0	15614	2697.182241031493	1
0	15622	2700.716298325321	2
0	15623	2700.76951675203	1
0	15627	2701.425647934612	2
0	15631	2703.856333943937	1
0	15636	2706.79020354858	0
0	15654	2709.052499897785	1
0	15659	2710.168820983748	2
0	15660	2710.30234247299	1
0	15666	2710.39105420533	2
0	15667	2710.43749961395	1
0	15673	2711.014296871115	2
0	15674	2711.462715169081	1
0	15681	2712.602230471095	2
0	15685	2714.019937417653	1
0	15691	2714.259710324353	2
0	15692	2714.3923819546	1
0	15698	2715.723448324865	0
0	15712	2718.914766959648	1
0	15714	2719.200391665358	0
0	15720	2724.036146159932	1
0	15724	2725.471620923767	0
0	15740	2726.427598253722	1
0	15741	2726.592264530255	0
0	15747	2728.015634303281	1
0	15749	2728.86310766483	2
0	15751	2728.941332858255	3
0	15753	2729.20234225226	4
0	15755	2731.087156150417	5
0	15758	2731.311833760247	4
0	15764	2731.662144302346	5
0	15766	2732.057567819514	4
0	15776	2734.393239994677	5
0	15778	2734.575629669318	6
0	15783	2734.854327067683	5
0	15789	2736.129594611642	4
0	15800	2737.499584393108	3
0	15808	2737.755802781527	4
0	15809	2738.927052156874	3
0	15815	2741.143534737653	2
0	15821	2741.429452927882	3
0	15822	2741.494995568339	2
0	15832	2745.4089310271	1
0	15838	2745.430850660328	2
0	15841	2746.288869870317	1
0	15847	2746.480733200127	0
0	15885	2751.051601996073	1
0	15887	2751.198085945341	2
0	15889	2751.547104510063	3
0	15891	2751.575584228375	4
0	15892	2752.031485422165	3
0	15897	2752.724714217372	2
0	15905	2753.532037563961	1
0	15910	2754.225577117116	0
0	15922	2755.410815584497	1
0	15924	2755.95053742503	0
0	15936	2757.019566246136	1
0	15939	2757.486494501994	0
0	15946	2757.978342485624	1
0	15948	2759.942045621402	2
0	15949	2760.625152350195	1
0	15956	2761.190413357586	0
0	15972	2761.627927621947	1
0	15973	2762.471924708789	0
0	15979	2762.942044476861	1
0	15982	2764.047567044051	0
0	15989	2764.719684156295	1
0	15991	2764.740009445065	2
0	15992	2765.522081012586	1
0	15997	2766.456817256723	0
0	16051	2772.921712573617	1
0	16054	2773.132070199628	0
0	16065	2773.304837665546	1
0	16069	2773.944014052982	0
0	16087	2775.640462460993	1
0	16088	2776.284039374648	0
0	16100	2777.662725182809	1
0	16102	2778.647856867717	0
0	16108	2778.675314874074	1
0	16110	2778.929010328404	2
0	16111	2778.929537589616	1
0	16117	2779.658439556518	0
0	16154	2785.377447355785	1
0	16156	2785.516685277774	0
0	16208	2795.558465113749	1
0	16209	2795.694106439592	0
0	16215	2795.767574286506	1
0	16216	2795.845750963813	0
0	16222	2796.152161635595	1
0	16223	2796.383677782109	0
0	16230	2796.879055490904	1
0	16231	2797.199190147534	0
0	16247	2800.392367768054	1
0	16248	2800.665764711452	0
0	16282	2806.452579204761	1
0	16284	2806.889135943177	2
0	16285	2808.192615583114	1
0	16293	2808.33724678939	0
0	16318	2811.41353837933	1
0	16320	2812.173132388896	2
0	16322	2812.650898493617	3
0	16325	2814.252986678498	2
0	16330	2814.741887146155	1
0	16336	2815.026152278384	0
0	16438	2836.326744472426	1
0	16439	2836.408559213185	0
0	16452	2838.711306543599	1
0	16454	2839.746470410907	2
0	16456	2839.906045975761	3
0	16457	2839.956571929693	2
0	16462	2840.103181084978	1
0	16470	2841.727682571054	0
0	16492	2845.476029264865	1
0	16495	2845.7899829339	0
0	16523	2854.395631918771	1
0	16524	2856.165950217858	0
0	16538	2859.009691133657	1
0	16540	2859.85925170589	2
0	16542	2860.045352746777	3
0	16543	2860.561335384531	2
0	16549	2860.860490457228	3
0	16550	2860.966996630168	2
0	16554	2861.178192552845	3
0	16557	2861.210683668636	2
0	16561	2861.496161484873	3
0	16563	2862.318632887364	4
0	16565	2862.374545649244	5
0	16569	2864.579187364737	6
0	16571	2864.794991866713	7
0	16572	2865.262127437502	6
0	16577	2866.946653900021	5
0	16583	2867.459479982334	6
0	16586	2868.98576856916	5
0	16590	2869.026496158095	6
0	16593	2871.088682154164	5
0	16597	2872.450535202166	6
0	16599	2873.211562430974	7
0	16601	2874.11988834317	8
0	16604	2874.670918473967	7
0	16609	2875.533550120639	6
0	16617	2877.965606862833	7
0	16618	2878.017618443393	6
0	16627	2878.654370402899	5
0	16631	2879.255181333936	6
0	16633	2879.842407206538	7
0	16636	2880.905332964552	6
0	16641	2882.46361625501	5
0	16645	2882.463954776363	6
0	16647	2882.472547298249	7
0	16651	2884.365316795619	8
0	16654	2886.44023844721	7
0	16660	2888.15628226228	6
0	16665	2888.605916621562	5
0	16670	2890.372446118351	4
0	16674	2890.373628130231	5
0	16678	2890.671095457529	6
0	16679	2891.954257965726	5
0	16685	2893.702325494412	6
0	16686	2893.878638089627	5
0	16693	2896.489470339336	4
0	16698	2897.369127682395	3
0	16705	2897.816000169888	4
0	16706	2897.996695630694	3
0	16711	2898.480368822067	2
0	16716	2898.548938697653	1
0	16720	2898.640597539372	2
0	16723	2899.203564699017	1
0	16729	2899.609331066231	2
0	16731	2900.160724934497	3
0	16733	2902.361428939872	4
0	16737	2902.592374015445	5
0	16739	2902.835934900205	6
0	16742	2903.812290703267	5
0	16749	2904.77341846981	4
0	16753	2904.79460602469	5
0	16757	2905.602214566653	6
0	16758	2907.07572916103	5
0	16766	2909.730908944558	6
0	16767	2909.925169511504	5
0	16771	2910.558454375713	6
0	16773	2910.749718643588	7
0	16778	2912.794188627747	8
0	16779	2912.823891845662	7
0	16785	2913.494251177353	8
0	16786	2913.509663981646	7
0	16790	2914.304571286647	8
0	16792	2915.19098140624	9
0	16796	2917.694672427583	10
0	16798	2918.025993263055	9
0	16803	2918.091273087446	8
0	16810	2920.106632716752	7
0	16816	2920.637752816144	6
0	16822	2920.801446562672	7
0	16825	2921.12267927453	6
0	16829	2921.207129134719	7
0	16835	2922.768687982204	8
0	16836	2923.475026662629	7
0	16842	2923.512089094713	8
0	16843	2924.633545766794	7
0	16850	2926.408812934382	6
0	16857	2927.34330048501	5
0	16862	2927.382602530173	4
0	16867	2927.688225716501	3
0	16872	2928.177376918826	2
0	16876	2928.358676181252	3
0	16878	2928.850364997886	4
0	16880	2928.868839487228	5
0	16882	2928.900534228951	6
0	16887	2930.154211817115	5
0	16892	2930.628768299802	4
0	16898	2930.823146189702	5
0	16899	2931.174209785082	4
0	16905	2932.963779192774	5
0	16910	2933.673187141093	4
0	16916	2934.848177371561	5
0	16920	2937.660989856553	6
0	16921	2937.921878599843	5
0	16925	2938.072027848164	6
0	16928	2938.753211417481	5
0	16934	2939.815926524722	4
0	16939	2940.042690726449	3
0	16944	2940.328211102164	2
0	16953	2941.862386487055	1
0	16959	2942.007438629325	2
0	16961	2942.807465031403	3
0	16965	2943.678372493191	4
0	16966	2944.037139217059	3
0	16972	2945.588357369365	4
0	16975	2946.908604424312	3
0	16979	2947.752134214053	4
0	16983	2948.147018210148	5
0	16986	2949.09807176663	4
0	16990	2949.36002536527	5
0	16995	2949.820800249977	6
0	16997	2950.913951950531	7
0	16999	2950.940789872369	8
0	17002	2952.93704189605	7
0	17009	2953.36455467924	8
0	17010	2953.823867426649	7
0	17015	2954.083854555101	6
0	17021	2954.706998270193	7
0	17025	2955.06202050014	8
0	17028	2956.377342092209	9
0	17029	2956.407585545984	8
0	17041	2957.570624968496	9
0	17045	2958.597349087488	10
0	17046	2958.788325753541	9
0	17051	2959.171313885307	8
0	17056	2959.295980016189	7
0	17062	2959.336522080557	8
0	17063	2959.399513707702	7
0	17071	2959.944228164243	8
0	17072	2959.955900806626	7
0	17077	2961.859154822113	6
0	17083	2962.486181788805	7
0	17086	2963.645341448004	6
0	17096	2966.672863702163	7
0	17098	2967.388044773112	8
0	17103	2968.732496682003	9
0	17105	2969.908997000935	8
0	17111	2970.413861697765	9
0	17113	2970.541828349063	10
0	17114	2970.880006145868	9
0	17119	2971.021561280212	8
0	17124	2971.573206799901	7
0	17128	2972.736398295261	8
0	17131	2973.103820168903	7
0	17135	2973.679310077191	8
0	17141	2974.291078076727	7
0	17146	2974.303704547442	6
0	17151	2974.493160496343	5
0	17158	2974.750679650414	6
0	17159	2974.7893004213	5
0	17164	2974.825213319978	4
0	17169	2975.158444013977	3
0	17173	2977.785170388824	4
0	17176	2980.120171478811	3
0	17180	2980.904156475212	4
0	17182	2981.107190386669	5
0	17186	2981.89320198541	4
0	17191	2982.411979779953	3
0	17195	2983.641939949029	4
0	17198	2984.359836513012	3
0	17207	2986.668330097089	2
0	17212	2987.930746263264	1
0	17218	2989.891134211077	0
0	17239	2990.982476962739	1
0	17248	2994.128762486965	2
0	17250	2994.862127397702	3
0	17251	2995.874731727209	2
0	17256	2995.87978763291	1
0	17262	2997.701626151359	0
0	17275	2998.426216459457	1
0	17277	2998.921871334135	0
0	17283	2998.929390060103	1
0	17284	2999.214386604003	0
0	17327	3010.518412013759	1
0	17329	3010.714940724796	2
0	17332	3013.912159828801	1
0	17337	3014.333693154426	0
0	17370	3021.023847593746	1
0	17372	3021.568733812105	2
0	17376	3022.268824570567	3
0	17378	3023.217779336316	4
0	17381	3023.772303501185	3
0	17387	3024.196381308206	2
0	17392	3024.509755375158	1
0	17397	3024.521902015148	0
0	17420	3028.221560205088	1
0	17425	3032.114487337033	0
0	17431	3032.63291951942	1
0	17432	3032.701176972241	0
0	17436	3032.809841931598	1
0	17440	3033.477229995753	2
0	17441	3034.230066858716	1
0	17447	3036.047539390686	2
0	17451	3036.724848235948	3
0	17455	3038.10501812675	2
0	17461	3038.334764135323	1
0	17468	3038.789978376669	0
0	17490	3041.025601600999	1
0	17492	3041.503527318077	2
0	17494	3041.523771885946	1
0	17499	3044.575173586315	0
0	17503	3045.036024435334	1
0	17508	3045.884278512606	2
0	17510	3045.977331177306	3
0	17511	3045.995725710581	2
0	17517	3046.896393526333	1
0	17521	3046.923421527821	2
0	17523	3047.251210738031	3
0	17526	3047.535849921621	2
0	17533	3048.286674614797	1
0	17539	3050.004342229881	0
0	17549	3050.947256661456	1
0	17550	3050.950675383912	0
0	17563	3052.557257917566	1
0	17567	3053.526131128601	0
0	17619	3058.739151344215	1
0	17621	3059.017222307727	2
0	17627	3061.782430006662	1
0	17632	3062.06607035318	0
0	17644	3064.168101271699	1
0	17645	3064.7280164284	0
0	17651	3064.837088500574	1
0	17653	3065.039935752833	2
0	17658	3065.70976581508	3
0	17660	3065.831904296177	2
0	17668	3067.450236718119	1
0	17675	3067.940558336514	0
0	17699	3069.384286800228	1
0	17701	3069.60738594323	2
0	17703	3069.970428642242	3
0	17705	3070.064725090101	4
0	17715	3072.680824543006	3
0	17722	3073.096379098644	4
0	17724	3073.172742051585	5
0	17726	3073.43421285693	6
0	17734	3076.525316566412	5
0	17739	3076.877445837693	4
0	17744	3077.068860835086	3
0	17755	3077.811010268175	4
0	17756	3078.682356362301	3
0	17761	3079.010467970546	2
0	17768	3079.939982374659	1
0	17773	3080.095732016412	0
0	17777	3080.359218986591	1
0	17779	3081.071124081072	2
0	17781	3081.649497173186	3
0	17785	3082.114376554265	4
0	17786	3082.67231932956	3
0	17790	3084.508278195502	4
0	17793	3084.678074987878	3
0	17798	3084.743766640229	2
0	17803	3086.257845660458	1
0	17808	3087.314004999207	0
0	17812	3087.322813127092	1
0	17815	3087.729175612146	0
0	17822	3088.171256902831	1
0	17824	3088.3094981914	2
0	17825	3089.157712666043	1
0	17830	3089.267914685065	0
0	17834	3090.204221670351	1
0	17837	3092.170739180926	0
0	17874	3096.174630408076	1
0	17876	3096.181987759816	2
0	17881	3097.208902682665	1
0	17886	3097.347058867979	0
0	17893	3097.519032133999	1
0	17894	3098.08974842519	0
0	17901	3098.370299602503	1
0	17903	3098.580368157049	2
0	17911	3099.319630541223	1
0	17916	3100.248696260544	0
0	17940	3101.671049877289	1
0	17944	3101.93111604313	2
0	17946	3102.577771777173	1
0	17951	3102.930558512579	0
0	17958	3103.290039327309	1
0	17959	3103.310725368885	0
0	17982	3106.42903433098	1
0	17986	3107.395532095728	0
0	17999	3107.870466212723	1
0	18001	3107.882932195917	2
0	18005	3108.310758617397	3
0	18006	3109.152679821671	2
0	18012	3109.398459822586	3
0	18014	3110.135920615817	2
0	18019	3110.290551420654	1
0	18025	3110.361640721195	2
0	18027	3110.639560595621	3
0	18028	3110.650736856024	2
0	18033	3110.718234923391	1
0	18038	3111.16446392238	0
0	18118	3124.650293904133	1
0	18120	3124.917498619996	2
0	18123	3126.172525532249	1
0	18129	3126.573103074131	2
0	18131	3126.617907661144	3
0	18132	3126.743024077221	2
0	18137	3126.841263061365	1
0	18142	3126.975512770389	0
0	18148	3127.202783440652	1
0	18149	3128.38321576191	0
0	18161	3129.415527783928	1
0	18162	3129.692061629527	0
0	18166	3132.85670319607	1
0	18168	3132.985541661143	2
0	18170	3133.862018252761	3
0	18178	3135.894042536031	4
0	18179	3135.906990800632	3
0	18186	3137.566303322822	2
0	18193	3138.625385537403	3
0	18194	3138.671033281573	2
0	18200	3139.098413031361	1
0	18208	3139.17800265852	2
0	18209	3139.437549848123	1
0	18215	3140.935301512272	0
0	18227	3141.242365887985	1
0	18228	3141.608937312081	0
0	18251	3143.572296517283	1
0	18253	3143.831243588745	2
0	18257	3144.394863978928	3
0	18262	3145.134114076268	4
0	18264	3145.261957487731	5
0	18266	3145.461883429304	6
0	18267	3146.0571908617	5
0	18274	3146.727472625828	4
0	18280	3147.129333112482	5
0	18281	3147.460759252382	4
0	18289	3148.825771514696	3
0	18294	3149.099293117065	2
0	18299	3149.1885661717	1
0	18305	3149.37008119417	2
0	18306	3149.866034052739	1
0	18311	3150.255150055805	0
0	18317	3152.098839015249	1
0	18322	3154.025157774441	2
0	18323	3155.348138820366	1
0	18328	3155.389888049586	0
0	18332	3155.479657908243	1
0	18335	3156.175508457721	0
0	18341	3157.995572652319	1
0	18343	3158.705513655285	2
0	18345	3159.175956430049	3
0	18346	3159.228725069647	2
0	18351	3160.495976914351	1
0	18356	3161.131596081446	0
0	18360	3161.917162464066	1
0	18366	3163.300879375557	0
0	18372	3163.829677740353	1
0	18376	3164.725214563628	0
0	18417	3170.088015721975	1
0	18418	3170.332463254523	0
0	18441	3172.503651501036	1
0	18444	3174.757805543822	0
0	18453	3175.179255547917	1
0	18455	3175.553467451729	2
0	18459	3177.328623154404	3
0	18462	3178.587907032031	2
0	18467	3178.698853740708	1
0	18472	3179.398257565665	0
0	18484	3181.023410003069	1
0	18485	3181.092001798266	0
0	18494	3181.734962454158	1
0	18497	3182.886436954366	0
0	18508	3185.560346056612	1
0	18509	3186.309515708452	0
0	18515	3186.515189341533	1
0	18517	3187.419069192283	0
0	18521	3187.721906545833	1
0	18524	3189.715242844197	0
0	18528	3190.385336185202	1
0	18533	3191.873201279039	0
0	18539	3194.98761025655	1
0	18541	3195.120831269151	2
0	18543	3195.511900353058	1
0	18550	3197.672015417555	0
0	18562	3200.551259304425	1
0	18563	3200.855013718562	0
0	18581	3203.518458673508	1
0	18583	3204.153430593622	2
0	18585	3204.882522243771	1
0	18590	3205.012292726813	0
0	18601	3205.624966733836	1
0	18602	3205.978501145894	0
0	18606	3206.674558779981	1
0	18611	3209.473782282781	0
0	18639	3211.496901514995	1
0	18646	3212.329016750953	0
0	18657	3213.103045414007	1
0	18659	3213.852207606109	0
0	18697	3218.706392580234	1
0	18699	3219.124564942012	2
0	18701	3219.98260487239	3
0	18703	3220.339921144742	4
0	18710	3221.662976869734	5
0	18714	3224.634769176753	6
0	18715	3224.921093982383	5
0	18721	3225.375905576598	6
0	18722	3225.981207267447	5
0	18729	3226.525536898803	4
0	18734	3227.307489982962	3
0	18739	3227.532918590825	2
0	18745	3228.255003080493	1
0	18751	3228.370161597114	2
0	18755	3229.17312190851	1
0	18760	3230.021505251971	0
0	18764	3230.898625160758	1
0	18768	3231.344306612303	2
0	18771	3231.475824144946	1
0	18778	3232.286251145357	2
0	18780	3233.224243130346	1
0	18787	3234.40029356797	0
0	18793	3234.55485695354	1
0	18795	3235.074332348233	0
0	18805	3236.594600403486	1
0	18806	3237.234695225628	0
0	18810	3237.559881642932	1
0	18813	3239.097382242351	0
0	18817	3239.155748950261	1
0	18819	3239.31245085396	2
0	18822	3240.093871010467	1
0	18827	3240.788712193512	0
0	18833	3241.660449885314	1
0	18835	3242.288913371768	0
0	18846	3242.602256053351	1
0	18848	3243.149643391839	0
0	18852	3244.208055390163	1
0	18856	3244.425953625031	2
0	18857	3244.491413229342	1
0	18863	3246.073515556532	2
0	18865	3247.369205655015	3
0	18866	3247.389400710627	2
0	18879	3250.519262016294	3
0	18880	3250.584192355394	2
0	18885	3250.604555080725	1
0	18890	3251.418599978903	0
0	18896	3253.513264447885	1
0	18897	3253.637943626478	0
0	18903	3254.770075760206	1
0	18904	3255.183615103109	0
0	18939	3259.492637429845	1
0	18943	3261.130628902918	0
0	18956	3263.470150772518	1
0	18958	3263.511252692558	2
0	18960	3263.862659610526	3
0	18962	3264.274375487041	4
0	18963	3264.378586838656	3
0	18968	3264.443589805711	2
0	18973	3265.82565120738	1
0	18981	3267.360528173047	2
0	18983	3267.468498946611	3
0	18984	3267.53307927433	2
0	18993	3268.912954258281	1
0	18999	3269.391813646709	0
0	19017	3271.96050782552	1
0	19018	3274.145565265852	0
0	19057	3277.094055019521	1
0	19059	3277.398027033813	2
0	19061	3277.607038862805	3
0	19062	3277.628715989738	2
0	19067	3277.676039253462	1
0	19072	3277.70067591226	0
0	19097	3283.390342351932	1
0	19099	3283.692357873868	2
0	19102	3284.578775291126	1
0	19108	3285.310703854617	2
0	19115	3287.516875091799	1
0	19122	3287.834293783137	2
0	19125	3288.625919997539	1
0	19132	3288.888331370828	2
0	19134	3289.389746936084	3
0	19135	3289.636497288287	2
0	19140	3290.388126687807	1
0	19145	3290.47356414329	0
0	19151	3290.757491031815	1
0	19153	3291.442852350599	0
0	19172	3293.511224514606	1
0	19173	3294.270114925982	0
0	19230	3301.219026520408	1
0	19231	3301.356993928013	0
0	19237	3301.652824887325	1
0	19238	3301.730784336295	0
0	19250	3302.688658485104	1
0	19251	3302.735525338579	0
0	19269	3304.223970065386	1
0	19270	3304.679415258638	0
0	19284	3306.796543033337	1
0	19285	3307.071999785818	0
0	19291	3307.289200254187	1
0	19295	3308.622209747232	0
0	19306	3308.786218496446	1
0	19307	3309.535552301279	0
0	19348	3315.406749326984	1
0	19349	3316.159922724363	0
0	19355	3316.367377446395	1
0	19357	3316.470125655675	2
0	19358	3317.46771197244	1
0	19363	3317.569693024852	0
0	19370	3317.937181679295	1
0	19373	3318.597900405457	2
0	19374	3318.967767179395	1
0	19380	3319.194814262836	2
0	19381	3319.280727970408	1
0	19387	3323.382520243054	2
0	19390	3323.754012217822	1
0	19397	3328.91813165225	0
0	19430	3334.514612811062	1
0	19432	3335.30149772539	2
0	19436	3337.083540034852	1
0	19441	3337.248599660299	0
0	19449	3338.392976343787	1
0	19451	3338.542050295497	2
0	19452	3338.675667745875	1
0	19461	3340.457034595941	2
0	19462	3340.480963742713	1
0	19468	3340.497373657357	2
0	19471	3341.155942065701	3
0	19472	3341.208498496061	2
0	19478	3341.466981121058	1
0	19485	3342.212302997268	2
0	19487	3343.942682856664	1
0	19493	3344.12860430833	2
0	19494	3344.250795791287	1
0	19498	3344.405781610304	2
0	19503	3346.925838568562	3
0	19504	3347.274786687315	2
0	19514	3348.55365989063	3
0	19515	3348.997505955592	2
0	19521	3349.447570250152	1
0	19526	3349.732865440593	0
0	19577	3358.103546608511	1
0	19579	3358.497579749175	2
0	19584	3360.470273506394	1
0	19589	3360.551642331579	0
0	19593	3360.77478648582	1
0	19595	3361.240122140923	2
0	19599	3361.620035459536	1
0	19605	3363.216809148636	2
0	19609	3364.452589551593	1
0	19619	3365.45760135586	2
0	19621	3365.710653508948	3
0	19622	3365.818983858928	2
0	19627	3366.017533840442	1
0	19633	3367.281035363785	0
0	19656	3372.065703694055	1
0	19662	3374.387470927964	0
0	19668	3375.144018120078	1
0	19669	3375.272975317082	0
0	19731	3385.537890139808	1
0	19733	3385.91331596267	2
0	19736	3386.410113694471	1
0	19743	3386.694048864158	2
0	19745	3386.957476475408	1
0	19750	3387.040722071946	0
0	19782	3391.311738317877	1
0	19783	3391.441688307161	0
0	19791	3391.886663541986	1
0	19792	3393.000142725544	0
0	19796	3393.253466073377	1
0	19801	3397.636132746598	0
0	19809	3398.318607610935	1
0	19810	3399.335034232798	0
0	19814	3399.664957739259	1
0	19816	3400.095388635294	2
0	19822	3401.370803559214	3
0	19823	3402.092879640668	2
0	19827	3402.796616760396	3
0	19832	3405.355146118319	2
0	19838	3406.57017304201	3
0	19839	3407.812332069784	2
[...]
4	163917	28082.703720836421	14.246257712804
4	163976	28094.036064334361	25.164694480458
4	163996	28095.92266795069	26.571551123733
4	164001	28095.982072961535	23.200906468325
4	164011	28097.729128540707	21.227849090173
4	164033	28101.303112087591	23.657276359026
4	164113	28117.823793201662	39.693375555584
4	164119	28118.723741304204	39.404649959672
4	164125	28118.942917927964	35.358355302362
4	164130	28118.961451639091	35.105026840366
4	164140	28119.661810716176	33.710893205934
4	164154	28121.875246926312	30.933836866271
4	164192	28124.911731656807	33.122001198825
4	164210	28125.542837999289	30.43223851182
4	164229	28132.63361014759	37.393277702898
4	164278	28143.536833578487	47.856832276192
4	164520	28198.193180506586	98.019847825692
4	164526	28198.354514665531	96.670652119827
4	164531	28198.406172444329	95.075490397929
4	164539	28198.561273847292	88.635115264884
4	164547	28199.077018348257	86.438030970695
4	164556	28199.578303199738	80.3124640287
4	164568	28200.629960909837	81.166707003524
4	164577	28201.825567271169	79.215787229392
4	164602	28205.34009892741	81.920945375079
4	164668	28217.447736778663	92.654421555319
4	164768	28239.211705891429	113.75494736597
4	164774	28239.320467330314	112.85263369023
4	164779	28240.232828536143	112.04450726445
4	164795	28242.364299245387	112.04122015474
4	164855	28254.567399733164	122.22258500292
4	164862	28254.782674945227	122.18833544095
4	164867	28255.780000802724	121.52270256213
4	164874	28257.442801825019	121.83096734883
4	164883	28259.872265407169	120.66817994363
4	164893	28260.876984837356	110.6657525096
4	164904	28262.962714165633	107.21841282544
4	164916	28263.670481823097	98.52824284572
4	164921	28265.393866975089	96.555474810074
4	164939	28269.481903777832	91.391731871816
4	165336	28352.77105769203	170.21689716275
4	165344	28353.296466883956	160.82216693526
4	165391	28362.800595238822	168.78250193615
4	165402	28365.130827436049	170.62700686494
4	165410	28366.05142441581	167.5341172528
4	165419	28367.425023401284	168.45079694387
4	165445	28368.436792857084	165.17098028344
4	165462	28372.789368516645	168.39513562419
4	165470	28372.991787502486	166.75044109088
4	165478	28374.215172463583	165.1102769029
4	165483	28375.345091460127	157.77196349643
4	165494	28378.221007802752	160.40229487733
4	165540	28387.108405852417	168.43047904372
4	165547	28387.313094382636	167.9477170172
4	165552	28387.341921876308	164.81628960823
4	165559	28387.412864503076	157.69478848656
4	165570	28388.813976330595	158.8902811256
4	165577	28391.307983431628	160.15078200067
4	165583	28391.670016504682	158.55608013008
4	165589	28392.01896851906	158.01835220171
4	165594	28392.515269017212	155.03128765304
4	165600	28392.647850883016	143.56650235914
4	165613	28395.74859690427	136.57794525399
4	165987	28455.418822221139	191.84242839515
4	166000	28457.081290736742	189.43181708785
4	166017	28458.053709434328	189.95454071343
4	166026	28460.214867364456	182.46411615081
4	166044	28461.616502979814	183.69732955399
4	166059	28463.48964770306	170.86933843816
4	166119	28473.774830879617	180.07549312064
4	166138	28476.226968417341	182.22510247894
4	166144	28476.676043337755	181.00179083558
4	166149	28478.187558005559	181.51582247338
4	166157	28478.69990664707	174.12192957299
4	166162	28480.11353223525	173.02546198396
4	166168	28481.271263265654	172.04282105207
4	166173	28482.016661896921	171.70634115485
4	166178	28482.029580466537	171.51502168721
4	166183	28486.523186059876	170.08705249437
4	166191	28487.469616249987	167.63099014384
4	166206	28488.846669580544	168.03792420963
4	166213	28489.490564938438	168.36124431362
4	166230	28491.395544113035	167.8435824951
4	166252	28494.903696333571	155.39137992949
4	166259	28498.344163854243	156.39445972792
4	166274	28500.585326042284	154.82412538202
4	166293	28502.361167996859	148.02735920741
4	166308	28505.644272375976	145.82951725344
4	166344	28511.692605637213	149.85031659801
4	166374	28515.145687032073	150.57442493364
4	166388	28516.58826616972	150.74233588611
4	166412	28518.880564124863	146.91074156404
4	166419	28519.013726468132	146.17082658256
4	166431	28520.316525286767	146.45316885427
4	166438	28520.781698652983	141.15849934029
4	166451	28522.234628388532	141.97749288227
4	166457	28522.314877878005	137.87951213668
4	166466	28525.731464261662	135.05384301037
4	166501	28535.264554625296	140.94383272767
4	166633	28563.733906364598	167.14613227404
4	166640	28563.984288449979	166.37203820764
4	166657	28566.867779584469	168.56659050343
4	166675	28570.852199217539	163.3971736487
4	166726	28578.44438810908	167.94165062348
4	166733	28578.963152560937	168.26890530734
4	166749	28582.164798709255	167.92596046852
4	166792	28589.654551410067	174.41780012775
4	166797	28589.956820323706	174.46596756875
4	166802	28590.039128607465	164.61672405364
4	166808	28591.076869483472	157.11211307415
4	166818	28593.729590159421	159.71579439122
4	166826	28595.200716061004	159.61401548053
4	166832	28595.340907575421	155.8544991103
4	166837	28595.409581068807	154.92998673938
4	166844	28596.056455846823	150.34773382537
4	166862	28598.415419558752	150.50904431346
4	166878	28599.746309704174	145.30746278384
4	166883	28599.832095233156	145.26866431321
4	166888	28600.338450646951	143.66748897392
4	166894	28600.899554724468	143.36540393479
4	166901	28602.505309372651	137.85688559436
4	166909	28602.796560856507	136.29310123098
4	166914	28602.917028866024	132.89066126967
4	166925	28605.374047775475	134.14274362685
4	166948	28607.493471229451	131.39212560623
4	166955	28608.062586947054	120.51276434248
4	166968	28609.454867175201	121.2228492151
4	166976	28610.491766046634	104.9083745739
4	166988	28613.99381998624	107.71370325992
4	166998	28614.482160407554	100.19414067717
4	167003	28615.337655004731	98.296833948866
4	167015	28617.959013225391	98.795839395372
4	167055	28623.178869164384	92.502825878595
4	167060	28623.730919829656	90.485633169988
4	167073	28627.031742821274	84.764447413221
4	167147	28639.003608754932	96.527092059122
4	167185	28645.832834246959	100.20747107997
4	167192	28646.767509013372	97.229450817207
4	167201	28647.994400193538	96.61406029387
4	167210	28650.225949233087	91.185516249969
4	167221	28652.53543137947	87.837318216125
4	167226	28653.54283706826	86.791255799561
4	167237	28655.326924831144	87.480446902751
4	167254	28656.569275203636	87.907801360715
4	167260	28658.012324048978	85.363033123569
4	167266	28658.939676970229	80.995742503751
4	167272	28659.786846534785	74.955173387251
4	167278	28660.273323519461	66.905945580095
4	167285	28660.754265727142	58.135727896383
4	167299	28666.160315956308	61.891695645584
4	167313	28668.116429491281	46.301963378064
4	167353	28672.995249529096	38.180825483582
4	167360	28674.598440373747	37.359318728734
4	167365	28674.756620141766	35.430450166614
4	167373	28676.018657656623	32.083930978072
4	167403	28679.951567344304	29.798449544263
4	167411	28682.882593786886	28.058293503435
4	167421	28684.024399161923	15.122774956487
4	167426	28684.117208855965	12.987839501823
4	167434	28685.679204920836	14.486332248193
4	167440	28687.663524966887	11.332984476854
4	167447	28688.329336699934	10.882561658232
4	167455	28689.120969816468	4.607846876383
4	167475	28690.563377143769	2.370871951387
4	167486	28693.49976030545	4.049586468691
4	168101	28822.59192777023	117.0390939952
4	168107	28823.316555300299	99.501947505627
4	168112	28823.32566816287	91.638849975091
4	168119	28823.471314084666	91.625280168851
4	168162	28828.041355378706	90.091511810837
4	168194	28833.558469810445	95.607595974006
4	168205	28834.37208022953	95.575045045933
4	168210	28834.440106064108	95.172833776222
4	168221	28835.92730179589	91.046812026308
4	168231	28837.136514429702	81.983655899771
4	168242	28841.309124299233	64.322231728912
4	168390	28875.962409114387	98.565175120958
4	168401	28876.181271672309	82.541085074462
4	168412	28877.481237874258	80.92707009881
4	168421	28878.23538735737	79.181328458382
4	169254	29029.021527540388	225.99300940485
4	169261	29030.017785465759	226.45417957714
4	169272	29031.296322864467	215.7384594187
4	169345	29043.454554882827	227.72497824252
4	169364	29046.655684310119	211.39789206754
4	169371	29047.997499339227	212.07042046591
4	169377	29048.74439570687	206.8558599214
4	169384	29049.634358246536	202.27672151371
4	169396	29050.339210348592	200.56068830446
4	169401	29050.59568775434	193.49250289959
4	169408	29052.12375064914	191.69421938146
4	169419	29053.702479557781	188.27034753911
4	169424	29054.702404525359	185.90311939347
4	169429	29055.714566454093	181.79064684295
4	169434	29056.718481971167	180.53074235803
4	169447	29058.115609868811	181.09594295848
4	169457	29059.236317127552	179.69759642396
4	169463	29059.247599623506	176.21997845041
4	169472	29060.557753810166	176.84463449003
4	169509	29065.783556446611	180.92620836467
4	169542	29071.553663919481	186.15743375469
4	169562	29073.288442920373	187.45976165367
4	169574	29074.374090176132	186.83752377924
4	169580	29074.487273097952	186.38034755013
4	169604	29079.61307774832	190.77972702522
4	169692	29085.745143963856	195.10664511742
4	169720	29088.392400052523	195.73522906344
4	169725	29088.424941273018	195.33302908959
4	169733	29089.84440474995	191.49550664733
4	169745	29090.155292196592	186.33842234615
4	169752	29092.172170028544	185.63557715543
4	169757	29092.78967810294	184.63623102437
4	169764	29093.767379939173	184.8647845429
4	169781	29095.79340011772	181.55817570641
4	169799	29097.263500414641	177.95716137147
4	169807	29098.403441130628	178.73097893935
4	169817	29100.637147432456	174.65117957252
4	169873	29109.547046869542	182.92584278017
4	169894	29115.827170944569	184.49422293529
4	169917	29119.997964615282	183.41372023053
4	169950	29125.357015272477	187.22944486127
4	169955	29126.34721159539	187.66110613371
4	169962	29126.819054899528	185.86486006346
4	169976	29129.405410765499	187.81168304544
4	169981	29130.480298325556	188.23185034714
4	169986	29130.578540370242	187.33474370516
4	169995	29131.136166446677	170.97519624341
4	170012	29133.185832519727	172.65559716285
4	170024	29134.873991281293	172.01051139545
4	170031	29135.313110656367	167.90285064554
4	170045	29136.773974794732	168.03704535201
4	170057	29138.973497732459	164.71122715991
4	170062	29140.357620814611	165.85553385585
4	170067	29141.184315244429	160.43118853519
4	170076	29142.408000399685	161.23419181758
4	170089	29144.478665492638	161.25978467474
4	170104	29148.729932698519	155.77314807538
4	170172	29156.385574199096	161.8190500533
4	170181	29157.740305954643	154.72762838815
4	170675	29258.969868961673	255.07036028135
4	170685	29259.666480020706	254.71179605478
4	170690	29260.159336413977	236.81603088829
4	170697	29260.690329153114	237.16652064568
4	170721	29264.263243046299	238.89811154082
4	170730	29266.116961166165	240.23400887949
4	170751	29267.62445358576	231.96210854456
4	170757	29268.386803762496	232.55921175511
4	170764	29269.0644952071	232.47917179992
4	170769	29269.099847618552	227.40424426626
4	170778	29270.679149867413	228.84886857599
4	170854	29277.603477119351	230.06581300656
4	170861	29278.123985326638	220.64100362197
4	170872	29278.232855968741	220.20469721927
4	170885	29282.185373460013	216.53610453027
4	170902	29284.00355216192	218.1155928932
4	170909	29285.031474399694	218.04835868038
4	170920	29287.587510539536	220.56174021079
4	170939	29290.225396551364	221.10287924887
4	170947	29291.246605522088	221.67225522569
4	170957	29291.850964792263	222.26140578503
4	170962	29292.799337911634	216.2726479809
4	170967	29292.872749962945	213.97798350556
4	170974	29294.705753980034	215.20366936737
4	170983	29300.504053892291	218.11417372349
4	170999	29303.445402000647	220.90614266209
4	171021	29307.350734971671	224.12530465013
4	171031	29307.59377543174	222.52405195589
4	171036	29307.693794542818	222.05965383579
4	171046	29311.991636349061	225.84933515726
4	171085	29316.510846983944	221.41143365982
4	171104	29319.320434770228	221.87701952603
4	171115	29319.835668165308	210.6761408869
4	171122	29320.120296150465	207.89216017314
4	171127	29320.375558970918	202.81504545333
4	171134	29320.52680656639	192.00179747946
4	171147	29321.999802576045	191.046718347
4	171154	29322.82344079694	191.34715164888
4	171166	29326.328664502774	184.70912171069
4	171193	29332.330842991331	186.07689151039
4	171206	29334.124716683793	185.34608501346
4	171220	29337.200455249447	188.36591307326
4	171231	29338.211161524944	183.59323320632
4	171237	29339.459080494325	183.52067587182
4	171244	29340.886975057372	184.63204368575
4	171249	29341.168377483711	182.08786781891
4	171258	29342.172298607993	182.28630854873
4	171280	29345.600630768936	175.14630076162
4	171292	29348.873309728199	176.65344956924
4	171328	29352.90450955075	177.83785902529
4	171339	29353.776459300484	172.13800530112
4	171346	29353.94411756899	168.30201824016
4	171364	29355.591691061143	159.81337948989
4	171372	29356.658533744404	160.34497429412
4	171379	29358.808642316382	161.07346490049
4	171395	29360.093533822156	159.81325412458
4	171446	29367.155023149338	157.70700470371
4	171451	29367.177662086702	154.16710398072
4	171458	29368.50658031021	154.65785052751
4	171476	29374.335793046294	152.92622077605
4	171504	29380.266315186813	156.76102981844
4	171509	29381.015699572452	151.92064695168
4	171515	29381.902912533757	151.00953029679
4	171525	29382.57052242244	146.27202524441
4	171532	29383.238046618308	140.97460753652
4	171544	29383.727768141209	139.04715945433
4	171554	29384.229628427884	137.2213492999
4	171560	29385.323419185817	126.6496249286
4	171565	29385.542329998226	126.39134115728
4	171580	29390.14716193814	130.95054069575
4	171606	29394.30499167071	132.61513376789
4	171611	29394.433977403633	131.979411876
4	171616	29394.905501568071	125.91637649448
4	171624	29396.342089280117	119.07524253156
4	171645	29399.63320608844	119.005206078
4	171759	29423.558864622464	141.55671641865
4	171768	29424.755662065793	141.19166403188
4	171783	29426.365669935379	142.76712566497
4	171808	29429.041966584848	134.88575018977
4	171820	29433.701331155836	132.73870595012
4	171832	29435.175242082967	133.09629234954
4	171838	29435.655460697777	122.37814969581
4	171855	29439.031085481371	125.22160074444
4	171889	29443.938306878563	121.58985798806
4	171900	29444.432903007952	119.27928265761
4	171909	29445.646314899692	120.1928160807
4	171927	29448.839553381705	120.97363594839
4	171936	29451.273832201168	121.69485329978
4	171947	29451.910531063798	109.73998433866
4	171957	29453.96986920849	105.12817455039
4	171976	29457.588367792578	107.19882858425
4	171988	29458.097303212842	103.78819819225
4	171996	29459.650955425982	104.52674042988
4	172006	29459.813724762777	87.514217403042
4	172016	29461.40075642687	85.738617618384
4	172092	29473.232800315903	94.763216930848
4	172129	29477.768384830875	88.366363484587
4	172134	29477.802538500662	86.276073409043
4	172139	29478.648166768018	86.854924908004
4	172149	29480.690137111926	87.368828473747
4	172155	29481.143225612549	87.091115287731
4	172165	29482.524887232729	85.192135469542
4	172203	29487.237256265847	85.48550197895
4	172211	29487.842351626533	80.605233520192
4	172216	29488.173462186156	79.345571207876
4	172226	29489.428967940726	78.84244720999
4	172255	29492.316102927815	81.182387327096
4	172263	29492.935247320335	80.529315570303
4	172274	29495.838033399327	80.003045357996
4	172283	29497.671210685881	74.753808708279
4	172294	29498.891820025618	70.777804318582
4	172301	29499.4684698012	66.441538134316
4	172325	29502.199426038602	65.829726819547
4	172349	29504.811666400803	68.292197209081
4	172361	29508.133209247731	64.970967966434
4	172419	29516.156154452976	72.517506899073
4	172430	29517.324453176782	63.212300660112
4	172437	29519.221419976115	64.739957555317
4	172449	29522.651986452932	65.009144665544
4	172486	29529.933627801959	69.223146123054
4	172782	29590.426122505387	126.93783706786
4	172787	29590.46483927396	121.54246859162
4	172793	29590.903876222348	111.0945809474
4	172798	29593.210785797298	104.41948053087
4	172805	29593.850354767449	102.70228943777
4	172810	29594.146991706	94.028297317455
4	172827	29597.690447389008	87.215878933818
4	172845	29600.632440476934	71.006598027615
4	172866	29603.195287901803	70.921411779082
4	172871	29603.489922781692	69.552554533119
4	172876	29603.824678788677	68.785357360092
4	172882	29604.334562843503	68.913743807824
4	172892	29606.87143334197	70.146379020049
4	172910	29609.754382939798	64.082700358447
4	172922	29611.538313931898	64.825538855354
4	172932	29613.175490899272	64.799241108917
4	172944	29615.819809861612	67.174222506463
4	172957	29618.202051260632	55.802975750362
4	172962	29618.251000759476	49.484612389564
4	172973	29620.731357952306	51.583870923203
4	172993	29623.880986606983	47.238175167289
4	173657	29758.77751890317	178.86546396734
4	173663	29759.50548011139	179.3566672236
4	173668	29759.962604939711	172.52686658606
4	173674	29760.315524596351	166.67713145456
4	173680	29760.365659404439	165.32454819556
4	173693	29763.372853114505	168.28909517398
4	173712	29764.684771296789	168.43772003469
4	173717	29764.881979529294	158.42279931314
4	173722	29765.619525521756	154.84817051108
4	173748	29771.824477534681	155.26750663083
4	173829	29786.197963030898	167.04049803718
4	173881	29800.156458074934	170.27835175891
4	173892	29803.027702588075	158.04662949688
4	173902	29804.257247075877	155.90748845934
4	173908	29805.035609129895	156.47322601971
4	173914	29805.597011745768	150.35438514234
4	173922	29806.931002916227	142.1627790475
4	173940	29813.399278320535	148.13413348086
4	173962	29815.023563369504	148.156783508
4	173967	29815.094351091834	146.6539136728
4	173981	29817.950843717615	147.52073803055
4	174004	29821.25746010112	146.10334494956
4	174018	29823.622013673659	147.46885143548
4	174027	29824.584912620818	146.96960928214
4	174050	29826.648234455917	148.40769545389
4	174067	29829.617551455027	148.04511749366
4	174087	29833.894606080682	150.36283431382
4	174094	29834.722923075232	147.11212820524
4	174111	29837.665610555051	147.16112645982
4	174152	29841.650988742648	150.83908505433
4	174167	29844.942945978833	148.12897808008
4	174196	29849.854199237744	151.16317763124
4	174216	29853.477510175126	150.87203103088
4	174221	29854.207430323138	133.28281392185
4	174232	29855.901823231214	121.0420413918
4	174273	29861.788062854392	125.84798470809
4	174278	29862.104211572478	111.73215394809
4	174283	29862.556787829339	109.24833725652
4	174288	29862.564053831075	108.95016798866
4	174294	29863.682506799254	108.0868846616
4	174299	29863.704471275792	105.35983891572
4	174304	29865.983761195468	105.25784454762
4	174313	29868.416591650742	105.51920739397
4	174337	29872.429801652998	104.75062867551
4	174370	29878.510880632142	110.57039496497
4	174393	29882.016418619336	113.51202397986
4	174514	29899.73501786707	128.4079103909
4	174522	29901.379815013576	108.9421345518
4	174592	29918.113751221509	123.86095672593
4	174608	29922.107222183367	124.20881146495
4	174620	29923.050354476409	116.29719987559
4	174628	29923.729833118975	116.36417740471
4	174642	29925.013595943231	117.32189565628
4	174658	29926.820052209596	111.40990182328
4	174671	29928.740195775155	112.26540326425
4	174676	29930.270513946422	110.1696500094
4	174683	29930.383699816346	108.24821261793
4	174691	29936.348844252579	111.62194664978
4	174705	29937.924528965822	112.38220347479
4	174716	29938.872344525888	111.17802209363
4	174723	29941.469314249562	113.7691282128
4	174735	29943.915737726375	115.78049553312
4	174742	29947.227715700697	115.12369588929
4	174854	29961.962708159851	124.73820939774
4	174931	29973.543972460741	136.15499462792
4	174937	29973.789663519533	134.66420155853
4	174946	29974.525997154974	135.06359255163
4	174956	29974.629508604704	133.2204579182
4	174961	29974.632423237688	130.24980463148
4	174966	29977.318812166047	132.71072339084
4	174976	29979.756895665816	129.64807565809
4	175053	29987.662419267019	132.22139256491
4	175065	29988.081269400806	128.91664524103
4	175073	29988.562352932064	126.79367215869
4	175097	29991.129565499332	120.24892671167
4	175110	29993.497169132968	116.72959959886

