version 2
run First-n4-11-20191016-17:03:42-8976
attr configname First-n4
attr datetime 20191016-17:03:42
attr experiment First-n4
attr inifile omnetpp.ini
attr iterationvars ""
attr iterationvarsf ""
attr measurement ""
attr network org.omnetpp.queueing.Pizza
attr processid 8976
attr repetition 11
attr replication ""
attr resultdir results
attr runnumber 11
attr seedset 11
param **.PS.maxInventoriedPS 4
param **.U1.interArrivalTime exponential(2s)
param **.U2.interArrivalTime exponential(4s)
param **.PS.serviceTimeForInventoryU1 exponential(0.8s)
param **.PS.serviceTimeForInventoryU2 exponential(1.0s)
param **.PS.serviceTimeDirectU1 exponential(1.2s)
param **.PS.serviceTimeDirectU2 exponential(1.4s)
param **.PS.probabilityProducing 0.5
param **.CS.serviceTimeU1 exponential(0.8s)
param **.CS.serviceTimeU2 exponential(1.0s)

vector 0 Pizza.EntryQueueU1 queueLength:vector ETV
attr interpolationmode sample-hold
attr title "queue length, vector"
vector 1 Pizza.CS queueLength:vector ETV
attr interpolationmode sample-hold
attr title "queue length, vector"
vector 2 Pizza.EntryQueueU2 queueLength:vector ETV
attr interpolationmode sample-hold
attr title "queue length, vector"
vector 3 Pizza.sink lifeTime:vector ETV
attr interpolationmode none
attr title "lifetime of arrived jobs, vector"
attr unit s
vector 4 Pizza.sink lifeTimeU2:vector ETV
attr interpolationmode none
attr title "lifetime of arrived jobs, vector"
attr unit s
vector 5 Pizza.sink lifeTimeU1:vector ETV
attr interpolationmode none
attr title "lifetime of arrived jobs, vector"
attr unit s
0	0	0	0
0	7	0.397559776347	1
0	9	0.82918977245	2
0	12	1.924040615244	1
0	21	3.410677649658	2
0	23	3.605489874977	3
0	25	4.534659223345	2
0	31	5.118339758079	1
0	36	5.262681591808	0
0	48	7.410359181033	1
0	50	7.754101433183	2
0	52	7.805043269295	3
0	58	10.650790573663	4
0	60	11.353524261599	3
0	66	12.54624612408	2
0	71	13.06907548676	1
0	77	13.845846552745	0
0	92	14.641053681864	1
0	93	15.208330796752	0
0	147	26.788209404985	1
0	149	27.501422181734	2
0	152	27.985064944781	3
0	153	27.991089611057	2
0	160	28.317151887249	1
0	165	28.726250410802	0
0	201	38.993654940366	1
0	202	39.626684670994	0
0	206	39.636198346431	1
0	208	39.838411678942	2
0	211	40.479248691195	1
0	216	40.654245025569	0
0	223	41.730015502453	1
0	224	41.935317120177	0
0	243	43.94309496663	1
0	245	45.547627733429	0
0	266	48.548132599211	1
0	267	48.957249921844	0
0	278	49.588123267535	1
0	280	50.057770977603	2
0	285	51.054898257837	1
0	292	52.207712991043	2
0	293	52.547694826258	1
0	298	53.009011752516	0
0	359	70.906322597572	1
0	361	71.439550131178	0
0	367	74.209025166668	1
0	368	74.276765661006	0
0	374	74.984146296326	1
0	375	76.220868674911	0
0	388	78.657895547153	1
0	392	79.371762559001	2
0	397	79.916288610517	3
0	399	80.197065394593	2
0	404	82.349413848957	1
0	411	84.266506090736	0
0	431	86.352173502133	1
0	433	87.06702205404	0
0	473	93.090412327585	1
0	475	94.950764776191	2
0	476	95.707166759314	1
0	482	96.161762056988	2
0	483	96.227630323744	1
0	488	96.393541800049	0
0	529	102.239977279848	1
0	532	104.332773315262	0
0	536	104.68933286327	1
0	540	105.359046191217	2
0	547	106.835532303067	1
0	551	106.990172913107	2
0	558	109.477330004464	1
0	564	110.117320073321	2
0	566	110.688474481107	3
0	572	111.523014418847	4
0	574	112.511750731301	3
0	579	112.565899923322	2
0	585	112.915457762898	3
0	586	113.249785441643	2
0	590	113.260866059767	3
0	592	113.392999199295	4
0	596	115.073074980179	5
0	597	115.241685734034	4
0	602	116.393932394334	3
0	606	116.903907732463	4
0	609	117.738970260964	3
0	613	117.805749372878	4
0	616	118.460251782792	3
0	621	118.57477088717	2
0	629	119.930306501125	3
0	630	120.072532602547	2
0	641	123.421047905364	1
0	647	124.593033735407	2
0	652	126.244239050269	1
0	657	126.383006161966	0
0	693	129.139385522094	1
0	697	131.773571965144	2
0	699	132.345241168848	3
0	702	133.940062516913	2
0	707	135.390827087819	1
0	713	137.568659748475	0
0	722	137.995836403858	1
0	724	138.79823117733	2
0	729	140.852993962539	1
0	736	141.98407590728	2
0	737	142.638627516255	1
0	747	143.474678205284	0
0	760	145.510771816286	1
0	761	145.617734686059	0
0	769	145.891507558464	1
0	770	146.278392091771	0
0	774	149.821893832062	1
0	778	150.06670830339	2
0	782	151.586308930585	3
0	788	154.002153015447	2
0	793	154.459028132785	1
0	799	155.739171835992	0
0	807	158.762671065721	1
0	809	159.147935815592	2
0	811	159.27008887865	3
0	813	159.745337604926	4
0	814	159.802705818745	3
0	820	161.571697820639	4
0	822	161.879420561109	5
0	823	162.279413235668	4
0	828	163.885930152551	3
0	838	165.342245340728	4
0	843	168.202707255008	3
0	848	168.318176096269	2
0	852	169.011930650871	3
0	855	170.161720121587	2
0	862	170.627575672783	1
0	870	171.129628258539	2
0	875	172.74016883212	1
0	879	173.222051676017	2
0	882	173.592411066291	1
0	891	175.406610373605	2
0	893	176.071424374514	1
0	898	177.3289864601	0
0	904	177.615065470471	1
0	906	177.740513505439	0
0	924	178.220058016969	1
0	926	178.298363318574	2
0	927	178.559947233083	1
0	932	178.803529778115	0
0	936	178.916007135203	1
0	939	180.349016887428	0
0	943	180.575413843634	1
0	946	181.063616198116	0
0	950	181.763706535907	1
0	953	182.678892353576	0
0	957	183.44952591199	1
0	960	184.768108226964	0
0	985	187.723746017706	1
0	989	188.359358675098	2
0	991	188.663133555133	1
0	997	188.759536408374	2
0	1000	188.99821436373	1
0	1005	189.122681986895	0
0	1035	192.991717206897	1
0	1038	194.063244532842	0
0	1044	194.475064915955	1
0	1045	194.673834051382	0
0	1049	194.712042980555	1
0	1054	200.915134221895	0
0	1062	201.562918081689	1
0	1063	201.880078157242	0
0	1099	207.775577198329	1
0	1100	207.864509832818	0
0	1108	208.638463052977	1
0	1109	208.984238349636	0
0	1128	210.259637877111	1
0	1130	210.332937095024	2
0	1132	210.632702927235	3
0	1136	213.64039500921	4
0	1138	214.279478940345	5
0	1141	214.417157745947	4
0	1147	215.203451265039	3
0	1154	216.08713381669	2
0	1159	216.260774580748	1
0	1164	216.599915514845	0
0	1194	221.672948676279	1
0	1196	222.010836740882	0
0	1210	223.635965202367	1
0	1215	224.558622767995	0
0	1225	226.967025963252	1
0	1229	228.85161797379	2
0	1231	229.080056479664	3
0	1233	229.147704315475	4
0	1235	229.57549449912	5
0	1237	230.066899171668	6
0	1239	231.292792892171	7
0	1244	233.302884067989	6
0	1252	234.637888130761	5
0	1260	235.350420114588	4
0	1265	235.564507592018	3
0	1269	235.837835458451	4
0	1272	236.700072572999	3
0	1278	238.284600123154	4
0	1279	238.489003996496	3
0	1286	239.410080722871	2
0	1291	239.95442463955	1
0	1295	240.019043133094	2
0	1297	240.96415448416	3
0	1301	242.840608087164	2
0	1306	244.737810844271	1
0	1311	246.029441114955	0
0	1336	250.711399650999	1
0	1337	250.721316340839	0
0	1353	252.918711529285	1
0	1355	252.923202253941	2
0	1357	253.570135194543	1
0	1362	253.738074149845	0
0	1373	254.145611779523	1
0	1374	254.177475183727	0
0	1411	258.965125408498	1
0	1413	259.455661772025	2
0	1415	259.534438288212	3
0	1418	261.435543120189	2
0	1423	261.481839742135	1
0	1431	262.77078361473	2
0	1433	263.256806144063	1
0	1438	263.352230886624	0
0	1444	264.495457250317	1
0	1445	264.78065377031	0
0	1449	265.618217421691	1
0	1451	266.400643069963	2
0	1453	266.458688095941	3
0	1456	268.485983359378	2
0	1463	269.325915474871	1
0	1468	270.26504156456	0
0	1472	271.569724662659	1
0	1475	273.107824298806	0
0	1499	276.69756390108	1
0	1502	277.554675076182	0
0	1508	277.804191159095	1
0	1511	278.425477654778	0
0	1517	278.977089379856	1
0	1520	280.750636897296	0
0	1524	281.752568530237	1
0	1526	284.650517570209	2
0	1529	284.83694188193	1
0	1534	285.507269580443	0
0	1543	286.303303305686	1
0	1547	287.197641010758	2
0	1549	288.424288157703	3
0	1550	289.082818490616	2
0	1557	289.985788413636	1
0	1561	290.143242440884	2
0	1565	290.738534071155	3
0	1566	291.577035995976	2
0	1575	293.3586071435	1
0	1580	293.742791386672	0
0	1587	295.085887464453	1
0	1589	295.115193549711	2
0	1591	295.413651465336	1
0	1596	295.446595522672	0
0	1604	296.128548660851	1
0	1607	296.577120138394	2
0	1611	300.075585483574	1
0	1617	300.90219086809	2
0	1618	300.949626282116	1
0	1624	301.193273596643	2
0	1625	301.305326450733	1
0	1631	302.14678273888	2
0	1634	302.581259022252	1
0	1640	303.049652858993	0
0	1656	303.573925007415	1
0	1659	304.862701146539	2
0	1661	307.036308790161	3
0	1662	307.166119197355	2
0	1667	307.494107469311	1
0	1671	307.738492304268	2
0	1675	307.827206481126	3
0	1680	308.764798008771	4
0	1685	309.232402878935	5
0	1686	309.419095996079	4
0	1691	310.422765720336	3
0	1695	311.025305256766	4
0	1698	311.265008306436	3
0	1704	312.090972943143	4
0	1705	312.500039489074	3
0	1709	312.782463532646	4
0	1712	313.290122929659	3
0	1722	315.353443487555	2
0	1727	315.714318158746	1
0	1731	316.138902845792	2
0	1736	317.063751534786	1
0	1742	318.154884733947	0
0	1753	318.982674132974	1
0	1756	320.794436415363	2
0	1758	320.972675743326	3
0	1759	321.516962096129	2
0	1764	322.572540153106	1
0	1768	324.1110216014	2
0	1772	325.684438577324	3
0	1774	325.722807831504	4
0	1779	328.899800645922	3
0	1783	329.148818255033	4
0	1785	329.296831352741	5
0	1789	329.785374973936	6
0	1790	330.540842668052	5
0	1795	330.905433368186	4
0	1806	332.337521331015	5
0	1807	332.354932561857	4
0	1812	334.020528356074	3
0	1817	334.266306817105	2
0	1823	334.510195638355	3
0	1825	335.607124423926	4
0	1827	336.151718319179	5
0	1828	336.560058800754	4
0	1833	337.058669979208	3
0	1839	337.547628627361	4
0	1840	337.607797450612	3
0	1849	339.392033463399	4
0	1851	339.46711397374	5
0	1855	339.680882332912	6
0	1856	339.759530112106	5
0	1862	340.559932996984	6
0	1863	341.077125158803	5
0	1869	342.436671455544	6
0	1870	342.80623384215	5
0	1876	343.348943745328	4
0	1881	343.733388941676	3
0	1889	345.250173196309	4
0	1893	346.93399459767	5
0	1895	347.162253868523	6
0	1896	347.381787325662	5
0	1901	347.713869008275	4
0	1906	348.688785650081	3
0	1910	350.219540336014	4
0	1915	351.239579522502	3
0	1919	351.269805587812	4
0	1921	351.411343509405	5
0	1923	352.086821960972	6
0	1925	352.779117551499	7
0	1927	353.340138985713	8
0	1931	355.314875413113	9
0	1933	355.365161572746	10
0	1934	355.673150706574	9
0	1943	358.824431429276	8
0	1951	360.005078727827	7
0	1960	360.49084174132	6
0	1965	360.816691327941	5
0	1971	360.865660514436	6
0	1972	362.051309424658	5
0	1978	362.864840824292	6
0	1979	363.761859021248	5
0	1987	364.215476466575	4
0	1992	364.638032835297	3
0	1999	364.935026274426	4
0	2002	365.214812870419	3
0	2007	365.409846833597	2
0	2013	366.409330143459	3
0	2015	366.65610372	4
0	2016	367.003341569031	3
0	2020	368.031226157546	4
0	2024	370.759266898757	5
0	2026	372.609601817909	6
0	2030	373.430104518913	5
0	2035	373.523199108305	4
0	2039	374.151560657356	5
0	2041	374.445328724145	6
0	2043	374.823852010972	7
0	2045	374.840482768646	8
0	2048	375.838933455864	7
0	2056	377.093369141366	8
0	2060	377.800995163325	7
0	2065	378.085414658578	6
0	2072	382.576898641434	5
0	2076	382.76631039683	6
0	2085	384.34334184389	5
0	2090	386.698016521718	4
0	2096	387.660230728905	5
0	2098	388.055556833727	4
0	2103	388.09352339649	3
0	2110	388.512998723877	2
0	2114	388.516378407211	3
0	2117	391.385906129788	2
0	2121	392.366204852792	3
0	2125	394.07571011452	4
0	2126	394.077370115954	3
0	2133	394.936069362819	4
0	2134	396.367518210456	3
0	2141	396.86765885946	2
0	2145	397.080687448553	3
0	2148	397.520898418019	2
0	2152	397.921407119471	3
0	2154	399.925886321683	4
0	2159	402.894586530013	3
0	2164	404.860151045048	2
0	2168	405.08098154332	3
0	2174	407.412874560363	4
0	2175	407.486510131962	3
0	2183	410.073200575779	4
0	2184	410.605887463395	3
0	2190	412.671572181953	2
0	2198	413.978165163697	1
0	2203	414.937970116735	0
0	2224	416.772285086931	1
0	2226	417.494864826089	2
0	2228	418.19101078331	3
0	2229	418.409992509743	2
0	2234	418.698629978019	1
0	2239	419.053335086229	0
0	2246	422.438575945892	1
0	2248	423.225978679129	0
0	2274	428.380237487622	1
0	2280	429.720458072001	2
0	2282	430.454926521161	3
0	2283	430.71569043011	2
0	2289	431.120565365568	1
0	2295	431.68257004385	2
0	2296	432.788777382561	1
0	2301	432.846820399775	0
0	2312	434.259244215526	1
0	2314	435.478957306083	0
0	2320	435.492828649272	1
0	2323	435.952981284923	2
0	2325	435.965157852099	3
0	2327	436.049796238238	2
0	2333	437.021773581089	1
0	2339	438.151254117086	0
0	2375	441.202939014698	1
0	2380	442.822700113603	0
0	2396	446.539553804139	1
0	2398	446.730642381417	2
0	2402	447.094492220461	3
0	2404	447.566657032548	4
0	2405	447.703747636524	3
0	2415	450.519613541741	4
0	2416	450.57787078071	3
0	2421	450.994772673769	2
0	2428	451.659800568707	1
0	2433	451.79367322747	0
0	2447	453.001811013209	1
0	2450	453.204856408953	0
0	2456	453.913066531044	1
0	2459	454.011540250897	0
0	2472	456.036013872063	1
0	2475	457.032593866914	0
0	2483	457.962373182503	1
0	2486	458.368488200143	0
0	2494	458.973856647036	1
0	2496	460.081877829648	0
0	2507	462.883455886672	1
0	2509	463.327073998386	0
0	2524	466.575710824251	1
0	2527	466.663379431935	2
0	2529	466.758267914994	3
0	2531	467.465733290681	2
0	2537	468.093202005772	1
0	2542	468.101240478235	0
0	2573	471.397609460262	1
0	2577	475.000482043489	0
0	2590	475.797642578952	1
0	2593	477.30568894304	0
0	2612	479.957785807112	1
0	2613	480.220125702125	0
0	2634	484.37226299402	1
0	2636	485.242269609154	2
0	2638	485.345442809927	3
0	2640	487.433280467541	4
0	2644	488.380222298133	5
0	2647	488.609355267245	4
0	2656	490.847037553377	3
0	2662	490.984488379055	4
0	2664	491.281341550447	3
0	2670	491.80212600443	4
0	2677	495.193009448672	5
0	2678	495.889090916545	4
0	2686	496.953471369172	3
0	2691	497.148292413343	2
0	2697	497.236066210693	3
0	2700	498.548253418308	2
0	2705	498.730867410754	1
0	2710	499.502697251947	0
0	2763	506.008859124366	1
0	2765	507.428905250512	0
0	2798	511.30505317359	1
0	2801	512.446793401616	2
0	2803	512.721802945624	3
0	2804	512.828948234799	2
0	2810	514.079826009647	1
0	2815	514.287997160146	0
0	2846	517.463900441971	1
0	2851	518.256535493551	0
0	2860	518.617346720906	1
0	2866	520.393909755377	2
0	2870	521.381141096697	3
0	2876	523.115689362444	2
0	2882	523.693388793449	1
0	2888	523.729352642952	2
0	2889	524.609093524232	1
0	2896	525.094328807072	2
0	2899	525.972551044563	1
0	2905	526.120385896358	2
0	2906	526.279415803023	1
0	2911	526.785877281734	0
0	2929	529.136242274441	1
0	2930	529.181938291309	0
0	2965	532.340569521353	1
0	2967	532.783538499852	2
0	2968	532.856109413049	1
0	2973	533.010169192026	0
0	2982	533.961604107335	1
0	2987	534.205021664316	2
0	2988	534.454973874484	1
0	2994	534.463325224887	2
0	2995	534.470670161602	1
0	3004	537.054907786781	0
0	3016	538.337153445792	1
0	3022	540.706343579107	0
0	3048	545.148789263267	1
0	3049	545.712818873275	0
0	3082	550.3076557728	1
0	3084	550.452506175022	2
0	3086	550.462250143273	3
0	3090	551.028258131187	2
0	3095	551.303134444685	1
0	3100	551.705990733588	0
0	3122	555.086588721231	1
0	3123	556.247349445534	0
0	3150	565.484906802766	1
0	3154	566.322927226924	2
0	3158	567.044841827377	3
0	3161	569.779631523237	2
0	3166	569.856228857536	1
0	3172	570.459006049262	0
0	3188	571.926390096838	1
0	3192	573.101875165437	0
0	3198	573.796065990928	1
0	3203	574.872531244036	2
0	3210	577.831495105059	1
0	3215	577.946098542119	0
0	3221	578.1870950068	1
0	3228	579.11056052157	2
0	3229	579.201036932825	1
0	3235	579.318994709167	0
0	3269	582.674057783049	1
0	3273	584.053342754423	2
0	3275	584.984383171035	3
0	3278	587.701587220676	2
0	3283	587.745060678998	1
0	3288	587.872252242158	0
0	3294	588.123675294177	1
0	3295	588.212963210251	0
0	3304	589.457941339556	1
0	3308	589.612967729092	2
0	3310	590.345071279975	3
0	3311	590.516924771499	2
0	3317	591.168944125235	1
0	3324	592.545399085655	0
0	3330	593.502929198762	1
0	3332	595.18574628698	2
0	3336	596.666137405492	3
0	3339	597.656415325992	2
0	3344	598.502026706289	1
0	3348	598.650291771325	2
0	3350	599.012137409754	3
0	3354	600.64582631326	4
0	3360	601.796628438856	5
0	3363	602.01025912601	4
0	3373	602.331046470586	5
0	3375	602.3442823715	6
0	3377	603.190679148961	7
0	3378	604.256866936638	6
0	3382	604.866719285616	7
0	3387	607.514750025283	6
0	3396	608.742560874952	7
0	3398	610.135327970941	6
0	3405	610.919963247406	5
0	3409	611.541655639652	6
0	3411	611.866262807567	7
0	3415	613.333064795503	6
0	3420	614.558305223727	5
0	3426	615.970120558119	6
0	3428	616.263165233755	7
0	3430	617.309343835221	8
0	3435	618.748210754464	9
0	3436	618.757662884748	8
0	3440	619.654979149768	9
0	3442	620.262825042235	10
0	3445	621.147097033959	9
0	3450	621.570481196117	8
0	3455	621.598033696644	7
0	3461	621.751788268427	8
0	3462	622.823097911585	7
0	3468	625.391608187291	8
0	3474	628.915978833128	7
0	3478	628.918056895614	8
0	3480	629.990666913685	9
0	3483	631.878455630493	8
0	3487	632.206927378217	9
0	3490	633.86426159055	8
0	3494	635.754667446743	9
0	3497	637.526732749078	8
0	3508	641.267833071717	9
0	3511	641.518566454612	8
0	3516	641.653094514611	7
0	3522	643.720138266222	8
0	3524	647.503652394213	9
0	3525	647.764969324892	8
0	3529	648.49491657471	9
0	3535	649.61780505779	10
0	3536	650.119998152581	9
0	3540	653.138889460245	10
0	3542	653.522698598527	11
0	3549	657.098460204752	10
0	3556	658.128731186752	9
0	3562	658.64366756633	10
0	3563	658.892180121322	9
0	3567	659.416882251007	10
0	3570	660.517426361235	9
0	3576	661.128203301638	10
0	3577	661.463710104243	9
0	3583	661.879965448025	10
0	3584	661.94636108005	9
0	3591	663.544166926923	8
0	3598	663.978816324896	7
0	3603	664.106782499628	6
0	3607	664.115877014514	7
0	3609	664.15178437587	8
0	3612	665.66295329052	7
0	3616	666.106993447273	8
0	3619	666.475590926611	7
0	3625	667.245169159005	8
0	3627	667.450207368806	9
0	3631	669.208439830525	8
0	3636	669.271714058721	7
0	3641	670.060464195847	6
0	3645	671.510321636128	7
0	3650	672.372499157903	6
0	3654	672.570849260085	7
0	3656	672.715442132566	8
0	3659	674.170913859164	7
0	3664	675.792188507873	6
0	3670	677.985681071863	7
0	3671	678.500101282139	6
0	3677	679.480277148132	5
0	3682	679.821307995323	4
0	3688	680.773537805721	5
0	3689	681.22404973635	4
0	3694	681.640353278716	3
0	3700	682.372037903935	4
0	3703	682.98518078859	3
0	3707	683.477405053953	4
0	3712	684.594514662406	3
0	3716	684.829786746746	4
0	3719	685.274955987773	3
0	3724	688.691842745334	2
0	3729	689.370912585879	1
0	3733	690.400559790606	2
0	3737	692.165650801215	1
0	3743	692.249492031698	2
0	3744	692.486775466574	1
0	3750	692.980421776858	0
0	3762	693.831220291295	1
0	3765	694.623607641001	2
0	3767	695.144763511646	3
0	3768	695.208893012548	2
0	3773	695.27951993967	1
0	3777	697.732326651451	2
0	3779	698.785013480033	3
0	3782	700.102656040475	2
0	3791	702.173617413175	1
0	3796	702.323935336279	0
0	3800	702.735605756808	1
0	3806	703.769679858839	2
0	3808	704.733082731029	1
0	3813	705.929621308115	0
0	3817	706.376404253309	1
0	3820	708.477182724311	0
0	3853	711.276607674383	1
0	3854	711.850356930305	0
0	3861	712.971502382761	1
0	3863	713.272979014313	0
0	3877	714.710358245281	1
0	3880	717.518206450439	0
0	3905	719.745283444482	1
0	3908	720.303832299552	0
0	3917	722.479641537146	1
0	3918	722.574158975842	0
0	3956	726.782258078389	1
0	3957	727.209247935051	0
0	3990	730.128475063109	1
0	3992	730.677579187996	2
0	3995	732.107185262687	1
0	4001	733.331793192714	0
0	4029	737.653842100552	1
0	4031	737.932907679636	2
0	4033	739.678316157447	3
0	4042	742.872695051753	2
0	4047	742.941503695025	1
0	4052	743.183810847909	0
0	4059	744.334393610546	1
0	4060	744.643353872823	0
0	4066	744.822363339627	1
0	4068	744.978591937727	2
0	4069	745.002082640508	1
0	4074	745.598387369693	0
0	4090	747.775565198184	1
0	4091	747.960540700978	0
0	4102	749.53946789932	1
0	4103	750.529812493919	0
0	4109	751.503132728899	1
0	4112	751.98043897332	2
0	4117	752.553786913222	1
0	4123	753.032784662828	2
0	4127	755.095324148255	1
0	4132	756.398153265879	0
0	4156	759.022056810227	1
0	4159	759.852964776139	0
0	4167	759.996462359857	1
0	4168	760.308518042046	0
0	4212	764.099652061832	1
0	4214	764.255572827944	2
0	4218	766.944122634403	3
0	4219	767.21252058126	2
0	4225	767.361410445738	1
0	4230	767.413127780488	0
0	4251	769.482704937224	1
0	4254	770.333916367907	0
0	4280	772.645392032006	1
0	4281	773.004013069235	0
0	4290	773.984296776513	1
0	4294	778.622558193073	2
0	4298	779.601364041559	1
0	4304	779.659588899271	2
0	4306	780.629329575027	3
0	4310	782.68047134375	2
0	4316	783.695731325743	1
0	4322	784.691004426958	0
0	4335	785.158283663641	1
0	4340	785.522059172947	0
0	4364	789.279247634753	1
0	4367	791.555165459073	0
0	4379	792.674988854531	1
0	4380	792.892132069479	0
0	4395	795.916280252207	1
0	4398	796.63558356937	0
0	4407	797.359453107577	1
0	4408	797.440249396392	0
0	4422	798.355341011429	1
0	4426	799.20792780462	0
0	4435	800.32353303545	1
0	4438	801.613101661364	0
0	4449	803.479707549616	1
0	4451	803.837147401502	2
0	4454	804.75396394226	1
0	4459	804.977749990878	0
0	4506	813.282203999578	1
0	4509	813.447540382232	2
0	4510	814.025096427848	1
0	4517	814.505595512927	0
0	4528	815.224009473213	1
0	4531	815.568754840487	2
0	4533	815.972976044195	3
0	4534	816.350680274805	2
0	4542	819.783350975144	1
0	4547	820.811174141143	0
0	4605	828.721223989695	1
0	4612	831.949244478073	0
0	4620	833.530621035906	1
0	4621	834.077543434977	0
0	4628	834.642818934968	1
0	4629	834.770709797137	0
0	4635	835.377240983746	1
0	4636	835.638348609392	0
0	4642	835.86335631996	1
0	4646	836.141440107702	2
0	4648	837.021532142853	1
0	4653	837.164240763652	0
0	4662	837.372795017495	1
0	4665	838.903602407451	0
0	4683	841.179033479087	1
0	4685	842.553715039012	0
0	4709	846.822137166827	1
0	4710	847.131806865135	0
0	4716	847.187313639685	1
0	4718	847.674431688065	0
0	4762	863.415584309932	1
0	4767	863.73852254056	2
0	4768	864.173186872383	1
0	4776	865.153285029754	2
0	4778	865.415572972128	1
0	4784	865.673132468536	0
0	4796	867.017642901449	1
0	4800	868.883657608715	0
0	4819	870.082761236074	1
0	4820	871.450918123547	0
0	4843	874.78408196921	1
0	4844	875.236702536665	0
0	4874	877.958168877503	1
0	4881	879.477871991754	0
0	4887	879.940214782205	1
0	4888	880.147795828535	0
0	4900	881.863981871357	1
0	4903	883.006463902267	0
0	4932	886.780684470204	1
0	4933	887.033990101941	0
0	4939	887.081621450681	1
0	4940	887.461670487211	0
0	5008	901.026087610134	1
0	5010	901.352959938946	2
0	5011	901.43252514972	1
0	5016	902.020705506617	0
0	5022	903.105881030782	1
0	5023	903.237777951019	0
0	5037	905.73972694861	1
0	5039	906.275540889024	2
0	5041	906.444640050395	3
0	5043	906.514499443232	4
0	5047	910.599723948332	3
0	5052	910.819343950188	2
0	5060	912.36133592597	1
0	5065	912.578100606	0
0	5123	921.860217914135	1
0	5126	922.094935940435	0
0	5157	929.442631560018	1
0	5158	929.946316582082	0
0	5188	932.897225837239	1
0	5189	933.038048781829	0
0	5195	933.59028596207	1
0	5198	933.765741415606	0
0	5205	935.191499595589	1
0	5207	935.993516063657	0
0	5226	937.487449855648	1
0	5228	937.595592651626	2
0	5230	937.941153670876	3
0	5232	938.480900375138	2
0	5240	939.545497617589	3
0	5243	940.874829799131	2
0	5247	940.907106218783	3
0	5251	942.940957950359	4
0	5252	943.510699199144	3
0	5256	946.05294494495	4
0	5261	946.970461271414	3
0	5266	947.046150015265	2
0	5271	947.10609941156	1
0	5275	947.728738716187	2
0	5278	948.631818922812	1
0	5285	951.043233510197	0
0	5289	951.097298517875	1
0	5292	951.6469878661	0
0	5328	959.008322973351	1
0	5330	960.603003382706	2
0	5335	961.032601405749	1
0	5339	961.368335700451	2
0	5341	961.510072627189	3
0	5349	963.614938062897	4
0	5350	963.680665011477	3
0	5355	963.754912790653	2
0	5360	963.855511203028	1
0	5366	965.643121808599	0
0	5388	969.136565657904	1
0	5391	969.244866974796	0
0	5410	972.539412383943	1
0	5413	973.603655838067	0
0	5428	976.916035731391	1
0	5429	977.140901464033	0
0	5435	977.505343613266	1
0	5436	978.204870651797	0
0	5467	983.698516202922	1
0	5469	984.17100035743	2
0	5471	984.484401176805	3
0	5473	984.641514758912	2
0	5480	985.700384417009	3
0	5481	985.812684713568	2
0	5488	986.163939631426	1
0	5495	986.677937173864	2
0	5496	987.489360406594	1
0	5503	988.009437152821	2
0	5504	988.987822950489	1
0	5509	989.3032940401	0
0	5527	991.031939078126	1
0	5529	991.136324407579	2
0	5531	991.95572375527	1
0	5537	994.554787593418	2
0	5547	998.428093320666	3
0	5550	999.058042120674	2
0	5556	999.936494705276	1
0	5561	1000.285887689915	0
0	5613	1008.167973194291	1
0	5615	1008.185434238172	2
0	5617	1008.420456962804	3
0	5620	1008.928258734128	2
0	5627	1009.137174125687	1
0	5632	1009.307342181583	0
0	5667	1018.06696051395	1
0	5669	1018.259450526139	0
0	5682	1018.773534936277	1
0	5684	1018.821609340083	2
0	5687	1020.403742633618	3
0	5688	1020.464630885247	2
0	5693	1020.599742605247	1
0	5699	1021.878489164951	0
0	5703	1023.084880580587	1
0	5706	1026.371328888404	0
0	5776	1038.307750688174	1
0	5777	1040.320167335902	0
0	5812	1046.942113759782	1
0	5814	1046.965050894913	2
0	5816	1047.352757136829	3
0	5828	1050.779468698642	2
0	5833	1051.087394955662	1
0	5839	1051.108014447616	2
0	5841	1051.419177569398	3
0	5843	1051.907794065361	2
0	5848	1052.8596423533	1
0	5853	1053.45203255157	0
0	5857	1053.703690805465	1
0	5859	1053.868633716641	2
0	5861	1054.873727643715	3
0	5865	1056.479959215756	2
0	5870	1056.903258433633	1
0	5874	1057.354285216338	2
0	5876	1057.358174532037	3
0	5880	1057.897802912402	4
0	5882	1058.500547242539	5
0	5887	1062.054483688296	4
0	5892	1062.455432079084	3
0	5901	1063.039718994084	4
0	5907	1064.132199882812	5
0	5908	1064.253812662664	4
0	5913	1064.53644316883	3
0	5919	1065.182646815324	4
0	5921	1065.784501439722	5
0	5925	1066.150773546139	6
0	5927	1067.671873683211	7
0	5930	1069.34950394192	6
0	5935	1069.913714395475	5
0	5941	1071.049194514769	4
0	5948	1071.187543809385	3
0	5954	1072.776023145879	4
0	5959	1074.317274228809	5
0	5962	1075.077075270871	4
0	5967	1075.273291036472	3
0	5971	1075.832025266924	4
0	5975	1076.277745908679	5
0	5977	1076.757291107479	6
0	5979	1077.098491790371	7
0	5981	1077.457354131323	8
0	5983	1077.887621476669	9
0	5984	1078.216510168039	8
0	5988	1078.311483436289	9
0	5990	1079.516403725563	10
0	5994	1079.731174667487	11
0	5996	1080.092554487472	10
0	6002	1080.103355377483	11
0	6003	1080.108072276907	10
0	6009	1083.086410406943	11
0	6019	1086.705400862977	10
0	6024	1087.844676915825	9
0	6029	1088.359987510151	8
0	6035	1089.77714279688	9
0	6038	1090.863996255547	8
0	6042	1091.127559590752	9
0	6045	1091.663850769315	8
0	6049	1094.379847361573	9
0	6054	1098.400231200855	10
0	6055	1099.019953483536	9
0	6064	1101.057488376401	8
0	6074	1104.111961548047	7
0	6080	1106.081541477753	8
0	6082	1106.128169414285	9
0	6083	1106.673004443597	8
0	6089	1108.882546176014	7
0	6095	1111.701472368802	8
0	6096	1111.862500561418	7
0	6102	1112.7850210151	8
0	6103	1113.078795682589	7
0	6109	1114.253676459951	8
0	6111	1114.296954100698	9
0	6112	1114.323458154648	8
0	6117	1116.138056186852	7
0	6122	1117.713778866834	6
0	6126	1117.849863973615	7
0	6128	1118.08659102373	8
0	6131	1119.790163227308	7
0	6136	1121.619619697841	6
0	6141	1122.56868608322	5
0	6148	1123.408906634714	6
0	6149	1123.96134208813	5
0	6155	1124.406101744654	6
0	6157	1124.671141326099	7
0	6162	1125.638774245713	6
0	6167	1125.93397728793	5
0	6171	1126.837040343265	6
0	6175	1127.585991513285	7
0	6176	1130.28676437426	6
0	6180	1130.59158221058	7
0	6184	1131.17478872919	8
0	6186	1131.295516573173	9
0	6189	1131.594964521299	8
0	6194	1131.612889229185	7
0	6200	1131.929155183204	6
0	6205	1133.999792296128	5
0	6211	1134.958600043421	6
0	6212	1135.296775872888	5
0	6217	1136.636736906352	4
0	6224	1137.819933368381	3
0	6230	1140.610738340006	2
0	6235	1140.783825585084	1
0	6241	1142.321035458668	0
0	6258	1144.960217462967	1
0	6259	1145.037602158938	0
0	6305	1153.933028137287	1
0	6309	1155.042514781756	0
0	6320	1155.714819811605	1
0	6323	1156.932695330831	2
0	6324	1157.493670466112	1
0	6330	1157.866815552883	2
0	6331	1158.16909614243	1
0	6337	1158.727146389228	0
0	6360	1163.268900547419	1
0	6362	1163.376709580739	2
0	6363	1163.521714236345	1
0	6370	1164.62080139535	0
0	6384	1166.336555146014	1
0	6386	1166.593268056629	2
0	6387	1166.954208566998	1
0	6392	1167.041403637825	0
0	6427	1173.201991910729	1
0	6428	1173.54075044687	0
0	6434	1173.823016400638	1
0	6439	1174.681746332821	2
0	6440	1174.790594057057	1
0	6445	1174.966044295475	0
0	6464	1178.442151741921	1
0	6466	1179.185632772414	0
0	6495	1183.616061025538	1
0	6498	1184.198399256889	2
0	6499	1185.249338085925	1
0	6506	1186.557925570842	0
0	6518	1187.75754919151	1
0	6520	1188.383848751473	0
0	6529	1189.544873028936	1
0	6532	1189.8393432888	2
0	6534	1191.322954291752	1
0	6539	1191.550686253709	0
0	6578	1198.587525520766	1
0	6579	1198.835640052649	0
0	6585	1198.849736144554	1
0	6589	1199.747477223716	2
0	6591	1200.143888413266	3
0	6594	1200.896274830116	2
0	6599	1201.096847216795	1
0	6604	1202.521671018064	0
0	6625	1204.966008862371	1
0	6626	1205.353701924221	0
0	6653	1210.150860856219	1
0	6654	1210.161460620749	0
0	6661	1210.764221019767	1
0	6663	1210.836282065307	2
0	6666	1211.631219065701	1
0	6673	1213.350356739883	2
0	6674	1214.305972310531	1
0	6679	1215.077049166865	0
0	6697	1218.204010044521	1
0	6700	1220.221770999174	0
0	6725	1222.559634481714	1
0	6730	1223.289937845421	0
0	6743	1225.66594921025	1
0	6745	1226.078515169336	0
0	6782	1232.728177551849	1
0	6785	1233.75185856753	0
0	6793	1234.571300292665	1
0	6794	1235.81067634669	0
0	6809	1237.789549024118	1
0	6810	1237.829200694562	0
0	6816	1238.717122234915	1
0	6818	1238.819449138897	2
0	6819	1238.947042941917	1
0	6827	1239.563535588	0
0	6844	1242.152022100832	1
0	6845	1242.184190273316	0
0	6866	1243.337633037906	1
0	6875	1246.624611739064	0
0	6881	1246.800095956655	1
0	6884	1248.152407208665	2
0	6885	1249.321789234741	1
0	6890	1249.358968715598	0
0	6901	1250.652005361082	1
0	6904	1251.206677797444	0
0	6939	1255.876949505943	1
0	6944	1257.222273468952	0
0	6959	1259.575332635836	1
0	6960	1261.961217168459	0
0	6969	1262.909536466457	1
0	6970	1263.284670634686	0
0	6995	1266.42821213991	1
0	6996	1267.087095888819	0
0	7026	1277.690852668555	1
0	7028	1278.216995925909	0
0	7035	1279.398064076676	1
0	7038	1279.618810315812	0
0	7052	1280.482384165849	1
0	7054	1280.816134355091	2
0	7055	1280.883261560618	1
0	7060	1281.158734809877	0
0	7075	1283.07529989343	1
0	7079	1283.590220529171	0
0	7102	1286.49718071664	1
0	7103	1287.1293273663	0
0	7109	1287.195116907005	1
0	7110	1287.488040378533	0
0	7126	1290.885284210562	1
0	7128	1290.894805685043	2
0	7129	1290.962755241372	1
0	7134	1291.001859409934	0
0	7145	1291.866908101941	1
0	7147	1292.729763363538	0
0	7167	1297.367362917562	1
0	7169	1297.594472251896	2
0	7170	1297.754595602254	1
0	7175	1298.455060757676	0
0	7188	1301.65991518315	1
0	7189	1302.251704599592	0
0	7193	1303.165143588176	1
0	7197	1304.368138261938	2
0	7201	1304.862234312861	3
0	7205	1305.414028364154	4
0	7208	1306.308893419908	5
0	7211	1307.160453324897	6
0	7212	1307.351418227991	5
0	7217	1307.429187723598	4
0	7224	1308.874376696836	3
0	7231	1309.294384677864	2
0	7236	1310.014932007791	1
0	7241	1310.191531372951	0
0	7247	1310.476638048706	1
0	7248	1310.603839118774	0
0	7254	1312.888138167202	1
0	7256	1313.105192397821	0
0	7262	1313.172034414084	1
0	7265	1313.401563110366	2
0	7266	1313.447216684042	1
0	7271	1313.780525071641	0
0	7275	1313.814052307543	1
0	7279	1314.216825447796	2
0	7281	1315.4388882042	3
0	7287	1317.034598705345	2
0	7293	1318.749148955524	3
0	7294	1318.769488548532	2
0	7298	1318.825873354427	3
0	7307	1321.296575011178	4
0	7308	1322.522600333241	3
0	7314	1322.86178828963	2
0	7319	1322.955339674682	1
0	7325	1326.04905713238	0
0	7331	1326.143131524708	1
0	7333	1326.175334995019	2
0	7335	1326.367299645502	3
0	7338	1327.80866993044	2
0	7346	1328.296054354205	3
0	7348	1328.32960208402	4
0	7349	1329.201753969258	3
0	7357	1330.926416049735	2
0	7363	1331.011562347133	3
0	7364	1331.059718691722	2
0	7372	1332.675702292319	3
0	7376	1333.322528530683	4
0	7378	1333.882572924229	5
0	7383	1335.832934985114	4
0	7387	1336.208485408073	5
0	7390	1337.1005680577	4
0	7394	1337.286468818535	5
0	7396	1337.378959089641	6
0	7400	1337.517047484592	7
0	7401	1337.714050321245	6
0	7407	1342.072843670548	7
0	7411	1343.4556933489	8
0	7413	1343.788040837475	9
0	7415	1345.020082273959	10
0	7416	1345.469076479277	9
0	7420	1345.696495888437	10
0	7426	1349.671129343778	9
0	7432	1349.728877579193	8
0	7437	1350.05458239546	7
0	7446	1350.941384786971	6
0	7455	1351.94967348552	5
0	7462	1353.131624634525	4
0	7468	1353.735496708184	5
0	7469	1353.890555299995	4
0	7475	1355.526578463591	5
0	7476	1355.73194559491	4
0	7481	1356.907442438399	3
0	7485	1357.137894224476	4
0	7487	1357.303463054594	5
0	7491	1359.462700624986	6
0	7494	1359.94430051618	5
0	7499	1360.661123701163	4
0	7503	1361.494634507631	5
0	7505	1361.752246997581	6
0	7510	1365.358553582706	5
0	7517	1365.803961057095	4
0	7522	1366.374505670228	3
0	7531	1369.462584303718	2
0	7537	1369.731880138079	3
0	7540	1371.749955967932	2
0	7546	1371.808639163861	3
0	7547	1372.419673518761	2
0	7554	1374.683914647429	1
0	7560	1375.31695808645	0
0	7577	1377.955291792679	1
0	7578	1378.147073066225	0
0	7586	1379.443994273447	1
0	7587	1379.507851481113	0
0	7605	1382.192183308628	1
0	7607	1383.403021514812	0
0	7619	1384.484684179513	1
0	7621	1386.599080932203	2
0	7622	1387.621463279133	1
0	7628	1387.738429156975	0
0	7641	1390.004061556891	1
0	7642	1391.078657990277	0
0	7664	1393.327758748876	1
0	7665	1393.331001744965	0
0	7676	1393.707060239917	1
0	7677	1393.865592718411	0
0	7686	1396.113869468674	1
0	7688	1397.534205183604	2
0	7692	1399.490790742633	3
0	7694	1400.012415894806	4
0	7696	1400.469752242119	5
0	7697	1400.478631508558	4
0	7703	1400.616917573431	5
0	7706	1400.87274857859	6
0	7707	1401.18401534132	5
0	7714	1403.036634896867	4
0	7721	1404.763310293245	3
0	7726	1404.885602410608	2
0	7732	1405.770361899551	1
0	7738	1405.973965945589	2
0	7741	1406.615794736894	3
0	7742	1406.615855107112	2
0	7746	1407.187109812823	3
0	7752	1407.655034874236	2
0	7757	1408.488494447613	1
0	7764	1409.195797274978	2
0	7766	1409.757651368154	3
0	7769	1410.288203312629	2
0	7775	1410.833710664349	3
0	7777	1411.073628356757	4
0	7782	1412.541881045304	5
0	7783	1412.54866032901	4
0	7792	1413.50744895542	3
0	7798	1414.349787085124	2
0	7807	1415.210532839155	3
0	7809	1415.593055714564	4
0	7811	1415.923890459775	5
0	7812	1416.255621260066	4
0	7819	1416.855713930605	3
0	7824	1417.460667610667	2
0	7832	1417.929624100126	3
0	7833	1418.94224836142	2
0	7839	1420.193182995036	3
0	7842	1421.889519373369	2
0	7848	1422.575430171645	3
0	7851	1422.799835582147	2
0	7856	1423.273492942888	1
0	7861	1423.597673247935	0
0	7865	1424.004045365162	1
0	7867	1424.34437334788	2
0	7869	1424.438832869215	3
0	7873	1426.982522637988	4
0	7874	1428.661447784991	3
0	7878	1428.677078998819	4
0	7880	1428.772732658277	5
0	7882	1429.001845163602	6
0	7887	1430.913909135773	5
0	7893	1431.529857989233	6
0	7896	1432.718955030773	5
0	7904	1434.150791042732	6
0	7911	1434.999060470789	5
0	7916	1435.505726381033	4
0	7921	1436.288414370958	3
0	7926	1437.164623921314	2
0	7931	1437.43114706759	1
0	7937	1438.306663467858	2
0	7939	1438.728292517956	1
0	7945	1438.829122125342	2
0	7946	1439.013013338852	1
0	7950	1441.795196991557	2
0	7953	1442.390254362863	1
0	7959	1444.008856264617	0
0	8009	1449.025820380009	1
0	8011	1449.195584994698	2
0	8015	1450.562667997563	3
0	8016	1450.756375351896	2
0	8024	1451.212391727542	1
0	8029	1451.820324478135	0
0	8035	1452.358389389266	1
0	8037	1452.543483403658	2
0	8039	1452.792364547894	1
0	8043	1453.594800828469	2
0	8051	1455.416561952789	1
0	8056	1455.854773698065	0
0	8087	1458.02070169182	1
0	8094	1459.389763051351	2
0	8097	1459.676914612227	3
0	8100	1460.623414329433	4
0	8102	1463.751441640384	3
0	8110	1464.379970656801	4
0	8111	1464.910551428559	3
0	8117	1465.110295583327	2
0	8123	1466.192119598637	1
0	8128	1466.286393585515	0
0	8155	1467.798561236396	1
0	8156	1467.883815333801	0
0	8163	1468.135888027254	1
0	8164	1468.437891847671	0
0	8170	1469.124910023512	1
0	8173	1470.911213456773	0
0	8208	1472.988008855706	1
0	8212	1474.900816573765	2
0	8214	1475.48759462883	1
0	8220	1475.630321274275	0
0	8233	1477.930913660796	1
0	8234	1478.923304022786	0
0	8252	1480.579920021768	1
0	8253	1480.835171216307	0
0	8281	1485.409027273176	1
0	8282	1485.814819943698	0
0	8303	1486.825551428063	1
0	8308	1487.975420322269	0
0	8314	1488.011790746597	1
0	8316	1488.37448455218	0
0	8324	1488.556832277075	1
0	8326	1488.569348380382	2
0	8328	1488.833192971793	1
0	8333	1488.880091419854	0
0	8339	1489.650254696763	1
0	8340	1489.907499012404	0
0	8351	1490.64228973316	1
0	8352	1490.766509920748	0
0	8359	1491.702835690076	1
0	8360	1492.204218351932	0
0	8383	1494.685138243438	1
0	8386	1496.176231308518	0
0	8406	1499.111191305358	1
0	8407	1499.860863340084	0
0	8416	1501.53231748812	1
0	8418	1502.417695858769	0
0	8451	1507.05715702538	1
0	8452	1507.73067245291	0
0	8471	1509.588062245388	1
0	8472	1510.98862890701	0
0	8481	1511.882896365119	1
0	8482	1513.298262148248	0
0	8493	1514.090466714373	1
0	8495	1515.244393721607	0
0	8501	1515.491984177635	1
0	8503	1516.10861687965	2
0	8504	1516.210903975996	1
0	8511	1517.451037541358	2
0	8512	1517.480021662826	1
0	8518	1517.848557285144	0
0	8545	1521.016763816797	1
0	8548	1521.346070358278	2
0	8549	1522.181289624394	1
0	8554	1522.871889855721	0
0	8561	1523.321663799993	1
0	8564	1523.986830695576	0
0	8577	1525.287706202033	1
0	8578	1525.413971131327	0
0	8598	1527.961027499657	1
0	8604	1528.152327406787	2
0	8605	1529.425463045616	1
0	8614	1530.712261845136	0
0	8634	1534.615252196389	1
0	8637	1534.914441100669	0
0	8657	1538.021751465992	1
0	8661	1539.21550288294	2
0	8663	1539.604224644652	3
0	8665	1541.139427663401	2
0	8670	1541.572850770594	1
0	8675	1542.817217550231	0
0	8690	1544.505988709329	1
0	8694	1546.196171673118	0
0	8711	1547.620788920065	1
0	8713	1547.710053576653	2
0	8714	1547.949058240941	1
0	8721	1548.621747408575	0
0	8733	1549.461026967207	1
0	8735	1550.153395816636	2
0	8737	1550.505392320795	3
0	8740	1551.527152962047	2
0	8746	1552.30139238278	1
0	8755	1552.690945740033	2
0	8756	1554.18317207229	1
0	8761	1555.138991733193	0
0	8773	1557.515886305795	1
0	8774	1557.931070410757	0
0	8790	1559.484187412385	1
0	8794	1561.322539774299	0
0	8800	1561.786902650853	1
0	8802	1562.044085281136	0
0	8810	1563.478942709645	1
0	8811	1564.866422134061	0
0	8859	1569.572853755043	1
0	8860	1569.85398039257	0
0	8895	1574.860370105455	1
0	8896	1575.332618488506	0
0	8907	1576.34931137393	1
0	8909	1576.559573237491	2
0	8913	1577.581415030307	1
0	8919	1578.006561383087	2
0	8920	1578.354890959215	1
0	8925	1578.891363507598	0
0	8979	1585.449310817688	1
0	8982	1585.675983514131	2
0	8983	1586.639530469201	1
0	8988	1586.808239205185	0
0	8994	1587.042598195846	1
0	8998	1587.516345819372	0
0	9004	1587.72197506163	1
0	9005	1588.132174819834	0
0	9009	1588.405261164319	1
0	9013	1589.062903048665	0
0	9026	1590.977500928824	1
0	9027	1591.060480535715	0
0	9034	1593.217808545233	1
0	9037	1593.78796130803	0
0	9045	1594.484772094622	1
0	9047	1595.089648271843	0
0	9063	1595.393231953066	1
0	9065	1596.203549257975	0
0	9083	1597.909709741344	1
0	9086	1598.370498147542	2
0	9089	1599.851140637857	1
0	9099	1604.918465298291	0
0	9123	1606.992127230217	1
0	9124	1607.313183309707	0
0	9189	1622.823531585439	1
0	9192	1623.305730361588	0
0	9236	1630.477807570091	1
0	9237	1630.505394748094	0
0	9254	1634.627119027502	1
0	9256	1634.698061723151	2
0	9259	1635.784939689739	1
0	9264	1636.142960366451	0
0	9270	1636.46969516991	1
0	9273	1636.947537945023	0
0	9291	1641.252793378438	1
0	9292	1641.462988463557	0
0	9305	1642.963830755672	1
0	9307	1643.730475054897	2
0	9308	1645.809533082151	1
0	9314	1646.861211477896	0
0	9320	1648.723729617727	1
0	9321	1649.229307132445	0
0	9340	1650.405434289375	1
0	9342	1650.522773110677	2
0	9344	1650.572886596317	3
0	9345	1650.950672712892	2
0	9350	1651.093937485897	1
0	9355	1654.428820280735	0
0	9382	1657.657694681473	1
0	9385	1658.358196470672	0
0	9396	1660.638561596071	1
0	9399	1661.744826412696	0
0	9418	1663.809391287676	1
0	9419	1663.871383551065	0
0	9426	1666.651210065781	1
0	9428	1666.819735258545	2
0	9430	1667.02250854416	1
0	9436	1667.219126467886	2
0	9440	1667.906398740961	1
0	9446	1668.880137703188	2
0	9447	1669.300148586019	1
0	9453	1670.122837713939	2
0	9456	1670.870709202929	1
0	9461	1671.016044113774	0
0	9465	1671.491234360675	1
0	9467	1673.20561310725	2
0	9469	1673.243340037872	3
0	9473	1675.129359455217	4
0	9475	1675.687089134237	5
0	9476	1675.852181556148	4
0	9485	1679.902220858438	3
0	9491	1681.389800264588	2
0	9496	1681.573070365754	1
0	9502	1683.458627465717	0
0	9508	1683.721234934012	1
0	9511	1685.064038806491	0
0	9515	1685.61538166306	1
0	9518	1685.767524679454	0
0	9536	1686.742237363797	1
0	9537	1686.769011824384	0
0	9543	1688.079268499627	1
0	9545	1688.14432436058	2
0	9547	1689.366830558215	3
0	9548	1689.577206133957	2
0	9552	1689.701103974233	3
0	9554	1691.571286835753	4
0	9556	1691.593890246298	5
0	9559	1691.806635404037	4
0	9566	1692.119872605408	3
0	9572	1692.232317949606	4
0	9573	1692.951128160672	3
0	9578	1693.616728196184	2
0	9585	1694.358447995142	1
0	9592	1694.780042040009	0
0	9634	1698.259215698161	1
0	9635	1698.795504514319	0
0	9645	1699.759046896781	1
0	9647	1699.956703350253	0
0	9673	1703.050680768057	1
0	9675	1703.422271462292	0
0	9681	1704.087648258663	1
0	9683	1705.316322902391	2
0	9684	1705.563232093793	1
0	9690	1705.627835960962	0
0	9708	1706.555761990416	1
0	9718	1707.950574427493	2
0	9719	1708.047836599269	1
0	9724	1708.490603199059	0
0	9753	1714.947719574964	1
0	9754	1715.17584579713	0
0	9760	1715.218747770422	1
0	9762	1715.247474461113	2
0	9764	1715.510688279501	3
0	9767	1715.67661355213	4
0	9768	1715.711572418409	3
0	9774	1716.407003515614	4
0	9776	1716.977957558449	3
0	9782	1717.112731791724	4
0	9783	1717.427454431358	3
0	9788	1718.448184946755	2
0	9793	1718.650043307675	1
0	9797	1719.522583859604	2
0	9800	1722.78748383061	1
0	9806	1723.867117960088	2
0	9815	1725.764621286752	1
0	9821	1725.793428645242	2
0	9823	1726.162190235861	3
0	9828	1728.23221489964	2
0	9835	1729.02617564831	1
0	9840	1729.087558024454	0
0	9847	1729.626698848708	1
0	9848	1729.924365734331	0
0	9871	1731.230760499537	1
0	9872	1731.244948805242	0
0	9882	1732.951408417462	1
0	9885	1734.658486774998	0
0	9906	1737.718625794234	1
0	9910	1739.337483521589	0
0	9953	1746.719709102429	1
0	9957	1747.324126165844	2
0	9959	1747.475423657719	3
0	9960	1747.932878863944	2
0	9967	1748.549216329026	3
0	9968	1748.665208039982	2
0	9975	1749.678489240198	3
0	9977	1750.634302859535	2
0	9982	1750.84564316684	1
0	9988	1751.494604375298	2
0	9989	1751.543760014157	1
0	9994	1751.73573147913	0
0	10005	1753.644974444485	1
0	10008	1754.978544455282	0
0	10031	1756.868911897688	1
0	10033	1757.107467007572	2
0	10035	1757.186889584864	3
0	10037	1757.220733695948	2
0	10042	1757.462752675256	1
0	10047	1757.633338378499	0
0	10084	1764.889094886245	1
0	10085	1766.085666718012	0
0	10099	1766.522139622677	1
0	10100	1767.007316718435	0
0	10119	1769.179842344385	1
0	10121	1769.767616919623	0
0	10127	1770.03788871604	1
0	10132	1770.43765236866	0
0	10138	1771.258014556697	1
0	10139	1771.411053241118	0
0	10160	1773.565632589442	1
0	10162	1773.594675587892	2
0	10164	1774.644462988409	3
0	10165	1776.735125849743	2
0	10172	1776.986351960482	3
0	10174	1777.674364146541	4
0	10176	1777.799909183765	5
0	10179	1778.139312103235	4
0	10185	1780.345384368085	3
0	10190	1780.706500470982	2
0	10196	1781.625180324733	1
0	10201	1781.641043706657	0
0	10209	1782.438627550377	1
0	10210	1782.741222325493	0
0	10217	1785.434473543149	1
0	10218	1785.642520399811	0
0	10235	1789.372480849347	1
0	10237	1789.846466508681	2
0	10240	1790.925442410347	1
0	10245	1792.060180385327	0
0	10286	1799.326139646899	1
0	10287	1799.43515174193	0
0	10324	1804.688609304475	1
0	10328	1806.290833045096	2
0	10335	1807.004141725833	3
0	10336	1808.157383690768	2
0	10342	1808.62534816744	3
0	10343	1808.660478288236	2
0	10352	1809.06300707459	3
0	10353	1809.118897232887	2
0	10359	1809.606479791136	1
0	10364	1809.97297206261	0
0	10370	1810.241356393157	1
0	10371	1811.823597366973	0
0	10391	1815.563640899105	1
0	10394	1815.70269361758	2
0	10396	1815.782799929071	3
0	10399	1816.715224125903	2
0	10404	1816.792704426734	1
0	10413	1818.966189550994	0
0	10417	1819.383104873709	1
0	10420	1819.423420263896	0
0	10452	1821.292221416068	1
0	10453	1821.400597224501	0
0	10475	1827.682229028716	1
0	10477	1828.34099404313	2
0	10481	1829.539647532494	3
0	10482	1830.491068850737	2
0	10488	1830.652513036167	3
0	10489	1830.993887041776	2
0	10495	1831.260632656736	3
0	10496	1832.072659829734	2
0	10500	1832.179334748469	3
0	10506	1832.7941782414	4
0	10507	1834.177199302069	3
0	10512	1834.951211933887	2
0	10516	1835.130198357074	3
0	10520	1836.27752011512	4
0	10526	1838.20557871861	5
0	10528	1838.440335481636	6
0	10530	1839.008239937799	7
0	10531	1839.071647071601	6
0	10538	1840.379238095578	5
0	10546	1841.726982957197	6
0	10549	1842.418871983929	5
0	10555	1842.677626669252	6
0	10556	1843.220632566059	5
0	10562	1844.633693208285	6
0	10564	1847.044921711736	5
0	10569	1848.387778854231	4
0	10574	1850.080674221203	3
0	10579	1851.049587037792	2
0	10583	1852.75590873275	3
0	10585	1853.635187360766	4
0	10588	1854.206682789619	3
0	10595	1854.614053404966	2
0	10599	1857.898738699902	3
0	10602	1858.230005937724	2
0	10608	1858.325728154838	3
0	10609	1858.393447093022	2
0	10614	1859.384729185502	1
0	10620	1860.282066042817	2
0	10622	1860.925742018209	3
0	10624	1861.674105242436	4
0	10627	1862.028713050976	3
0	10634	1864.419560675932	4
0	10637	1865.804498993881	3
0	10642	1866.169806468282	2
0	10646	1866.951667559199	3
0	10648	1868.064161626199	4
0	10650	1868.633394497239	5
0	10653	1869.790566958878	4
0	10660	1871.223983239711	3
0	10665	1872.607654616363	2
0	10669	1872.613627011263	3
0	10676	1873.826113967903	2
0	10680	1873.937290377349	3
0	10682	1875.078374985342	4
0	10685	1876.21022283894	3
0	10690	1876.957125943654	2
0	10694	1877.299305969263	3
0	10707	1881.153637936144	2
0	10712	1881.345020647055	1
0	10719	1882.201208315281	2
0	10720	1882.519881230304	1
0	10727	1883.337703061269	0
0	10748	1886.501598079371	1
0	10753	1889.407980047356	0
0	10777	1891.657835280921	1
0	10778	1892.518260780725	0
0	10785	1892.764043839104	1
0	10788	1894.568125171687	0
0	10796	1895.667574669823	1
0	10798	1895.891630849846	0
0	10806	1896.267812045964	1
0	10808	1896.511022003053	0
0	10847	1901.345851017243	1
0	10850	1902.361638157701	0
0	10859	1904.009616667564	1
0	10860	1904.510430162976	0
0	10867	1905.090051922146	1
0	10871	1905.475965482551	2
0	10872	1905.601411224423	1
0	10879	1907.016858335025	0
0	10891	1907.743971453157	1
0	10892	1908.495365154861	0
0	10914	1911.026572424471	1
0	10915	1911.201607836817	0
0	10941	1915.660367994184	1
0	10942	1915.671621389206	0
0	10964	1917.140396834713	1
0	10966	1918.228202673289	2
0	10968	1918.773473098304	3
0	10970	1919.097200432235	4
0	10972	1919.447792022266	5
0	10973	1919.672787128788	4
0	10978	1920.047706571118	3
0	10984	1920.248524051734	4
0	10987	1921.215489870055	5
0	10988	1921.296373319857	4
0	10993	1922.968928729362	3
0	11000	1923.979589854238	2
0	11008	1924.402483195294	3
0	11010	1925.067639681129	2
0	11016	1925.082588481635	3
0	11017	1925.328326543953	2
0	11022	1925.517041069589	1
0	11026	1926.40037618774	2
0	11030	1928.288832968056	3
0	11032	1928.571841179531	4
0	11036	1928.759752013053	5
0	11037	1928.7733118917	4
0	11043	1929.913461414582	3
0	11049	1930.385391645698	2
0	11054	1930.512535405024	1
0	11059	1930.987109554356	0
0	11075	1932.609110465892	1
0	11078	1933.044870845616	2
0	11082	1934.336339037488	1
0	11086	1934.787538138626	2
0	11090	1935.165655545044	1
0	11095	1936.329762540669	0
0	11101	1939.555257686867	1
0	11106	1939.929865444461	0
0	11142	1945.296530565195	1
0	11145	1945.664901641903	0
0	11170	1947.459564905838	1
0	11171	1947.601574587856	0
0	11181	1948.721571880734	1
0	11182	1949.185076403194	0
0	11201	1951.950359421264	1
0	11205	1953.483536519023	0
0	11241	1958.329906999607	1
0	11243	1958.832772657222	2
0	11246	1960.181873607114	3
0	11248	1960.460652154889	4
0	11251	1961.06838080907	5
0	11253	1961.875154308173	4
0	11258	1962.292421366667	3
0	11264	1962.352983857265	4
0	11265	1962.542476291114	3
0	11278	1963.871231774166	4
0	11279	1964.12470137274	3
0	11286	1964.708781011583	4
0	11288	1965.842698801484	3
0	11293	1966.348493854056	2
0	11298	1966.719765559446	1
0	11304	1968.830408878103	2
0	11308	1969.977251749532	1
0	11315	1970.411662491633	0
0	11319	1971.321645237513	1
0	11323	1971.760761785301	2
0	11324	1972.109578540393	1
0	11329	1973.606415218165	0
0	11384	1978.881861694421	1
0	11387	1980.017519965672	2
0	11389	1980.189273310331	3
0	11391	1980.458911947312	4
0	11392	1981.294334077057	3
0	11398	1981.87592901137	2
0	11403	1982.052558705099	1
0	11409	1982.794593165082	0
0	11425	1984.495295773984	1
0	11426	1984.525120610541	0
0	11440	1986.340919823375	1
0	11443	1986.888430064438	2
0	11445	1987.725617746162	1
0	11451	1987.829995363995	2
0	11452	1987.93490703648	1
0	11460	1988.575760424335	2
0	11462	1988.675742074262	3
0	11463	1988.851279472866	2
0	11474	1992.220892162522	1
0	11480	1994.277002337786	0
0	11491	1995.548730627836	1
0	11492	1995.763811046134	0
0	11501	1997.625081579262	1
0	11503	1997.641733637227	2
0	11504	1997.646634743439	1
0	11510	1997.680326613987	2
0	11512	1998.463282818844	1
0	11517	1999.195414690476	0
0	11538	2000.971763079968	1
0	11540	2001.374295753206	0
0	11563	2006.615893486575	1
0	11566	2008.996076759479	0
0	11600	2016.363229870139	1
0	11601	2017.264176595268	0
0	11623	2021.928238499974	1
0	11624	2022.509943279495	0
0	11631	2023.61582606239	1
0	11632	2024.4123599337	0
0	11648	2027.034889665224	1
0	11650	2029.166437422163	2
0	11651	2029.456418467709	1
0	11656	2029.81457374364	0
0	11662	2030.4573640936	1
0	11664	2031.00791677693	2
0	11665	2031.093448572193	1
0	11670	2031.59090579979	0
0	11709	2040.883396345861	1
0	11714	2043.44974197938	0
0	11747	2057.355601539815	1
0	11748	2057.679048157491	0
0	11757	2060.959965169107	1
0	11758	2061.052876813107	0
0	11762	2061.955606825387	1
0	11764	2062.106502266666	2
0	11766	2062.158257551925	3
0	11775	2065.535426064723	2
0	11780	2067.075243213545	1
0	11786	2067.865239619423	2
0	11788	2067.865514994144	3
0	11790	2069.497844492901	4
0	11795	2070.265815643564	3
0	11799	2070.323227737598	4
0	11801	2071.256725733481	5
0	11803	2071.738701702304	6
0	11806	2071.896801259397	5
0	11811	2072.258432251832	4
0	11819	2075.583508088045	3
0	11824	2076.734945298569	2
0	11829	2079.219986492164	1
0	11836	2080.00452478697	2
0	11837	2080.258440901688	1
0	11843	2080.274668047996	2
0	11844	2080.358124346132	1
0	11848	2080.515201237158	2
0	11850	2086.538866861505	3
0	11852	2088.042702491885	4
0	11856	2091.598306746464	5
0	11860	2093.439838847744	6
0	11861	2096.403925148784	5
0	11868	2098.155708208524	4
0	11876	2100.164293692233	5
0	11878	2101.679003746414	6
0	11880	2101.739884617012	7
0	11882	2102.798815383841	8
0	11884	2103.319160229022	9
0	11886	2103.549582291253	10
0	11888	2103.990853164229	11
0	11890	2104.574700428649	12
0	11894	2105.35350743413	11
0	11899	2105.423490503274	10
0	11906	2107.787531626214	11
0	11907	2108.815632981645	10
0	11912	2108.893654961577	9
0	11920	2109.990248985738	10
0	11921	2111.024969441424	9
0	11926	2112.310803574957	8
0	11932	2114.821468037968	9
0	11938	2115.327212691505	10
0	11939	2115.347239456709	9
0	11944	2116.549859820616	8
0	11949	2117.593092366532	7
0	11955	2117.838850508301	8
0	11957	2118.409344406364	9
0	11958	2118.657995754984	8
0	11964	2120.074628277977	9
0	11966	2121.102151550618	10
0	11968	2121.263104964782	11
0	11969	2121.322654344091	10
0	11976	2121.928073633682	9
0	11980	2121.965595786921	10
0	11986	2123.414181446951	11
0	11988	2124.045719018694	10
0	11994	2124.690590146261	11
0	11996	2125.412363568991	10
0	12002	2125.961615045813	9
0	12008	2126.671697421209	10
0	12010	2127.176131937969	11
0	12011	2127.742680435006	10
0	12018	2129.51408184301	9
0	12023	2130.822671549055	8
0	12031	2135.520022908427	7
0	12037	2136.151337570549	6
0	12042	2136.429956993753	5
0	12047	2137.003550403558	4
0	12051	2137.237424448514	5
0	12055	2137.72698737225	6
0	12056	2138.241682428592	5
0	12063	2139.903141651309	4
0	12067	2140.341858759186	5
0	12072	2140.72365096465	6
0	12074	2140.921185396248	7
0	12075	2141.361459247792	6
0	12081	2141.613143467925	7
0	12085	2141.938916125071	8
0	12086	2142.393722813375	7
0	12092	2145.334786265438	8
0	12096	2148.035771538748	7
0	12103	2149.454865156377	8
0	12105	2150.03066691368	9
0	12108	2150.394453798716	8
0	12113	2150.597572645818	7
0	12118	2151.579445096497	6
0	12123	2153.016734561722	5
0	12128	2154.369471746652	4
0	12134	2154.657395179115	5
0	12136	2155.407641091542	4
0	12142	2155.948793057127	5
0	12143	2156.269214968898	4
0	12148	2158.263106357018	3
0	12156	2160.046558337207	4
0	12157	2160.221791479546	3
0	12162	2160.22656062867	2
0	12167	2163.106854959163	1
0	12174	2164.751907703624	0
0	12198	2167.596296527184	1
0	12199	2167.734486260939	0
0	12258	2176.451722822368	1
0	12260	2179.205573078138	2
0	12265	2180.845479941932	1
0	12271	2180.901996566495	2
0	12273	2180.929732007088	1
0	12280	2181.437251924523	2
0	12281	2181.925637669462	1
0	12286	2182.108420014335	0
0	12292	2182.130366869573	1
0	12295	2182.881695399019	0
0	12304	2185.08585806982	1
0	12310	2187.183231553754	0
0	12344	2192.175619379887	1
0	12353	2193.716417800972	2
0	12354	2194.525740240339	1
0	12360	2194.745828828106	2
0	12361	2194.801418360666	1
0	12367	2195.246302539458	2
0	12368	2195.419910443434	1
0	12374	2195.524122702923	2
0	12376	2196.605732118724	1
0	12382	2196.710724340172	2
0	12383	2196.75509499749	1
0	12389	2197.646039162557	0
0	12405	2200.267392483829	1
0	12407	2200.608843262293	2
0	12409	2201.10501477007	1
0	12414	2201.871352672015	0
0	12426	2202.568868362989	1
0	12427	2202.663024935717	0
0	12433	2203.323228341415	1
0	12438	2203.898585042582	2
0	12439	2203.905035643841	1
0	12445	2204.797221241122	2
0	12446	2205.280958801859	1
0	12455	2208.367776967315	2
0	12457	2208.64884655194	3
0	12459	2209.250046229726	4
0	12460	2210.007311908604	3
0	12465	2210.101583087173	2
0	12471	2210.978986907835	1
0	12476	2211.472299262885	0
0	12516	2217.309674084371	1
0	12521	2218.614180623992	2
0	12522	2220.156451171573	1
0	12529	2220.367644466337	0
0	12533	2221.122706651913	1
0	12538	2221.604881168479	2
0	12540	2222.591087916015	1
0	12549	2224.428367135431	0
0	12561	2225.75897139698	1
0	12562	2225.902537756063	0
0	12566	2226.178403438003	1
0	12570	2226.712670728431	2
0	12572	2227.781561053021	1
0	12577	2228.286394002879	0
0	12581	2228.344890220694	1
0	12586	2230.519301606686	0
0	12604	2232.681774690276	1
0	12607	2232.948510016853	2
0	12608	2232.957120131249	1
0	12614	2233.472609177809	0
0	12625	2233.557924363462	1
0	12627	2233.769896287597	0
0	12634	2235.91949819014	1
0	12635	2235.925093562043	0
0	12639	2235.999596323455	1
0	12646	2238.211301287618	0
0	12699	2243.809271220163	1
0	12700	2244.239141509723	0
0	12704	2244.542203877667	1
0	12707	2245.118588195725	0
0	12711	2245.459749622148	1
0	12716	2247.150021397056	0
0	12720	2247.387931152707	1
0	12723	2249.432888258226	0
0	12733	2250.147799882953	1
0	12738	2252.829453788126	0
0	12747	2253.159180134303	1
0	12749	2253.68564926102	2
0	12753	2254.713744503138	1
0	12757	2257.653005506046	2
0	12759	2257.760372471674	3
0	12764	2260.51786882042	2
0	12770	2261.527467938175	1
0	12777	2262.643215839568	2
0	12781	2263.886490219365	1
0	12789	2265.305456830837	0
0	12803	2266.441745596876	1
0	12806	2267.244593913741	0
0	12818	2267.394720973426	1
0	12822	2269.050571484923	2
0	12824	2269.144259376984	3
0	12826	2271.002332883924	4
0	12827	2271.085813377901	3
0	12832	2271.208418537889	2
0	12838	2271.486460495627	3
0	12840	2272.167117326137	4
0	12842	2272.692885904566	3
0	12850	2273.590432262958	4
0	12851	2274.635950472209	3
0	12857	2275.16395382545	4
0	12858	2277.597383637426	3
0	12863	2278.38635229922	2
0	12869	2280.571475740742	1
0	12875	2280.72990120993	0
0	12886	2281.714116378502	1
0	12888	2282.317788111052	0
0	12933	2291.297533083247	1
0	12935	2292.711242457139	2
0	12937	2292.962616854095	3
0	12939	2293.211496551512	4
0	12943	2294.993713584409	5
0	12945	2295.510083893388	6
0	12947	2296.153319058117	5
0	12953	2296.377438775382	4
0	12958	2296.434815095373	3
0	12964	2297.481151203242	4
0	12966	2298.837488908665	3
0	12973	2299.79005068059	2
0	12980	2300.051384133001	3
0	12982	2300.147454191617	4
0	12983	2301.490919545913	3
0	12989	2301.904133387917	2
0	12994	2302.674950717015	1
0	12999	2303.483754153606	0
0	13006	2304.824225408262	1
0	13007	2304.936133505341	0
0	13013	2305.177891710302	1
0	13014	2305.582904657907	0
0	13018	2308.707960438439	1
0	13022	2308.955552672622	2
0	13023	2309.249480107092	1
0	13027	2309.85064203464	2
0	13030	2310.493011036719	1
0	13035	2310.675113923357	0
0	13039	2311.04953460994	1
0	13041	2312.548816195364	2
0	13043	2312.637594749154	3
0	13048	2313.028736188585	2
0	13053	2313.561069861707	1
0	13059	2314.987855460342	2
0	13060	2315.385805678466	1
0	13070	2317.182101644236	0
0	13077	2317.596969302223	1
0	13079	2318.217812477444	0
0	13087	2318.834787685399	1
0	13088	2319.523306559055	0
0	13099	2320.337415612047	1
0	13100	2320.535153417834	0
0	13120	2322.151635220681	1
0	13123	2322.978867063975	0
0	13142	2326.078478026195	1
0	13145	2327.520794372247	2
0	13147	2327.948026718898	3
0	13149	2328.282863577047	2
0	13155	2329.756608238447	1
0	13160	2331.354386957641	0
0	13183	2337.585217320764	1
0	13184	2338.049297555267	0
0	13190	2338.423680943558	1
0	13192	2338.921341333595	0
0	13199	2339.247106614541	1
0	13201	2339.407750747605	2
0	13202	2339.707958580546	1
0	13207	2339.998879253316	0
0	13224	2344.497277531582	1
0	13225	2344.696536377605	0
0	13240	2346.601845179653	1
0	13242	2348.745842940002	0
0	13255	2354.699187442505	1
0	13257	2355.12813649971	2
0	13259	2355.861920208666	1
0	13264	2355.894904298521	0
0	13334	2367.345313404177	1
0	13335	2367.373210050517	0
0	13341	2367.487719299729	1
0	13344	2368.112742520417	2
0	13347	2370.258416826432	3
0	13349	2370.799821980109	4
0	13350	2370.912172581344	3
0	13355	2371.102468372255	2
0	13363	2371.904753270724	3
0	13365	2372.120556385129	4
0	13367	2373.837374337155	3
0	13372	2373.898423683643	2
0	13377	2373.912894441153	1
0	13382	2374.653841527387	0
0	13398	2377.842297791404	1
0	13399	2377.914061391866	0
0	13436	2382.953733692858	1
0	13437	2385.092540569869	0
0	13459	2388.380853209836	1
0	13460	2388.525812323896	0
0	13476	2390.470974998653	1
0	13480	2390.809669967599	2
0	13481	2391.375470499227	1
0	13488	2391.484482356556	0
0	13540	2399.557776702249	1
0	13541	2399.582546661515	0
0	13566	2406.862798503521	1
0	13567	2408.836879613856	0
0	13637	2427.350164979737	1
0	13640	2428.656017924371	2
0	13641	2428.838880037239	1
0	13647	2429.397754346214	0
0	13702	2444.405423244869	1
0	13703	2444.58918704461	0
0	13724	2448.936791018295	1
0	13726	2449.14304664348	0
0	13732	2449.81748593359	1
0	13733	2450.036900778832	0
0	13746	2453.875124993314	1
0	13747	2454.26006252718	0
0	13751	2454.536477651915	1
0	13754	2455.383177753895	0
0	13758	2456.119461003369	1
0	13762	2457.080440930001	0
0	13786	2459.521561771287	1
0	13787	2459.689873187341	0
0	13805	2461.860222173691	1
0	13807	2462.360955071652	2
0	13810	2463.054996703241	1
0	13816	2463.597207453062	2
0	13818	2463.687712435028	3
0	13819	2464.164388233272	2
0	13826	2464.620120774739	1
0	13832	2465.210622420151	2
0	13833	2465.316898413854	1
0	13839	2465.380269034381	2
0	13840	2466.327852242402	1
0	13846	2466.730401086834	2
0	13847	2466.916072776478	1
0	13852	2467.403364747927	0
0	13888	2470.369774545807	1
0	13890	2470.617005322236	0
0	13899	2471.874726540277	1
0	13901	2472.603268746938	2
0	13902	2472.781529357789	1
0	13907	2473.171650225335	0
0	13913	2473.209994928414	1
0	13915	2473.785179699941	2
0	13916	2474.101453485864	1
0	13927	2474.99463780607	2
0	13928	2475.123015506156	1
0	13933	2475.353998620142	0
0	13950	2477.157868644757	1
0	13952	2477.845752951636	2
0	13955	2478.756375178046	1
0	13961	2479.15688192957	2
0	13962	2479.387050076901	1
0	13969	2479.992647691682	0
0	13975	2480.011199132131	1
0	13977	2480.408921075432	0
0	14023	2490.654019180243	1
0	14025	2491.380973243021	2
0	14026	2491.825001262532	1
0	14035	2494.009304153487	0
0	14071	2501.65891130312	1
0	14073	2502.022698825497	2
0	14074	2503.322965643031	1
0	14082	2503.887032375343	0
0	14100	2504.818628747541	1
0	14102	2505.450194705528	2
0	14104	2506.546243314126	3
0	14108	2508.268774891141	2
0	14114	2508.806064941504	3
0	14115	2510.136804612599	2
0	14121	2510.197220191345	3
0	14123	2510.858378031257	2
0	14131	2511.68956178458	1
0	14137	2511.718585048317	2
0	14139	2512.415475586998	3
0	14140	2512.431983885669	2
0	14145	2512.792797193213	1
0	14149	2512.978258360014	2
0	14151	2512.994997383256	3
0	14153	2514.127666320169	4
0	14157	2514.738716971787	5
0	14164	2516.158429460489	6
0	14166	2517.009681373015	5
0	14172	2518.000541491923	4
0	14177	2518.04692237778	3
0	14183	2518.738023881482	4
0	14185	2519.177402651054	5
0	14187	2519.482775110148	6
0	14188	2519.503383594285	5
0	14193	2519.5465037767	4
0	14199	2520.919881858311	3
0	14205	2521.272866863894	4
0	14208	2522.483461941492	3
0	14214	2523.300678041291	4
0	14217	2524.353451249661	3
0	14223	2525.229264621085	4
0	14226	2527.481323098229	5
0	14227	2528.40246911999	4
0	14233	2529.172273154935	3
0	14239	2529.261767253923	4
0	14241	2529.469772514821	5
0	14243	2529.632447429795	6
0	14245	2529.65605368477	7
0	14246	2529.844480834997	6
0	14251	2530.945791669879	5
0	14256	2532.543991626911	4
0	14261	2533.745851792936	3
0	14267	2534.076323291319	4
0	14270	2535.105609979415	3
0	14278	2536.411682748182	2
0	14284	2536.503686465894	3
0	14286	2536.644557286757	4
0	14289	2537.522692504566	3
0	14295	2538.680619903113	4
0	14296	2540.165257704877	3
0	14304	2541.921396281393	4
0	14305	2542.263886504606	3
0	14311	2543.64459637937	4
0	14314	2544.359001894936	3
0	14322	2546.081513511161	2
0	14327	2547.083034947268	1
0	14331	2547.711976454064	2
0	14335	2549.257587041134	3
0	14337	2549.408213985799	4
0	14338	2549.490979378193	3
0	14345	2551.827695839274	2
0	14350	2552.917267406933	1
0	14358	2553.312187165487	2
0	14361	2553.356814611688	1
0	14365	2553.646157062575	2
0	14368	2553.670387580401	1
0	14372	2554.237396322479	2
0	14374	2554.91839682941	3
0	14377	2555.21565460828	2
0	14389	2556.380054015811	3
0	14390	2556.390404728837	2
0	14395	2557.100750438212	1
0	14399	2559.878235862412	2
0	14401	2560.041174381514	3
0	14404	2560.607682572462	2
0	14410	2560.843212112861	1
0	14417	2561.340690353773	2
0	14418	2561.400666089671	1
0	14423	2561.584689831315	0
0	14427	2564.274684992815	1
0	14429	2564.963966337995	2
0	14431	2565.329322755421	3
0	14434	2566.198217911993	2
0	14439	2567.87917805792	1
0	14446	2569.569713394274	0
0	14467	2573.568038834761	1
0	14470	2573.925701614477	0
0	14515	2578.820571437276	1
0	14517	2579.079265195746	2
0	14519	2579.703485928051	3
0	14525	2581.469706057777	4
0	14527	2581.599514378077	5
0	14528	2581.685143215957	4
0	14533	2581.709680730228	3
0	14540	2582.921036299931	2
0	14549	2584.623543669014	3
0	14550	2584.982286169579	2
0	14555	2586.028927418766	1
0	14561	2586.682849349612	2
0	14563	2587.254458191969	3
0	14568	2588.931554978152	2
0	14572	2589.335091112249	3
0	14577	2590.245231399761	4
0	14579	2590.300950660001	5
0	14583	2591.029078495525	6
0	14584	2591.927578915722	5
0	14593	2592.582073913918	6
0	14595	2592.731175176671	7
0	14596	2593.823952178832	6
0	14601	2593.979287042904	5
0	14608	2596.114656863385	4
0	14614	2596.524461176274	5
0	14615	2596.542821155955	4
0	14620	2597.736212390599	3
0	14624	2597.81328342936	4
0	14626	2598.771447997806	5
0	14628	2599.165514445915	6
0	14630	2600.118674012054	7
0	14634	2601.050787223427	8
0	14635	2602.060900499095	7
0	14639	2602.111404472122	8
0	14644	2603.391250251903	7
0	14648	2604.850138133111	8
0	14651	2606.412508403957	7
0	14656	2606.68937086632	6
0	14664	2608.773738023632	5
0	14669	2609.211625321555	4
0	14675	2609.259713630349	5
0	14676	2609.489620235274	4
0	14682	2609.553491084878	5
0	14684	2610.242560912835	4
0	14690	2611.044250081809	5
0	14692	2611.361426035449	6
0	14698	2612.725207134247	7
0	14699	2612.745015550997	6
0	14705	2615.329171368387	7
0	14706	2615.635003015961	6
0	14713	2617.303133898793	5
0	14717	2618.207094155229	6
0	14720	2619.285336647972	5
0	14725	2620.679895167662	4
0	14729	2622.163715889153	5
0	14734	2624.789725341761	4
0	14739	2626.029205646455	3
0	14745	2626.935557979856	2
0	14752	2628.585800820809	1
0	14758	2630.973904986956	2
0	14759	2631.574211836764	1
0	14765	2633.205914390527	2
0	14767	2633.732150976889	3
0	14769	2634.56765412886	4
0	14771	2635.104804683344	5
0	14772	2636.151144127622	4
0	14777	2638.366687344158	3
0	14781	2638.654764569259	4
0	14783	2638.772279309144	5
0	14785	2639.069109330524	6
0	14791	2641.130507401326	5
0	14796	2641.359213842762	4
0	14803	2642.590135432325	3
0	14808	2643.33003579605	2
0	14813	2645.853710359258	1
0	14820	2647.43519907044	0
0	14826	2647.994228734654	1
0	14827	2648.272672311904	0
0	14835	2649.604294502934	1
0	14837	2650.687875471163	2
0	14838	2651.792934662944	1
0	14843	2653.339733958272	0
0	14854	2653.550983877704	1
0	14855	2653.589499465911	0
0	14861	2654.041831364998	1
0	14863	2654.100918274363	2
0	14867	2654.649956036222	1
0	14872	2655.113742340767	0
0	14878	2655.561514125066	1
0	14880	2655.806047388819	2
0	14882	2657.304700506079	1
0	14887	2658.195131249293	0
0	14911	2660.283070751134	1
0	14912	2660.402493727363	0
0	14920	2661.538245471399	1
0	14923	2661.742581074839	0
0	14947	2664.884101798851	1
0	14950	2665.236236356983	0
0	14961	2666.262492149318	1
0	14963	2666.296688242254	2
0	14964	2666.781230751372	1
0	14968	2667.760060536965	2
0	14975	2668.460024662691	1
0	14981	2669.482602936822	2
0	14982	2670.211425144136	1
0	14989	2671.239604870735	0
0	15010	2674.472989872243	1
0	15018	2676.572731828146	2
0	15019	2677.992767947374	1
0	15024	2678.33163709911	0
0	15035	2678.748568695635	1
0	15036	2679.237962757363	0
0	15044	2679.678749036985	1
0	15045	2680.679248218778	0
0	15058	2681.582540292075	1
0	15060	2681.688120566221	2
0	15062	2682.832631575954	1
0	15066	2683.018422424849	2
0	15071	2683.594731897288	1
0	15077	2684.623375931454	2
0	15081	2687.846722245553	3
0	15084	2690.025791169257	2
0	15090	2690.572167403355	1
0	15095	2692.517101362261	0
0	15099	2692.584561572814	1
0	15102	2694.912900752148	0
0	15119	2696.774846527177	1
0	15123	2698.183741655851	2
0	15125	2698.350288014278	1
0	15130	2698.474972941349	0
0	15139	2698.893510203445	1
0	15141	2700.335498821625	2
0	15143	2701.543018046167	3
0	15146	2702.011087808509	2
0	15155	2704.767676729164	1
0	15160	2704.957621783863	0
0	15166	2705.159413499689	1
0	15167	2706.551596889644	0
0	15190	2709.938048544172	1
0	15192	2710.178142961188	2
0	15194	2710.208884409295	3
0	15197	2710.338254110015	2
0	15204	2710.946107358027	1
0	15211	2712.165643503719	2
0	15213	2712.515146205033	1
0	15219	2712.800331952606	0
0	15240	2716.571477308588	1
0	15241	2716.771540470337	0
0	15275	2721.677336432117	1
0	15278	2721.789836926077	0
0	15287	2723.294094801465	1
0	15288	2723.509557796079	0
0	15313	2728.022019467625	1
0	15318	2728.510146421174	2
0	15319	2728.674041210834	1
0	15324	2729.07671870493	0
0	15338	2730.474442880229	1
0	15339	2731.171829243496	0
0	15343	2732.236846611853	1
0	15345	2732.371267941499	2
0	15347	2732.800571775429	3
0	15351	2733.608634152365	2
0	15356	2735.317384230942	1
0	15361	2739.202798935105	0
0	15375	2742.175182196406	1
0	15376	2742.797750331813	0
0	15414	2746.012732315977	1
0	15416	2746.08148765068	0
0	15429	2748.240206625544	1
0	15430	2748.29632540725	0
0	15439	2748.9815730605	1
0	15441	2749.248133326246	2
0	15444	2750.16171449179	1
0	15449	2750.170843025283	0
0	15457	2751.296456618307	1
0	15458	2751.585939192515	0
0	15474	2756.194680094376	1
0	15476	2757.257972886356	2
0	15479	2758.716557532204	1
0	15484	2758.88834007082	0
0	15501	2762.131112172724	1
0	15504	2762.512321866791	2
0	15505	2764.305386983099	1
0	15510	2765.138941843038	0
0	15537	2769.401040492373	1
0	15539	2769.434783856977	2
0	15542	2770.514487212292	3
0	15544	2770.781551785149	4
0	15548	2771.445747864637	5
0	15550	2773.689063751297	6
0	15551	2775.286832404481	5
0	15556	2775.585847995128	4
0	15563	2776.073362956025	3
0	15569	2776.890149488046	2
0	15574	2778.576609141478	1
0	15583	2779.220848185057	0
0	15589	2779.442142030848	1
0	15590	2779.616611397863	0
0	15596	2779.736402102945	1
0	15597	2780.070285807725	0
0	15626	2782.659763419339	1
0	15632	2783.895763117269	0
0	15641	2784.320718829984	1
0	15645	2786.378109150646	2
0	15648	2787.288875127008	1
0	15653	2787.51114575104	0
0	15659	2787.614128198082	1
0	15661	2788.17924486497	0
0	15678	2790.960890436936	1
0	15679	2791.247815602089	0
0	15685	2791.559555522331	1
0	15691	2793.158218527948	0
0	15703	2794.481149619048	1
0	15704	2794.783668148993	0
0	15717	2795.629360380685	1
0	15718	2795.725430094471	0
0	15733	2797.760691697204	1
0	15737	2798.446844778108	2
0	15742	2799.064402886565	3
0	15744	2799.131036290832	4
0	15746	2800.584909343958	3
0	15751	2801.08341489798	2
0	15757	2801.202426817627	3
0	15758	2801.329121241751	2
0	15763	2802.747738821759	1
0	15769	2802.974298875449	2
0	15773	2803.279905483272	3
0	15777	2803.906258461	4
0	15779	2803.948861233615	5
0	15782	2804.992510339478	6
0	15783	2805.153606214373	5
0	15789	2806.505266750538	4
0	15797	2808.809222136149	5
0	15798	2809.073080169903	4
0	15803	2810.128282211588	3
0	15807	2810.658232418717	4
0	15809	2810.705558870217	5
0	15812	2811.599064511395	4
0	15816	2811.6608336985	5
0	15823	2813.348726116177	6
0	15824	2814.449913246733	5
0	15831	2815.939640379533	4
0	15836	2817.041212002414	3
0	15841	2819.082016716704	2
0	15847	2819.505814758936	3
0	15849	2820.571232027529	4
0	15852	2822.169591264112	3
0	15858	2822.858423640776	4
0	15859	2823.364942026249	3
0	15863	2824.795659689751	4
0	15865	2826.310949281484	5
0	15869	2827.311528722025	6
0	15875	2827.859692246735	7
0	15877	2828.081292524006	8
0	15878	2828.143211224763	7
0	15885	2828.946018274426	6
0	15891	2830.757834633439	7
0	15894	2832.375394242855	6
0	15901	2832.794172460324	5
0	15905	2833.097057954043	6
0	15907	2834.049991406857	7
0	15911	2835.544344240854	6
0	15916	2835.730565021428	5
0	15922	2837.157088737573	4
0	15927	2838.421472378796	3
0	15934	2840.130112359223	2
0	15938	2840.358495818314	3
0	15940	2840.579934010894	4
0	15944	2840.780672209003	3
0	15949	2841.197091741892	2
0	15953	2841.312305810785	3
0	15956	2842.286704346283	2
0	15962	2843.492673816523	3
0	15965	2844.145122559763	2
0	15974	2846.043151980478	1
0	15981	2846.897165326451	0
0	16011	2852.14633311365	1
0	16017	2855.207709850133	2
0	16024	2857.180731098172	3
0	16025	2857.257509491228	2
0	16031	2857.408302394646	3
0	16032	2857.55028970988	2
0	16037	2857.714925411882	1
0	16044	2858.293094710001	2
0	16045	2858.299962720548	1
0	16051	2858.878884357544	0
0	16076	2866.703137535223	1
0	16077	2866.8602045332	0
0	16097	2867.807159215261	1
0	16099	2868.100793884468	2
0	16100	2868.140177380409	1
0	16108	2870.195907752239	2
0	16109	2870.228802507062	1
0	16114	2870.29272928684	0
0	16129	2872.31847997124	1
0	16130	2872.468391727299	0
0	16137	2873.013891978233	1
0	16138	2873.35021123655	0
0	16144	2875.075144209076	1
0	16145	2875.877546208684	0
0	16181	2880.277119233036	1
0	16182	2880.507418900023	0
0	16195	2881.240474946171	1
0	16198	2881.509199208989	2
0	16203	2883.309173070317	3
0	16205	2883.480850087343	2
0	16212	2885.37887500459	3
0	16214	2886.037941540843	2
0	16219	2886.60935524289	1
0	16224	2886.8794073135	0
0	16232	2887.608349393309	1
0	16233	2888.031326587816	0
0	16254	2889.406936260237	1
0	16259	2891.596561370952	0
0	16265	2891.706763130077	1
0	16269	2893.705257363412	2
0	16270	2894.219206098603	1
0	16277	2895.005367583987	2
0	16278	2895.781883075002	1
0	16283	2895.974006828263	0
0	16322	2899.588156123935	1
0	16326	2903.000585997387	0
0	16338	2904.51963507829	1
0	16352	2908.171822152617	2
0	16354	2908.402670070646	1
0	16359	2908.434047261474	0
0	16383	2910.486345528284	1
0	16385	2910.753357806153	2
0	16387	2910.943208951961	1
0	16392	2911.195530448711	0
0	16398	2911.661582167515	1
0	16403	2912.128136457636	2
0	16406	2912.310329210226	3
0	16408	2912.492391429568	4
0	16409	2912.592525259587	3
0	16414	2912.722079780213	2
0	16418	2913.143891540122	3
0	16420	2913.803576650185	4
0	16422	2915.498666584945	5
0	16424	2915.728642001823	6
0	16426	2916.624252414213	7
0	16432	2919.283231282626	6
0	16438	2919.558863155067	7
0	16441	2921.254836550971	6
0	16449	2923.390856392132	7
0	16450	2924.23611572989	6
0	16457	2925.058953182104	5
0	16464	2926.335935077315	4
0	16468	2927.089157526255	5
0	16472	2928.244039716902	6
0	16473	2928.482034242121	5
0	16482	2930.288961267185	6
0	16484	2931.434613463912	7
0	16485	2931.67624798852	6
0	16490	2932.002046682651	5
0	16496	2932.193922262378	4
0	16504	2934.075196332888	3
0	16509	2934.865721480853	2
0	16514	2935.197700131235	1
0	16520	2938.691972233139	2
0	16526	2939.689536582069	1
0	16532	2940.305827627887	2
0	16533	2940.324301360921	1
0	16538	2942.488815966968	0
0	16544	2943.70229477818	1
0	16546	2943.87498145237	0
0	16557	2944.289914430384	1
0	16558	2945.248910067897	0
0	16566	2948.770549431998	1
0	16567	2948.775667561779	0
0	16571	2949.634986229615	1
0	16576	2950.826347308255	0
0	16599	2954.552104411927	1
0	16600	2954.677428860187	0
0	16607	2954.724540029008	1
0	16608	2954.932301950028	0
0	16629	2956.630526070453	1
0	16632	2958.059545240098	0
0	16641	2960.640486583716	1
0	16643	2960.839800250375	2
0	16647	2962.333711767315	3
0	16652	2964.146674355301	4
0	16654	2964.490882228547	5
0	16657	2965.273599537104	6
0	16661	2967.295222884303	7
0	16663	2968.139035164071	8
0	16665	2968.487841940314	9
0	16669	2969.042068954541	10
0	16671	2969.375644315224	11
0	16673	2969.486795749665	12
0	16674	2969.885876527759	11
0	16679	2970.255547025877	10
0	16684	2971.398238828082	9
0	16691	2972.21410588084	8
0	16696	2972.267115991581	7
0	16701	2972.804043769536	6
0	16705	2973.285047999728	7
0	16708	2973.545747495124	6
0	16712	2975.077565366896	7
0	16714	2975.287864112533	8
0	16718	2975.473162963611	9
0	16720	2976.416596843676	10
0	16722	2977.479024942468	11
0	16726	2977.739469432402	12
0	16727	2977.844833962612	11
0	16731	2978.024295726882	12
0	16736	2981.127809426301	11
0	16743	2983.445520469193	12
0	16745	2984.753378805613	13
0	16746	2984.753880392004	12
0	16751	2986.15268197193	11
0	16756	2986.527056705121	10
0	16763	2988.901080767656	9
0	16770	2989.685772504393	8
0	16775	2990.605317903106	7
0	16782	2993.573585354011	6
0	16788	2994.87152999104	7
0	16792	2996.885188059287	6
0	16800	2998.20499823519	5
0	16805	2998.649471731746	4
0	16810	2999.331979817191	3
0	16814	2999.715165536629	4
0	16819	3000.876311761681	3
0	16824	3001.378345124349	2
0	16828	3002.598118311812	3
0	16832	3003.441943978589	4
0	16835	3003.909558867495	3
0	16839	3004.203567417554	4
0	16844	3004.921058742223	5
0	16851	3007.156477330115	6
0	16854	3008.98151277176	5
0	16860	3009.100868031687	6
0	16862	3009.672053231409	7
0	16866	3010.628753841955	8
0	16871	3011.141617893988	7
0	16876	3011.322001570162	6
0	16881	3011.497590814672	5
0	16890	3012.939514891088	6
0	16893	3013.033352972749	7
0	16894	3013.490691246559	6
0	16899	3013.513828466957	5
0	16909	3013.835447157185	6
0	16910	3014.451183739204	5
0	16916	3016.238678450025	6
0	16918	3016.990743760627	7
0	16919	3017.122129304259	6
0	16925	3018.03802936115	7
0	16926	3018.111009193565	6
0	16930	3018.236231937397	7
0	16932	3018.806208274359	8
0	16938	3021.087666271224	7
0	16944	3021.301615959046	8
0	16945	3021.597708250312	7
0	16949	3021.683569849187	8
0	16952	3024.025862201323	7
0	16956	3024.989322033273	8
0	16958	3025.097384442543	9
0	16960	3025.280137224606	10
0	16963	3025.679936642749	9
0	16969	3026.303300321979	10
0	16972	3027.370601909036	9
0	16977	3027.528038603491	8
0	16982	3027.67777459684	7
0	16990	3030.255888006044	6
0	16995	3030.483052746765	5
0	17000	3031.415852078832	4
0	17006	3032.846213784232	3
0	17013	3034.013638805704	2
0	17017	3034.911888781838	3
0	17021	3036.484825967639	2
0	17026	3036.505306536714	1
0	17032	3037.148185409581	2
0	17034	3037.382045536736	1
0	17039	3038.247915804784	0
0	17043	3038.699731022685	1
0	17045	3038.972940653573	2
0	17047	3039.42399234615	3
0	17054	3044.318870029559	2
0	17059	3048.036740342538	1
0	17066	3049.620346083244	0
0	17072	3050.578441905618	1
0	17074	3051.504862280957	2
0	17081	3055.481086874587	1
0	17086	3055.898441184539	0
0	17112	3059.877256801538	1
0	17114	3060.104577945661	2
0	17115	3060.425035369482	1
0	17120	3060.456608319955	0
0	17141	3062.737842971616	1
0	17143	3062.864677244906	2
0	17146	3063.716153453406	1
0	17151	3063.958190659572	0
0	17159	3064.691922427039	1
0	17161	3065.207918073539	2
0	17162	3065.258087942401	1
0	17171	3066.974630289653	0
0	17180	3067.063878432397	1
0	17185	3069.473953478876	2
0	17188	3070.411671865292	1
0	17193	3070.620576344716	0
0	17204	3072.38024505145	1
0	17205	3072.759843358257	0
0	17221	3074.047648757293	1
0	17223	3074.075886815721	2
0	17229	3077.015793469932	3
0	17230	3077.248595618272	2
0	17237	3077.815657124985	3
0	17240	3078.231065428803	2
0	17248	3079.31125163381	1
0	17253	3079.419815587568	0
0	17293	3082.95249873482	1
0	17297	3083.489326624987	0
0	17301	3084.662971975503	1
0	17304	3085.7487481182	0
0	17323	3090.587497106282	1
0	17325	3091.468454098614	2
0	17330	3093.684857431126	1
0	17335	3093.697942612762	0
0	17374	3100.474163262676	1
0	17375	3101.120766092559	0
0	17383	3101.755839880443	1
0	17385	3101.813322191437	2
0	17387	3101.817044695603	3
0	17392	3102.355984815159	2
0	17398	3103.936397194934	1
0	17404	3104.229666812386	2
0	17409	3104.662261720116	3
0	17410	3104.916473670509	2
0	17416	3105.085591555629	1
0	17421	3105.134981344044	0
0	17427	3105.645605246429	1
0	17430	3107.118859526652	0
0	17442	3107.764737789389	1
0	17444	3108.818174930136	2
0	17449	3110.225045054958	1
0	17455	3110.565448337133	2
0	17456	3110.657026031614	1
0	17462	3111.693731799007	0
0	17479	3113.497278162246	1
0	17482	3114.424228172615	2
0	17483	3114.843093029741	1
0	17489	3115.353865766305	2
0	17490	3115.367253278743	1
0	17495	3115.374914999256	0
0	17518	3117.737101879043	1
0	17520	3117.770039530548	2
0	17526	3121.271120277501	1
0	17533	3122.331014255501	2
0	17535	3122.969148782003	3
0	17536	3124.821092265349	2
0	17541	3125.036454655382	1
0	17547	3125.499787062988	0
0	17602	3134.521643870774	1
0	17605	3135.027901005455	0
0	17611	3135.143684353895	1
0	17614	3136.757302653243	0
0	17634	3139.498966232592	1
0	17635	3139.509938337501	0
0	17659	3140.637054273428	1
0	17666	3142.505324849874	2
0	17667	3142.562514862987	1
0	17672	3142.632178552984	0
0	17679	3143.98537361282	1
0	17681	3144.09407303921	2
0	17683	3144.145387032673	3
0	17685	3145.124586445762	2
0	17690	3145.607731822158	1
0	17697	3146.519615645812	0
0	17753	3158.776917574244	1
0	17754	3159.342888139289	0
0	17760	3159.589017292336	1
0	17762	3159.92087867249	0
0	17781	3160.668456210353	1
0	17783	3160.935424558529	2
0	17784	3161.099100697228	1
0	17789	3161.40172600237	0
0	17814	3166.46864204958	1
0	17819	3168.392192681156	0
0	17825	3168.633052581716	1
0	17827	3168.747029801926	2
0	17831	3170.04707874592	1
0	17837	3170.178765282125	0
0	17853	3170.747593604423	1
0	17854	3170.993813601996	0
0	17872	3174.603916140502	1
0	17878	3176.021914453669	2
0	17879	3176.131713868903	1
0	17885	3176.662737143413	0
0	17905	3180.358158142945	1
0	17907	3180.828978360111	2
0	17915	3183.694026299564	1
0	17923	3185.61226772045	0
0	17939	3187.242437625041	1
0	17943	3187.620530645279	2
0	17947	3188.642191818096	3
0	17954	3189.258677861889	2
0	17959	3190.497680471486	1
0	17964	3192.269788476308	0
0	18001	3198.762632065361	1
0	18003	3199.220497526608	0
0	18011	3199.483449804275	1
0	18013	3200.202747392421	2
0	18014	3200.379928260882	1
0	18019	3200.43453284953	0
0	18057	3206.116200287679	1
0	18065	3208.427832033802	0
0	18084	3209.38979231538	1
0	18086	3209.524826001854	2
0	18093	3213.875166137398	1
0	18098	3213.888325044645	0
0	18105	3215.409332146485	1
0	18107	3216.206381428546	0
0	18150	3222.895178991891	1
0	18151	3223.147264612538	0
0	18166	3226.257131772685	1
0	18168	3226.933232991421	2
0	18175	3228.574588274403	3
0	18177	3228.780922925882	2
0	18182	3229.72268400928	1
0	18189	3230.362818056001	0
0	18195	3230.394229866165	1
0	18197	3230.651872613004	2
0	18199	3231.597330573799	1
0	18204	3231.808636591545	0
0	18213	3235.123823787051	1
0	18215	3236.715706352013	0
0	18237	3238.156750381634	1
0	18245	3238.944332646342	2
0	18247	3239.133180910834	1
[...]
5	167119	29122.176760712613	8.902989054494
5	167125	29123.932882510989	10.492816576688
5	167132	29124.670253620473	8.754113238705
5	167139	29125.867702093196	9.418045214338
5	167150	29128.631888277994	11.837319088676
5	167159	29131.503153801273	13.990874834808
5	167165	29133.520240183648	13.563875060449
5	167170	29133.572743966488	13.145064370999
5	167185	29137.161550353852	16.387600821921
5	167191	29137.867589232003	16.24858680254
5	167198	29138.194913576129	13.779532772909
5	167209	29141.566107873101	16.52456862114
5	167214	29141.885826003908	15.072172861544
5	167219	29142.90238975517	15.713150284946
5	167224	29142.969666365943	13.623696765549
5	167229	29143.509834908998	12.554439668309
5	167238	29147.006703848252	12.156131095238
5	167243	29147.204341632114	12.298228404429
5	167250	29148.020873501256	8.044531035813
5	167265	29151.452951717825	7.396522367387
5	167276	29153.082194570708	5.249398787314
5	167285	29153.202349557605	4.498368113863
5	167294	29154.491546537565	4.210495696134
5	167299	29156.508417149103	4.653801866235
5	167304	29157.107211881873	4.401114901704
5	167309	29157.724915976021	4.5960534915
5	167314	29159.848577354144	6.718259962084
5	167323	29161.250148848706	7.117707775727
5	167331	29161.831108631326	7.456633719239
5	167336	29161.834394690553	1.957578564996
5	167345	29165.797012668112	5.605279674127
5	167356	29167.896925627676	5.009407857506
5	167366	29172.695260717286	4.885064248237
5	167373	29173.259557194213	1.015120597476
5	167386	29177.068029357757	3.891938438535
5	167391	29178.327472011682	3.279167829527
5	167398	29180.366657686969	5.282921781251
5	167411	29182.397209476181	6.46313993536
5	167416	29182.962119941458	6.012308900196
5	167423	29186.757513714515	6.17213682893
5	167430	29187.745698494129	6.692371770673
5	167435	29189.551388666469	7.417796697267
5	167457	29193.380976452534	3.135808328321
5	167464	29195.078256236666	4.792166697522
5	167470	29195.460177894175	2.506401609215
5	167495	29200.896300566165	1.603059692882
5	167503	29201.039428930309	1.291739696069
5	167512	29201.533005247272	0.547160815382
5	167518	29202.054020791178	0.630774314788
5	167540	29204.070509064201	1.67211823948
5	167545	29204.109707403776	1.17387311758
5	167552	29204.421619443987	1.398338679768
5	167557	29205.050301220429	0.853721677462
5	167587	29210.559552484047	1.716109999954
5	167611	29213.616092387581	2.552640425285
5	167618	29217.805266080579	6.657347551308
5	167646	29219.642430991277	1.027524885287
5	167655	29221.274720047525	2.613255810864
5	167662	29221.588550575463	2.507852057851
5	167667	29221.615586725062	0.340242558624
5	167683	29224.23462894996	1.997268108436
5	167688	29224.345758929345	0.75400213192
5	167711	29227.637294891978	2.904327977411
5	167728	29229.928040737407	1.66098928897
5	167749	29232.029992621701	1.166816339188
5	167804	29239.974682731006	1.099746252646
5	167820	29242.314966791736	1.77459489385
5	167827	29243.122188210283	0.842961728472
5	167841	29244.449404412971	0.93589785985
5	167853	29244.854857802418	0.343600626882
5	167894	29256.638451876055	5.932305289645
5	167906	29259.705551673018	4.35674601404
5	167912	29259.814410345859	4.403486191739
5	167919	29260.798588421998	4.869500732998
5	167926	29261.221218112444	2.996024908417
5	167937	29264.377757072605	4.749890466048
5	167943	29265.198622967751	2.320104596767
5	167965	29268.852024143473	2.048757886251
5	167977	29269.484466565559	0.549370856519
5	167999	29272.368254540044	2.339240403463
5	168004	29273.335052662596	2.3653970339
5	168010	29273.639044856069	2.380078183387
5	168018	29274.587028141162	3.04620500101
5	168046	29277.665685611785	1.682752388387
5	168059	29278.53408604801	0.738148208943
5	168081	29280.265814288863	1.427140325887
5	168090	29281.221234678978	2.242543461031
5	168096	29281.78049408857	2.393134198642
5	168111	29284.46912848337	0.955082790925
5	168138	29286.37909510825	1.218953178353
5	168148	29289.382340142121	3.966389033965
5	168155	29291.660578615639	5.549994754845
5	168160	29291.71838571295	5.338310436993
5	168176	29293.665416960141	1.04164737408
5	168192	29296.089809713996	1.386527081547
5	168202	29298.143228301493	3.110543645224
5	168211	29299.96863236084	3.253803824688
5	168218	29300.603012438455	3.868852330667
5	168231	29302.921402694992	3.612513982295
5	168238	29304.675119088614	3.244376775681
5	168272	29309.626138590724	3.760891200419
5	168277	29309.76837537981	3.684947005066
5	168283	29311.093759373185	4.376385395272
5	168294	29311.875034465327	3.876608373628
5	168299	29311.9245209078	3.237192933733
5	168304	29313.503375604049	4.648009812848
5	168311	29315.637350025993	3.85367609959
5	168330	29319.634792722291	2.376104333734
5	168360	29323.332919618988	2.384184370172
5	168366	29323.984372655667	2.874094409549
5	168371	29325.19074428116	3.318481408527
5	168433	29333.71965030687	3.414452585211
5	168440	29334.384029088945	4.056249725054
5	168446	29335.171928128376	3.579961033786
5	168452	29336.098300058804	4.459850436374
5	168463	29337.213135934932	5.215323253001
5	168469	29337.629887303838	4.102872804586
5	168474	29337.737581590161	1.303631173558
5	168482	29338.887513949352	1.967731302963
5	168510	29341.352734566247	1.510022406602
5	168523	29344.550703976855	2.961724908578
5	168543	29346.130456595169	1.012825819467
5	168574	29351.909554887019	4.825371635511
5	168609	29356.92516481781	1.483229462772
5	168619	29358.181288521616	2.577766661184
5	168633	29359.63242503498	2.775527515907
5	168642	29360.249894652877	2.170157205687
5	168653	29360.891842630478	2.489758897443
5	168658	29361.127808645936	1.914327674694
5	168665	29362.676136318856	2.318358477081
5	168672	29364.85413709136	4.372247558138
5	168678	29365.550078357964	5.005319285634
5	168687	29366.151022137651	1.411059162811
5	168692	29368.815096618021	3.213908554044
5	168711	29370.70068929185	1.769546425464
5	168716	29370.852383301847	1.20398840923
5	168726	29372.422503826181	2.199396048381
5	168734	29372.525731668643	0.88401483118
5	168740	29373.05189103712	0.598182467862
5	168756	29374.888652138856	1.406027024897
5	168794	29377.526802801059	0.809836347221
5	168799	29377.857603651357	0.540240492714
5	168819	29381.104776785071	1.354299737324
5	168849	29385.100479581962	1.727819954519
5	168857	29385.634481978929	0.808612197151
5	168862	29385.715504544475	0.659840290401
5	168867	29385.849551034395	0.448727106556
5	168922	29399.095536238573	2.555577968178
5	168927	29399.300633405867	1.387785341084
5	168934	29399.66244078626	0.777770148012
5	168939	29400.024839872222	0.536059774159
5	168982	29405.140522321895	1.003674377062
5	168994	29408.203419884855	3.98642632067
5	169001	29408.760604522997	4.443724453483
5	169006	29409.024661288189	2.910270103074
5	169017	29410.005234514268	1.963993751803
5	169026	29411.706825382897	3.268980560199
5	169035	29412.188078329048	3.042962123578
5	169045	29415.490388039709	5.887133318195
5	169051	29415.882244505776	5.869064296493
5	169056	29416.037140096432	4.321915774132
5	169063	29418.145302207688	6.256379993348
5	169072	29419.632892105308	5.872845755745
5	169077	29420.170187004605	6.048693620451
5	169084	29420.906289700496	3.85772529843
5	169091	29421.867494689355	2.29056120349
5	169101	29423.19121723281	2.031594569677
5	169106	29423.328120150686	1.322899480329
5	169111	29426.404316574907	3.27224383909
5	169130	29429.276374699356	2.178112683289
5	169136	29429.556716426853	1.325428679281
5	169153	29432.430850671246	2.099239970494
5	169172	29435.68015972175	1.25790902686
5	169178	29435.995697729517	1.097261726409
5	169207	29441.313669585907	1.465858062906
5	169223	29443.990611586258	2.328553001952
5	169246	29447.008357117796	2.450050032461
5	169253	29448.64135210294	3.757992781896
5	169260	29448.866819363519	2.862481670451
5	169265	29449.499668429031	3.474461339274
5	169272	29450.271433372328	4.22006631543
5	169286	29451.780541384279	1.098650940251
5	169309	29453.381445157981	1.193465238906
5	169317	29455.403573291738	2.940901148001
5	169322	29456.03465502476	3.016857837803
5	169333	29458.028163162067	3.402330787661
5	169340	29458.539162691557	2.15223790092
5	169384	29466.757436371859	3.49003925416
5	169391	29467.258950272818	3.194455306582
5	169397	29467.391612786273	2.08964104383
5	169404	29468.304084194286	1.323105632216
5	169415	29471.401638482464	3.981644821905
5	169422	29472.145030563823	2.449700082543
5	169433	29477.226963426449	7.182277629825
5	169442	29480.545468712838	10.366092977574
5	169449	29481.227968580659	7.623967201712
5	169458	29482.05322070626	5.235432959526
5	169463	29482.765975685046	5.331942637749
5	169479	29485.41027625062	1.733161075255
5	169484	29485.710909446479	1.8595656619
5	169524	29488.99851655421	2.589553416847
5	169540	29492.469118638496	5.842159873282
5	169549	29492.79038033602	5.421942312127
5	169555	29493.898778123185	6.319309399737
5	169566	29497.839638558087	9.869017335268
5	169571	29500.594957229613	11.062809319801
5	169577	29501.29485091872	11.007575647477
5	169582	29501.359640293103	10.988855079001
5	169595	29503.470414005043	11.946428022362
5	169600	29503.984009811987	11.402955495743
5	169606	29504.0383076187	11.430322180651
5	169611	29504.213794422667	9.692839216847
5	169618	29505.335428830481	9.763750453217
5	169629	29508.125686024684	6.511206866842
5	169634	29509.013553038432	4.192888751075
5	169641	29509.82143304456	4.283737337432
5	169648	29512.86071668447	6.107707992976
5	169655	29513.924313790309	4.119686446505
5	169662	29515.444084823864	4.988900389315
5	169667	29515.653819281704	1.942211418914
5	169682	29522.122374868402	7.120024939637
5	169689	29522.866689104741	6.648511007291
5	169702	29524.945059239307	8.039821959911
5	169707	29525.17245149762	7.965729362352
5	169716	29525.719050898873	3.647209741864
5	169721	29525.814010064957	2.80012016358
5	169734	29528.014135715325	4.390043955926
5	169739	29528.390175774733	3.908117605729
5	169746	29529.436613744886	3.865778485567
5	169754	29532.316181305587	6.696541995965
5	169759	29532.617297979356	6.310741138478
5	169768	29535.765573872205	8.148474031044
5	169773	29538.028948440017	6.089264319376
5	169782	29540.296857497378	4.911713783069
5	169790	29542.561563260132	3.252477143548
5	169799	29545.777594409827	3.242134242238
5	169804	29546.295374385887	3.251101490829
5	169832	29550.023364784954	2.169217427316
5	169839	29550.420346517593	1.409416796314
5	169844	29551.383518125594	1.151305547531
5	169874	29554.739246186285	1.371944131265
5	169879	29554.876352995205	0.467608828823
5	169901	29560.559162973902	2.105096665169
5	169911	29562.628372135926	3.275135447748
5	169919	29563.991851734596	2.499257214706
5	169926	29566.446499478985	4.201658164725
5	169933	29567.238826052267	3.54260266728
5	169947	29569.789148001215	2.268105832695
5	170006	29580.792705221855	1.392175833203
5	170032	29585.173183229214	0.419290621698
5	170055	29587.33811438172	0.163262579439
5	170073	29590.624717284153	3.187360078807
5	170089	29593.706624388637	0.519906529001
5	170102	29594.409191006684	0.685304532958
5	170133	29598.595213279427	2.008804972361
5	170142	29599.041539400529	2.366879426384
5	170147	29599.263351919339	1.883038069049
5	170158	29601.649195790283	4.160444861465
5	170169	29604.49680423625	6.548287023394
5	170179	29607.524479874183	8.986664189699
5	170187	29608.201707407228	9.605715640256
5	170194	29609.90286128603	11.029471376496
5	170199	29610.287968078647	10.991467287667
5	170207	29610.567819811498	9.444869588808
5	170219	29611.565334107161	9.751561223756
5	170226	29612.248761768883	10.226707252463
5	170231	29613.490377307789	8.079144722895
5	170243	29616.358653039331	9.951143006241
5	170248	29616.569736438533	8.958695503561
5	170257	29618.447797822714	8.154185825798
5	170274	29622.525024213163	11.63769553361
5	170286	29624.767590143091	12.997532106988
5	170291	29624.79438355531	11.117675176899
5	170304	29628.789411236988	11.566707263988
5	170309	29631.27410617164	12.566096883412
5	170314	29632.366678392195	13.280214905238
5	170321	29633.769577863838	13.78954080972
5	170333	29636.30814601807	16.270799812765
5	170338	29636.506074971079	14.384039441344
5	170345	29638.157644887719	15.056290691288
5	170351	29639.384770652918	15.700257130207
5	170358	29642.045753006639	18.210321120206
5	170365	29643.443483467568	17.275493942366
5	170372	29646.46595316045	13.810657193179
5	170383	29652.141552733441	18.202385385795
5	170388	29653.191768976357	18.823892292398
5	170393	29653.555369144701	13.224636769603
5	170400	29653.787630510257	10.363678889902
5	170407	29655.502483931637	10.560474293463
5	170420	29659.810062245599	8.781850543464
5	170425	29660.674022430087	8.684900552975
5	170434	29662.647010161753	5.822945848967
5	170443	29664.429457623657	7.160164040805
5	170452	29667.872758927026	6.262886672736
5	170461	29670.369816383378	8.522728995885
5	170472	29678.396619451345	14.093821444893
5	170479	29679.309165103946	14.95120966522
5	170484	29680.595922821727	16.013284034279
5	170493	29681.092465106395	13.960157515983
5	170501	29682.567498670466	4.569760879215
5	170510	29684.608117032673	3.992231431011
5	170515	29686.005617475626	5.339766358117
5	170528	29689.984537047689	8.00548659243
5	170544	29691.548380456145	8.712310526037
5	170551	29694.118596217857	11.138377997988
5	170562	29697.543787705547	8.011003245295
5	170567	29697.62071200635	7.640209030006
5	170574	29697.852939196177	7.144570092358
5	170583	29699.456919399396	8.683756249774
5	170590	29701.001638621253	9.72503856205
5	170595	29702.038825620326	4.403449069746
5	170603	29702.810988935512	4.878202050441
5	170609	29703.407942503025	4.928752921842
5	170614	29703.835638555688	2.980446219221
5	170621	29705.011079858371	2.541518002853
5	170626	29705.896379612304	1.055142992314
5	170657	29710.670592785541	4.399149790306
5	170665	29713.360067153969	6.23470325075
5	170672	29714.623889723111	4.254762031597
5	170677	29715.245834047826	4.811386637733
5	170702	29717.651240405523	0.298487102227
5	170708	29718.604415878814	1.068848932899
5	170755	29722.750674602427	0.575576727439
5	170762	29723.021941186223	0.622194439036
5	170769	29723.958000467231	1.203157226639
5	170774	29725.242120055352	1.311181462127
5	170802	29732.694637877223	5.043493445104
5	170812	29734.151144820217	6.144845829714
5	170822	29736.001340507878	4.057634476276
5	170829	29737.165976125487	3.486781871433
5	170834	29738.873098722953	4.649416676675
5	170839	29739.530387062307	5.234954688008
5	170848	29740.795200281656	4.779978983964
5	170892	29749.110885922926	2.267266787873
5	170898	29750.007773619729	2.929045776421
5	170907	29751.7102373588	3.372461879333
5	170912	29752.018967190985	1.772120974894
5	170919	29756.680581998602	5.340057240608
5	170931	29758.001201292469	4.605220123647
5	170936	29759.453186554007	2.377599715901
5	170948	29761.153738865294	1.187877213271
5	170987	29764.645985765904	0.712371919349
5	171015	29767.517993170234	2.29328140443
5	171023	29768.742144000774	2.051712554142
5	171028	29769.032388122809	1.748211869416
5	171035	29770.593682232824	1.987443815543
5	171040	29770.907803920293	1.160319066681
5	171057	29774.379387373295	3.335179754434
5	171062	29776.133193662973	2.849514127713
5	171096	29783.3663041927	3.730559270889
5	171103	29783.87377437421	2.121564795186
5	171108	29785.25829897735	2.422465151658
5	171117	29785.72144311141	2.171579108541
5	171151	29789.284595977665	1.845706453573
5	171160	29791.165726786532	3.212413340615
5	171168	29791.975689065734	3.916221509941
5	171198	29794.933612238544	1.057346430402
5	171215	29800.766146539458	4.584408699935
5	171222	29801.765121634937	5.275415042687
5	171231	29802.005800791092	3.63990299615
5	171238	29802.741520670685	1.238837816229
5	171243	29803.072768290598	1.183226541091
5	171248	29803.676970471763	1.756987212741
5	171253	29804.757327840459	2.443604859847
5	171269	29807.45931085995	2.04081475347
5	171297	29815.258588334568	5.75953123826
5	171307	29816.610395106482	6.928278433412
5	171312	29816.808962117403	6.415660586486
5	171322	29817.949939381022	1.965814791943
5	171327	29818.244691160505	0.586514251574
5	171337	29818.859476001191	0.948157364273
5	171344	29819.21906118116	0.769315160485
5	171354	29823.634981389853	4.660506540031
5	171359	29825.580307375965	5.553811892508
5	171371	29827.412309616474	4.229331676169
5	171378	29827.652529652225	1.482436562441
5	171387	29829.633271245357	2.650169862475
5	171406	29835.840324807247	8.233867710902
5	171415	29836.581999734301	8.709105868521
5	171420	29838.175591602855	4.935797714235
5	171425	29838.691307005126	5.093150520958
5	171431	29840.222582706384	5.459857381875
5	171438	29841.297970778088	5.889689089047
5	171443	29841.693744505916	6.180851964954
5	171450	29845.286595665873	8.904927065387
5	171457	29846.834125879142	6.156460288069
5	171492	29852.284444047864	2.295332813303
5	171516	29853.644691601161	0.821520532559
5	171521	29854.528699968947	1.680597044758
5	171551	29858.97072299161	2.732379363261
5	171569	29863.010469224887	6.675632898134
5	171575	29864.109799290373	3.671190122524
5	171580	29864.498902704211	3.546862865617
5	171587	29864.855229253619	1.941844051015
5	171594	29866.075598189211	1.393833054784
5	171609	29870.927193054056	5.211791440087
5	171616	29871.62756077726	5.313797051781
5	171622	29873.156868918346	5.612192980309
5	171628	29874.117208088397	5.303712821882
5	171635	29874.582682655594	5.63107006938
5	171650	29882.021025296286	12.822243388412
5	171668	29883.73532219423	9.331682874609
5	171675	29883.894171290513	6.296766329917
5	171685	29886.730041776906	9.04761660842
5	171690	29887.410454815661	9.575132751497
5	171695	29887.687985644855	8.391248758358
5	171703	29889.549119668807	8.943018777332
5	171708	29890.005937038992	7.663298293639
5	171715	29892.23518331511	9.395246487042
5	171720	29893.175857867767	10.136055469421
5	171731	29895.9464583878	12.276719080865
5	171738	29897.087435824367	13.279359338313
5	171749	29899.540936218199	14.106211987293
5	171758	29902.426469148614	16.242224053577
5	171765	29904.186501226903	15.638186836005
5	171770	29905.100237124861	13.225229142173
5	171777	29908.748387533544	14.402283317766
5	171785	29911.052798827543	15.746526284743
5	171790	29911.849193964163	15.935585505025
5	171799	29913.264134140667	17.0851425782
5	171808	29913.86321652829	16.696252432257
5	171819	29916.990052569074	13.049429047685
5	171826	29919.575369171448	14.288425924946
5	171835	29920.689409081727	7.8165758164
5	171840	29920.966060514514	7.972588809184
5	171848	29922.39625592038	8.83788898886
5	171853	29922.75014436124	9.131194408635
5	171862	29924.433965533084	5.62887896076
5	171867	29925.674279285554	5.128628997736
5	171874	29927.12072952509	4.053779262893
5	171881	29928.58980722163	4.361294630067
5	171892	29930.679544839036	3.078867572303
5	171897	29932.836315553546	4.106397310182
5	171910	29935.200033643149	4.831790412525
5	171919	29936.074368992016	1.568748302643
5	171935	29940.208863995911	4.789372445726
5	171952	29945.193080557651	9.756012237727
5	171957	29945.34827919535	9.172752936979
5	171966	29947.439027894227	7.425556565065
5	171979	29952.916212513613	12.240595710755
5	171985	29954.06681167152	11.521893846773
5	171990	29954.326781363135	11.304410851076
5	172001	29958.022031448155	13.140670842554
5	172010	29959.96103311127	11.013689306465
5	172016	29960.506749522132	10.267384189915
5	172021	29961.473229716955	10.720952677768
5	172026	29962.33656548936	10.045409582537
5	172033	29964.160197703807	9.37786702413
5	172038	29966.825642078214	7.466405766892
5	172047	29969.480861371366	5.322825275138
5	172056	29971.360346010051	4.311818112847
5	172066	29973.244052061353	6.164815265595
5	172071	29973.919440553302	3.72685585317
5	172080	29978.312639028121	7.752545283981
5	172087	29979.687681598823	6.565613445687
5	172094	29981.224798083625	6.33678644527
5	172099	29981.59499130766	2.161005884782
5	172104	29982.661877534402	1.776712095204
5	172134	29985.534695318532	1.65288110285
5	172153	29988.211930578657	2.647835484265
5	172163	29990.284703732739	4.676400962133
5	172170	29991.716351536258	3.280222085093
5	172179	29993.031960535498	4.340039610852
5	172186	29996.014361663042	4.178809922342
5	172193	29998.011872480066	4.468564655991
5	172198	29998.778883574662	1.79854734714

