version 2
run First-n5-5-20191016-14:52:45-8428
attr configname First-n5
attr datetime 20191016-14:52:45
attr experiment First-n5
attr inifile omnetpp.ini
attr iterationvars ""
attr iterationvarsf ""
attr measurement ""
attr network org.omnetpp.queueing.Pizza
attr processid 8428
attr repetition 5
attr replication ""
attr resultdir results
attr runnumber 5
attr seedset 5
param **.PS.maxInventoriedPS 5
param **.U1.interArrivalTime exponential(2s)
param **.U2.interArrivalTime exponential(4s)
param **.PS.serviceTimeForInventoryU1 exponential(0.8s)
param **.PS.serviceTimeForInventoryU2 exponential(1.0s)
param **.PS.serviceTimeDirectU1 exponential(1.2s)
param **.PS.serviceTimeDirectU2 exponential(1.4s)
param **.PS.probabilityProducing 0.5
param **.CS.serviceTimeU1 exponential(0.8s)
param **.CS.serviceTimeU2 exponential(1.0s)

vector 0 Pizza.EntryQueueU1 queueLength:vector ETV
attr interpolationmode sample-hold
attr title "queue length, vector"
vector 1 Pizza.CS queueLength:vector ETV
attr interpolationmode sample-hold
attr title "queue length, vector"
vector 2 Pizza.EntryQueueU2 queueLength:vector ETV
attr interpolationmode sample-hold
attr title "queue length, vector"
vector 3 Pizza.sink lifeTime:vector ETV
attr interpolationmode none
attr title "lifetime of arrived jobs, vector"
attr unit s
vector 4 Pizza.sink lifeTimeU2:vector ETV
attr interpolationmode none
attr title "lifetime of arrived jobs, vector"
attr unit s
0	0	0	0
0	5	0.502039955384	1
0	7	0.965195882806	2
0	9	1.869482112156	3
0	12	2.812875588987	2
0	17	4.297919186127	1
0	25	6.886510062585	2
0	33	8.927397378856	1
0	38	9.028842098001	0
0	44	9.568695461828	1
0	45	9.82162745854	0
0	65	11.052006438691	1
0	68	11.414122002067	2
0	70	13.06217017659	3
0	71	13.18080375048	2
0	85	17.595758406917	1
0	92	19.511290166425	2
0	94	19.522793305443	3
0	95	19.674865611935	2
0	101	20.122566042585	3
0	102	20.972466358309	2
0	107	21.150746637739	1
0	116	22.10508044026	0
0	122	22.322146794463	1
0	124	22.455509806616	2
0	127	23.473646830315	3
0	130	24.309310602704	4
0	133	25.295717401149	3
0	138	25.399393037363	2
0	143	25.471793054866	1
0	148	26.150249777024	0
0	152	26.185885309215	1
0	155	26.432261565019	0
0	186	32.885865446366	1
0	190	33.516633249238	0
0	240	41.670137523465	1
0	243	41.92014826536	2
0	246	43.221623091993	3
0	247	43.457953596171	2
0	254	43.931304280301	1
0	259	43.947786003425	0
0	274	46.364379222393	1
0	276	47.568868418609	2
0	277	48.200566196236	1
0	282	48.765350852536	0
0	312	57.986770392491	1
0	313	59.283426577511	0
0	326	60.149362879789	1
0	327	60.389859067492	0
0	340	64.812405192823	1
0	342	65.625381771738	2
0	344	66.561279701304	3
0	347	67.611102950196	2
0	351	67.740669198538	3
0	355	68.241397485442	4
0	356	68.474311184927	3
0	360	70.220781119368	4
0	364	70.667529510832	5
0	366	70.94707158366	4
0	371	71.192550856845	3
0	376	71.810626945976	2
0	380	72.150155940356	3
0	382	72.327972396561	4
0	384	72.529879216312	5
0	391	73.435524460069	4
0	397	75.828082046187	5
0	398	76.787872027788	4
0	404	78.666976000699	5
0	405	79.825545344732	4
0	412	80.602604811204	3
0	419	82.517260871666	4
0	420	82.51843404503	3
0	425	82.633427754768	2
0	431	82.897069725795	3
0	432	83.465640126475	2
0	439	86.433555253044	1
0	444	86.791118329739	0
0	450	88.275317069036	1
0	453	89.137082102823	0
0	457	89.18266501811	1
0	463	92.245467168249	0
0	474	92.719117748512	1
0	477	93.987744262995	0
0	503	98.511208891374	1
0	507	99.390600256359	0
0	519	99.811159425792	1
0	520	99.83348738357	0
0	526	100.044043668599	1
0	528	100.742994129269	0
0	534	100.825591495128	1
0	536	101.401443191681	0
0	554	104.572015092339	1
0	555	104.826480298094	0
0	566	105.550321833521	1
0	568	105.812903659862	0
0	576	107.260982780021	1
0	579	107.385513380417	2
0	580	107.385963455049	1
0	587	108.101630515499	0
0	593	108.678219897457	1
0	596	108.885770284194	0
0	602	108.980763809188	1
0	603	109.436724801139	0
0	616	110.898645323553	1
0	617	111.032276539067	0
0	621	111.797681740185	1
0	623	111.853890618971	2
0	627	114.796108600828	3
0	629	115.196626453699	4
0	633	116.8509268499	5
0	636	117.972175932056	6
0	637	118.487914070279	5
0	642	118.933514730958	4
0	647	119.966729735057	3
0	652	120.240568062017	2
0	656	120.738252535878	3
0	661	122.361942119097	2
0	666	122.694193048991	1
0	672	122.901305373654	2
0	673	123.427211967169	1
0	679	125.03005985456	2
0	681	125.985416697608	3
0	687	127.679003723859	4
0	690	128.475499729145	3
0	696	130.394423292115	4
0	699	130.415428875823	3
0	703	130.574162819498	4
0	708	131.138556670525	5
0	709	131.288846266177	4
0	714	131.486264416998	3
0	719	134.072667663015	2
0	723	134.656295335211	3
0	727	135.349745665449	4
0	728	136.305010809421	3
0	733	138.315279793533	2
0	738	138.692730076368	1
0	743	138.938846175677	0
0	747	139.744908781615	1
0	752	140.583327814139	0
0	763	140.973979630968	1
0	764	141.059618863255	0
0	777	145.461493923928	1
0	778	146.29745913457	0
0	816	149.838211066616	1
0	818	150.21746471465	0
0	853	155.739304692104	1
0	857	157.633744161557	0
0	865	158.143074375128	1
0	870	159.827834242334	2
0	871	160.236685128168	1
0	876	160.319585472757	0
0	888	160.685795861397	1
0	893	162.091764758414	0
0	943	176.62563908956	1
0	945	177.529785323812	0
0	967	181.171895679487	1
0	972	183.278225271273	0
0	986	185.517366758047	1
0	987	186.039224069934	0
0	1022	192.244640728355	1
0	1025	193.019037845892	2
0	1026	193.773210948049	1
0	1032	194.422697015703	2
0	1033	195.431556955201	1
0	1038	197.011721745059	0
0	1042	197.689656293376	1
0	1044	198.529214519247	2
0	1046	201.280570843293	3
0	1049	202.113584165092	2
0	1053	202.544951610824	3
0	1059	204.011917256587	4
0	1060	204.138313218019	3
0	1065	204.417789601475	2
0	1074	204.844960419097	3
0	1075	205.921409254213	2
0	1080	206.615123540332	1
0	1085	209.101762593992	0
0	1089	209.364003275066	1
0	1093	211.132994438652	2
0	1101	212.644786154684	3
0	1103	213.351970423846	4
0	1105	215.126738432052	5
0	1106	215.498746070219	4
0	1111	216.831738418344	3
0	1118	218.987524944097	2
0	1124	219.859242810211	3
0	1127	220.558106128596	2
0	1132	220.735882139472	1
0	1138	221.549069118865	0
0	1144	221.66838777676	1
0	1145	221.956675643858	0
0	1149	223.803485496248	1
0	1155	224.268717909148	2
0	1156	224.917542376993	1
0	1160	225.247869752188	2
0	1163	226.49340577683	1
0	1170	228.523901700446	0
0	1174	229.96060754632	1
0	1176	230.080926733991	2
0	1180	230.350034802167	1
0	1186	230.684642020556	0
0	1192	230.956570160289	1
0	1196	231.539190854101	2
0	1198	231.779096731193	3
0	1199	232.15566846888	2
0	1203	232.198268814847	3
0	1205	233.759240697619	4
0	1207	235.118956416425	5
0	1211	235.96219690681	6
0	1212	236.500648089242	5
0	1224	238.916141743954	4
0	1230	239.395595722534	5
0	1231	240.384361404215	4
0	1240	241.815629267643	3
0	1249	243.436767293274	2
0	1254	244.010909106522	1
0	1260	244.633516383275	2
0	1261	244.651468653542	1
0	1267	244.996703494908	2
0	1276	246.611286009665	3
0	1279	247.231744397079	2
0	1285	247.432216517791	3
0	1287	247.794217752894	4
0	1289	247.949546292771	5
0	1291	249.673428434834	6
0	1293	249.813815470384	7
0	1294	250.185564140912	6
0	1304	250.919393539807	7
0	1305	251.303615166939	6
0	1309	251.771495284374	7
0	1311	252.246809249275	8
0	1313	252.864688598713	9
0	1316	252.988719774723	8
0	1321	254.013312209838	7
0	1326	256.096197719359	6
0	1331	256.723002172009	5
0	1339	260.254485793553	6
0	1343	260.598783573478	7
0	1345	260.833818339145	8
0	1347	260.939476618972	9
0	1348	260.95791097927	8
0	1353	260.987261660889	7
0	1358	261.173603512406	6
0	1362	263.085655806639	7
0	1366	263.505611270929	8
0	1374	265.980163659707	7
0	1379	266.526085838635	6
0	1383	267.169534923307	7
0	1385	267.360711080084	8
0	1387	267.400891617232	9
0	1389	268.286657338706	10
0	1398	270.259271398062	9
0	1403	270.616141628714	8
0	1407	271.075985034883	9
0	1412	272.255757264541	8
0	1418	274.045595257077	9
0	1419	274.948564546704	8
0	1424	276.897317628627	7
0	1428	277.068112600096	8
0	1430	277.316389462918	9
0	1434	277.580395449878	10
0	1436	277.590998812837	11
0	1437	277.801452653698	10
0	1443	278.520776798657	11
0	1444	279.315785020129	10
0	1448	279.938139719777	11
0	1453	280.638381901645	10
0	1457	280.880948642118	11
0	1461	282.381651218321	12
0	1462	282.538800312111	11
0	1466	283.295985041288	12
0	1472	287.081530139397	11
0	1479	289.352215864663	12
0	1480	289.588869833256	11
0	1485	290.290393389818	10
0	1489	290.407982101292	11
0	1492	293.912749453043	10
0	1497	294.306030923063	9
0	1501	294.804420593554	10
0	1504	296.709908040965	9
0	1509	297.287584827638	8
0	1516	299.783589056612	7
0	1522	300.939476998043	8
0	1524	300.94369114357	9
0	1526	300.964789747292	10
0	1530	303.258321121745	11
0	1531	303.271356979977	10
0	1540	304.730195336969	9
0	1545	306.92675909667	8
0	1551	307.487764962552	7
0	1556	307.772252391384	6
0	1561	307.88143440101	5
0	1571	311.084492932851	6
0	1572	311.086240536654	5
0	1578	311.436522378685	4
0	1583	311.68558094451	3
0	1590	312.016206780872	4
0	1591	312.078449338882	3
0	1596	312.334836411307	2
0	1601	313.866893279668	1
0	1608	314.496972875582	0
0	1620	315.553400453212	1
0	1621	315.632757700253	0
0	1633	318.075491551937	1
0	1634	318.515306719269	0
0	1645	322.760872500641	1
0	1652	324.902078005499	2
0	1655	325.002143538735	1
0	1661	325.155805926585	0
0	1673	325.676873360962	1
0	1675	326.742289158664	0
0	1719	332.014285452759	1
0	1721	332.423928251145	2
0	1722	333.385223574195	1
0	1729	334.611460621201	0
0	1745	335.772262534975	1
0	1747	336.275369855368	0
0	1780	338.425557072051	1
0	1781	338.746043941903	0
0	1806	342.992370069164	1
0	1807	343.025738577821	0
0	1814	343.283094140169	1
0	1816	343.508328054822	2
0	1817	343.512931306775	1
0	1822	343.517375877155	0
0	1828	343.848385710792	1
0	1831	345.639468007645	0
0	1851	349.007176184277	1
0	1857	351.403949569755	0
0	1877	352.16400207541	1
0	1878	352.191333323227	0
0	1904	353.218191322101	1
0	1905	353.56755557152	0
0	1915	354.126857720469	1
0	1921	356.921532148597	0
0	1944	359.831133770866	1
0	1946	360.09727142885	0
0	1960	360.679729624965	1
0	1963	361.3203285559	0
0	1977	361.754985940561	1
0	1981	363.26562979552	2
0	1982	363.329409798788	1
0	1988	363.561070134348	2
0	1990	363.798519215685	1
0	1996	364.070314939578	0
0	2009	365.906074052632	1
0	2010	366.357640449018	0
0	2016	366.696428629275	1
0	2018	366.951476145406	0
0	2048	373.238418235876	1
0	2050	373.69711221176	2
0	2052	374.046784398849	3
0	2054	374.489158029371	2
0	2059	374.523166124188	1
0	2064	375.105527940195	0
0	2108	380.830210274715	1
0	2110	381.448777259339	0
0	2137	386.182053604437	1
0	2138	386.266023199648	0
0	2175	391.547597510885	1
0	2179	392.104316499676	2
0	2183	393.3737392529	3
0	2186	394.442871639963	2
0	2191	394.464698090488	1
0	2197	394.484184271239	2
0	2202	394.912013316566	1
0	2207	395.300865334192	0
0	2230	398.331208736491	1
0	2232	398.435525355607	2
0	2233	398.672492695772	1
0	2238	398.679214751219	0
0	2251	399.494281141724	1
0	2253	400.015145932892	2
0	2255	400.064471827395	3
0	2260	401.975770794391	4
0	2265	402.619576263682	3
0	2270	403.141674879744	2
0	2276	403.422631097445	3
0	2278	404.010696685684	4
0	2283	404.648055560155	5
0	2288	405.488602448058	4
0	2294	406.86501347947	5
0	2295	406.899340932	4
0	2300	406.90027984893	3
0	2305	409.452025252261	2
0	2310	410.759626149417	1
0	2321	414.171068999467	0
0	2335	415.819875106586	1
0	2336	416.45374321279	0
0	2343	416.985842637343	1
0	2344	417.061292251285	0
0	2381	421.818276205706	1
0	2384	421.984860577633	0
0	2390	422.022855622794	1
0	2391	422.336625565411	0
0	2416	424.75832876351	1
0	2417	424.767540166838	0
0	2423	426.627822670531	1
0	2425	426.987546867709	2
0	2428	427.226819608148	1
0	2436	428.444822590428	2
0	2438	429.551523408483	3
0	2439	430.236351120255	2
0	2444	430.445130068827	1
0	2449	431.420763514661	0
0	2488	436.031748864376	1
0	2492	436.482214359209	2
0	2494	437.129042307911	3
0	2496	438.492034460665	4
0	2504	441.119418388762	3
0	2511	442.581959123191	4
0	2517	444.127181866108	3
0	2522	445.141241485634	2
0	2528	445.266775084896	3
0	2529	445.735051760755	2
0	2534	446.181533027983	1
0	2540	446.935719501326	0
0	2551	447.667656366554	1
0	2559	449.149581182304	0
0	2565	449.836660473544	1
0	2566	451.543429570071	0
0	2570	451.972411711979	1
0	2572	452.032943117352	2
0	2574	452.124739540726	3
0	2580	454.394774936021	4
0	2582	454.415602057914	5
0	2583	455.08964492297	4
0	2589	455.724961642044	5
0	2590	456.548547779901	4
0	2596	456.905366205526	5
0	2605	458.79030982286	6
0	2608	458.894066150403	5
0	2614	458.953899440927	6
0	2620	459.302501388539	7
0	2621	459.696835362753	6
0	2629	461.854181196606	7
0	2630	462.58237725202	6
0	2635	463.064896566466	5
0	2640	463.711135795158	4
0	2645	465.103883275378	3
0	2650	467.772974713977	2
0	2654	467.796617950461	3
0	2656	469.208782139111	4
0	2658	469.312291669335	5
0	2661	470.117879118459	4
0	2666	471.427496270663	3
0	2671	472.340152225212	2
0	2676	473.163221739229	1
0	2683	475.174963910452	0
0	2719	479.62740279001	1
0	2722	480.250573625473	0
0	2739	481.991503303902	1
0	2741	482.388859087704	0
0	2762	485.09844336706	1
0	2765	485.811725646034	0
0	2772	486.706948137113	1
0	2774	486.849120818816	2
0	2779	487.257734653351	1
0	2785	488.547857287747	0
0	2806	492.265394853162	1
0	2807	492.381006161858	0
0	2839	495.511894168776	1
0	2841	495.633575998658	2
0	2842	495.682318399523	1
0	2848	496.207509873543	2
0	2849	496.327621517305	1
0	2855	496.506310785171	0
0	2871	499.235281964859	1
0	2877	501.745473162725	0
0	2889	502.560984820423	1
0	2890	502.628118753441	0
0	2896	502.657621955914	1
0	2897	502.911996408888	0
0	2918	506.731929779427	1
0	2922	507.625808262677	0
0	2931	508.153048455308	1
0	2937	511.020101328318	2
0	2940	512.36990444051	1
0	2945	513.197889773796	0
0	2971	518.26412389106	1
0	2974	519.781682507613	0
0	2980	520.083712710409	1
0	2983	520.38671828017	0
0	3002	527.756891652318	1
0	3004	528.377999501927	2
0	3008	528.801870103191	1
0	3014	529.089037908931	0
0	3018	529.297475060035	1
0	3020	530.169606516016	2
0	3023	530.299177350453	1
0	3029	531.369402851143	2
0	3032	531.573356850868	1
0	3042	532.975859839197	0
0	3053	533.194916919185	1
0	3057	533.799530301866	0
0	3065	534.25159947344	1
0	3066	534.506011233756	0
0	3081	537.108910573408	1
0	3083	537.8509235091	2
0	3084	537.888713526551	1
0	3088	538.384506960643	2
0	3092	540.319713861345	1
0	3097	541.016324793083	0
0	3101	541.15749242467	1
0	3108	545.025306906549	0
0	3112	545.048363279944	1
0	3114	545.210849632418	2
0	3118	545.958247332597	1
0	3124	546.727436978104	0
0	3142	547.940652706455	1
0	3144	548.742064396769	0
0	3161	550.366172595684	1
0	3165	550.565082391795	2
0	3168	551.829747739864	1
0	3174	553.439920840812	0
0	3195	558.189519409296	1
0	3196	558.542139491186	0
0	3202	558.584085280984	1
0	3204	558.807872356652	2
0	3205	558.931413804136	1
0	3211	559.296787012364	2
0	3213	559.922143736264	3
0	3214	560.306852591951	2
0	3219	561.642198924517	1
0	3223	563.48593583992	2
0	3226	565.268646470895	1
0	3230	565.342579384532	2
0	3233	565.477519269558	1
0	3242	568.327013837572	0
0	3248	568.401394476689	1
0	3249	568.894663514401	0
0	3284	575.477689049472	1
0	3285	575.624648474089	0
0	3302	580.69210811081	1
0	3303	580.736086959894	0
0	3312	580.786426668215	1
0	3314	580.943345072549	2
0	3320	582.252933635926	3
0	3322	582.395284071787	4
0	3324	583.451754856826	5
0	3326	584.058875410094	6
0	3328	584.171460659113	7
0	3329	584.214522053308	6
0	3339	585.859659944305	7
0	3341	586.082604884904	8
0	3343	586.129368050262	9
0	3344	586.212106990165	8
0	3349	586.484244132267	7
0	3355	587.305358206675	6
0	3363	588.664877468357	5
0	3371	589.499244985896	6
0	3372	590.176083149458	5
0	3377	590.692086950565	4
0	3382	591.898461636435	3
0	3388	593.318814084823	4
0	3389	593.73338583742	3
0	3395	596.842341987774	4
0	3401	598.741025318483	5
0	3402	599.460230893794	4
0	3408	599.973748193259	5
0	3410	601.243991908612	4
0	3416	601.916345373254	5
0	3418	602.278255132809	6
0	3420	602.940820963795	7
0	3422	603.720580752602	8
0	3423	604.410198504926	7
0	3427	608.372189142137	8
0	3429	608.813207109611	9
0	3436	610.125147163573	10
0	3438	610.180214912889	11
0	3442	610.91242181998	12
0	3445	611.724682581967	11
0	3451	612.320373964032	10
0	3458	612.877339558593	9
0	3465	613.846000292148	8
0	3472	614.679057779231	7
0	3478	615.445716742241	6
0	3484	615.706897630164	7
0	3485	616.136951562177	6
0	3489	616.441786691262	7
0	3495	618.149283511792	8
0	3497	618.848169311589	9
0	3498	619.482219248565	8
0	3506	620.467313939773	9
0	3508	620.951801359858	10
0	3510	622.439521608534	11
0	3512	622.55618884602	12
0	3515	623.506049612193	11
0	3519	624.016857795114	12
0	3523	625.240846464795	13
0	3527	625.745927584928	14
0	3529	626.231413684149	15
0	3530	626.283991715361	14
0	3537	627.607337468964	13
0	3542	628.275350130169	12
0	3548	630.834864696724	13
0	3549	631.138241551077	12
0	3553	631.249307612567	13
0	3556	632.079797108071	12
0	3562	633.964039716666	13
0	3566	636.93313587386	12
0	3572	637.374205972846	13
0	3573	638.092033703011	12
0	3577	638.137392275419	13
0	3579	639.207216724657	14
0	3583	640.541477823765	15
0	3584	640.700262223065	14
0	3589	641.839398863179	13
0	3593	643.663216375477	14
0	3597	644.714076050708	13
0	3602	645.080432054235	12
0	3606	645.163589306491	13
0	3608	645.673448158157	14
0	3615	647.797103585742	13
0	3621	649.184952854415	14
0	3623	649.253546742139	15
0	3626	649.670871501651	14
0	3630	649.860552728101	15
0	3637	651.392297704539	16
0	3638	652.279233124104	15
0	3644	653.345660488569	14
0	3650	653.965087151854	13
0	3655	653.977092422935	12
0	3659	654.647658196329	13
0	3662	655.017853313585	12
0	3672	657.9244425004	11
0	3677	658.579427838751	10
0	3681	659.542091811929	11
0	3685	660.223426991778	12
0	3689	663.015978439521	13
0	3692	664.376825031905	12
0	3697	664.905118576301	11
0	3702	666.608037998951	10
0	3706	667.385309442011	11
0	3709	670.103318468865	10
0	3714	672.339711188592	9
0	3718	672.562334718914	10
0	3721	672.651284391118	9
0	3726	673.042786359754	8
0	3734	675.038195693507	9
0	3736	675.945934353083	8
0	3741	676.773229278094	7
0	3746	676.984966525	6
0	3751	677.451568739803	5
0	3755	677.506857014539	6
0	3758	677.797767082932	5
0	3764	679.36384811165	4
0	3769	679.584181481069	3
0	3775	681.002517430133	4
0	3778	681.056041442893	3
0	3784	681.62009346206	4
0	3786	682.327990213919	5
0	3788	682.423765321361	6
0	3790	683.615772083882	7
0	3791	683.764609621223	6
0	3796	684.557719868631	5
0	3800	685.929214486073	6
0	3804	686.119409900678	7
0	3805	686.315040911742	6
0	3811	686.507745703772	7
0	3812	686.538346363742	6
0	3820	688.604865379696	5
0	3826	689.177851405224	6
0	3827	689.55275438078	5
0	3832	689.901328879068	4
0	3837	690.209115831939	3
0	3843	691.045394752878	4
0	3844	691.938646714105	3
0	3852	692.905926469832	2
0	3857	694.938439126594	1
0	3863	696.585745913998	2
0	3864	696.73608302546	1
0	3869	697.147954950796	0
0	3873	698.078865267293	1
0	3876	698.975654233201	0
0	3882	702.605691535171	1
0	3884	703.369785106413	2
0	3886	703.648105317267	3
0	3888	705.158852628246	4
0	3891	706.713878171143	3
0	3896	707.194957060411	2
0	3904	709.220110224743	3
0	3905	710.031474211978	2
0	3912	710.528077067941	1
0	3916	710.933244806911	2
0	3919	715.398629764788	1
0	3923	715.918137862604	2
0	3927	717.136853787067	3
0	3932	720.862086235572	2
0	3938	723.102516841247	1
0	3945	723.310233297157	0
0	3968	725.573322510468	1
0	3971	727.154906276464	0
0	3979	727.730050492705	1
0	3981	729.055268005973	0
0	4003	730.836098104181	1
0	4004	731.0001507439	0
0	4021	732.430540215766	1
0	4023	732.990905460616	2
0	4025	733.037490397059	3
0	4032	735.074372309767	4
0	4034	736.202387950158	3
0	4041	736.801199269464	2
0	4046	737.178645034218	1
0	4051	737.606378043264	0
0	4057	739.645171722892	1
0	4059	739.745660586831	0
0	4071	741.098662104785	1
0	4072	741.273299712766	0
0	4088	744.880065332131	1
0	4089	745.681779640759	0
0	4093	746.860089790926	1
0	4096	750.062347143157	0
0	4111	752.588587831136	1
0	4115	754.118188954733	2
0	4120	757.953038915623	1
0	4127	761.49597070207	0
0	4148	766.369876657957	1
0	4151	766.8023315812	0
0	4166	767.295677494327	1
0	4167	768.467644925467	0
0	4171	770.512658412723	1
0	4173	771.036734432805	2
0	4178	771.337342563912	1
0	4185	771.735145125241	2
0	4187	771.779942857686	3
0	4189	772.234577538675	4
0	4190	772.262092099324	3
0	4196	772.953247030343	4
0	4198	773.452770849826	5
0	4203	774.072472380567	6
0	4205	775.438126823475	7
0	4207	775.699228119802	6
0	4215	776.71357768551	5
0	4220	777.14975478798	4
0	4227	777.769763224454	3
0	4231	778.281312410729	4
0	4233	778.289469078272	5
0	4239	780.008746347341	4
0	4245	780.564139517029	5
0	4246	781.233032082401	4
0	4251	781.365414803984	3
0	4255	781.539102732799	4
0	4259	783.889953661038	3
0	4264	784.007514719169	2
0	4268	784.262736833632	3
0	4270	784.801632887331	4
0	4272	786.658766125232	5
0	4280	789.081920462642	6
0	4281	789.342156782793	5
0	4287	789.807433750483	4
0	4293	790.612149749216	5
0	4294	791.14379535077	4
0	4300	793.442520945244	5
0	4302	793.811797173992	6
0	4305	795.308673856125	5
0	4310	796.481959544584	4
0	4316	797.978601140513	5
0	4317	798.547683564488	4
0	4323	799.277104690773	5
0	4324	799.779558322168	4
0	4329	801.35133361538	3
0	4339	807.12480400549	4
0	4344	807.974990696548	3
0	4354	810.076311625942	4
0	4355	810.248871527447	3
0	4361	810.50322248308	2
0	4366	813.731726950271	1
0	4371	813.971878000042	0
0	4375	813.97740740007	1
0	4377	814.298753096071	2
0	4384	818.034213161195	1
0	4388	818.92217028783	2
0	4395	820.51146583652	1
0	4400	820.530751767696	0
0	4406	820.753440467709	1
0	4407	821.446294410949	0
0	4432	825.990465233332	1
0	4439	827.033788744858	0
0	4455	828.653071040075	1
0	4458	828.997559574943	0
0	4479	830.638552615248	1
0	4484	831.787499748295	0
0	4491	833.500791680607	1
0	4493	833.546369817023	2
0	4494	834.474876923274	1
0	4502	835.104833975216	2
0	4503	835.248075182395	1
0	4508	835.35478385729	0
0	4523	837.619099433994	1
0	4525	838.448369651005	0
0	4531	838.72963670406	1
0	4539	840.189858279702	2
0	4540	840.533863366686	1
0	4545	840.751624003537	0
0	4553	841.446397518472	1
0	4554	842.608387833723	0
0	4576	844.190460079302	1
0	4578	844.470425149823	0
0	4609	851.248672280628	1
0	4611	852.26093351209	2
0	4612	853.799890693223	1
0	4618	854.246384422891	2
0	4620	855.305976673547	1
0	4625	856.427269650704	0
0	4633	857.152118206214	1
0	4634	857.59314602416	0
0	4650	857.957629526991	1
0	4653	859.049959556673	2
0	4654	859.670526965592	1
0	4661	860.53706452753	2
0	4663	861.101892524503	1
0	4670	861.706516803805	2
0	4671	862.166037362322	1
0	4676	862.505495015115	0
0	4697	866.838151357882	1
0	4701	868.262597805034	0
0	4721	870.471332251291	1
0	4723	870.915343523539	0
0	4767	875.019598262431	1
0	4772	876.676274521944	0
0	4786	879.465189074898	1
0	4787	879.660367469162	0
0	4806	881.746579225702	1
0	4807	881.841164779239	0
0	4813	882.657248074162	1
0	4815	882.897397561764	0
0	4835	886.5615620291	1
0	4837	886.841545744993	2
0	4841	887.903164134905	3
0	4842	888.391010953989	2
0	4848	888.599389176933	3
0	4851	889.582686110485	4
0	4852	889.810811271559	3
0	4858	891.746611622735	2
0	4863	892.296550988325	1
0	4869	892.521057347403	2
0	4871	892.671161320093	3
0	4872	892.722309310106	2
0	4877	892.752736868838	1
0	4886	894.128546192936	0
0	4890	894.61550510544	1
0	4894	895.296194271664	2
0	4895	895.658597810004	1
0	4899	896.161843840229	2
0	4904	896.893029646095	1
0	4911	898.835590819996	0
0	4952	904.839041743975	1
0	4953	904.839273291364	0
0	4961	905.908703072325	1
0	4963	906.453968000825	0
0	4986	907.797475384988	1
0	4988	908.66984277545	2
0	4990	909.684678842997	1
0	4996	910.194180569727	0
0	5012	912.748671818908	1
0	5013	913.155159410939	0
0	5020	914.324845176465	1
0	5023	914.85349114569	0
0	5030	914.956546160266	1
0	5033	915.471490712545	2
0	5035	916.014764313051	1
0	5040	916.616160922849	0
0	5054	919.738690334371	1
0	5056	920.604292835152	2
0	5062	921.66180439393	3
0	5063	922.026512608031	2
0	5068	922.086208714841	1
0	5075	922.825337593018	2
0	5078	924.745659901935	1
0	5083	925.933428572737	0
0	5094	926.722071115192	1
0	5099	928.595606749744	2
0	5100	928.877855240124	1
0	5105	929.167813366936	0
0	5131	932.810473923883	1
0	5135	934.108201048141	2
0	5136	934.596016221794	1
0	5141	934.942183234495	0
0	5153	935.19028788879	1
0	5159	936.630913817866	2
0	5161	937.077072884503	3
0	5163	937.318742255902	4
0	5167	937.919619493093	3
0	5174	939.081948717795	2
0	5180	939.45619718079	1
0	5187	940.02613517421	2
0	5188	940.824487376221	1
0	5196	942.196799977422	2
0	5197	942.592882550876	1
0	5201	942.850753590939	2
0	5205	944.132857806755	3
0	5207	944.149520395918	4
0	5211	944.244459959303	5
0	5213	945.304916028926	4
0	5219	946.505450305643	3
0	5224	946.798505674636	2
0	5228	947.447203793257	3
0	5230	947.861966912821	4
0	5232	948.87105290272	5
0	5236	949.865309751433	4
0	5242	951.410254927805	5
0	5244	951.501754829635	6
0	5246	951.747379672022	5
0	5255	954.352865630256	6
0	5256	954.705236669602	5
0	5261	954.88754251828	4
0	5265	955.285425827045	5
0	5270	957.411912375732	4
0	5275	958.631793311101	3
0	5279	959.166298201202	4
0	5284	960.727562743121	3
0	5288	961.020175778527	4
0	5291	961.499376371298	3
0	5295	961.535165154494	4
0	5298	963.376315424269	3
0	5305	965.398663553239	4
0	5308	966.573061027075	3
0	5314	966.882444672579	4
0	5316	967.702626678693	5
0	5317	969.339396749034	4
0	5324	969.768092704567	3
0	5329	971.458969184928	2
0	5335	972.017558548694	3
0	5338	972.758554520858	2
0	5344	974.334178310328	3
0	5348	977.535784612454	4
0	5354	980.202355580472	3
0	5359	982.922150557479	2
0	5365	984.314478677036	1
0	5370	984.547835769083	0
0	5374	985.826570319452	1
0	5380	986.464500842306	2
0	5384	986.583283797791	1
0	5390	986.929423890063	0
0	5422	993.239559446485	1
0	5427	994.398552254123	0
0	5440	996.612929852674	1
0	5441	996.892527689394	0
0	5457	997.144717768578	1
0	5460	998.358124519009	2
0	5462	998.747141368471	3
0	5464	1000.337552438685	2
0	5470	1000.871102934068	1
0	5475	1000.911622295606	0
0	5490	1002.154105558502	1
0	5492	1003.273367946977	0
0	5500	1003.576729056172	1
0	5504	1005.882438448016	2
0	5509	1007.154215572949	3
0	5510	1007.203940531645	2
0	5516	1007.278251563386	3
0	5518	1007.964830090884	4
0	5521	1008.165142652128	5
0	5523	1008.250778336207	6
0	5524	1008.825950268727	5
0	5530	1009.288230527842	4
0	5535	1009.312303452901	3
0	5540	1009.414132898208	2
0	5546	1009.469465307993	3
0	5547	1009.641552904158	2
0	5555	1010.101281534026	3
0	5556	1010.341737952494	2
0	5563	1011.648509145217	1
0	5568	1011.698968935669	0
0	5602	1015.117472158141	1
0	5603	1015.544472407312	0
0	5622	1017.170951471783	1
0	5623	1018.140659958514	0
0	5638	1022.909555338	1
0	5652	1026.840253345462	2
0	5656	1026.920918088331	3
0	5662	1030.811231654658	4
0	5667	1032.843329500055	5
0	5672	1033.97418796842	6
0	5674	1034.094149449309	7
0	5676	1034.514537711686	8
0	5677	1034.660723319963	7
0	5683	1034.949315279798	8
0	5685	1035.085327058656	9
0	5687	1035.612470477239	8
0	5694	1035.66452260629	9
0	5696	1036.280342069857	10
0	5697	1036.618379056177	9
0	5702	1037.049112214455	8
0	5710	1037.754282909184	7
0	5715	1039.386870973431	6
0	5720	1039.425794187664	5
0	5726	1040.241543956381	4
0	5731	1040.279564109591	3
0	5736	1040.684129877028	2
0	5741	1040.800864137286	1
0	5745	1041.374279366008	2
0	5747	1041.757890289247	3
0	5750	1042.641223896961	2
0	5755	1043.859734521098	1
0	5761	1045.023244006923	2
0	5765	1046.403555307609	3
0	5767	1046.662210240906	4
0	5771	1047.787479113367	5
0	5773	1047.994821339336	6
0	5776	1049.747373653917	5
0	5787	1052.167083316269	6
0	5791	1053.519168907921	5
0	5796	1054.924032012194	4
0	5801	1055.809217987614	3
0	5805	1056.63130700313	4
0	5808	1056.88035261459	3
0	5813	1056.976362490469	2
0	5817	1057.48844622001	3
0	5819	1058.642481471324	4
0	5822	1059.364084074899	3
0	5826	1059.404796197243	4
0	5830	1060.994810239358	5
0	5831	1061.012465460492	4
0	5837	1062.027955241968	5
0	5838	1062.449058357428	4
0	5842	1063.256585227411	5
0	5846	1065.181848258694	6
0	5847	1065.416440235791	5
0	5855	1066.567008528121	6
0	5856	1066.703608115223	5
0	5861	1066.871983061399	4
0	5866	1067.882685541311	3
0	5871	1071.079928455467	2
0	5878	1072.997603035991	3
0	5879	1073.407149610935	2
0	5884	1073.431559211907	1
0	5888	1073.531328744305	2
0	5890	1073.87398721914	3
0	5893	1074.708910823769	2
0	5897	1076.306728641769	3
0	5900	1076.515230693093	2
0	5904	1076.637002549019	3
0	5910	1077.245624239173	4
0	5912	1077.365245831706	5
0	5915	1078.765389499785	4
0	5920	1080.187327667667	3
0	5930	1083.393779272151	2
0	5935	1085.659126864197	1
0	5941	1085.777704331194	2
0	5942	1086.25603953907	1
0	5948	1087.5460578053	0
0	5955	1088.223627829772	1
0	5956	1088.707862130681	0
0	5969	1090.375064932376	1
0	5970	1090.593884929149	0
0	5992	1093.46079496706	1
0	5993	1093.615062996924	0
0	6003	1094.379829264	1
0	6004	1094.843472983132	0
0	6010	1094.997105375892	1
0	6013	1095.946147751484	0
0	6017	1097.267828713122	1
0	6022	1097.635482657127	0
0	6073	1106.575810113773	1
0	6074	1106.761480225379	0
0	6080	1106.78767661249	1
0	6084	1107.064601494719	2
0	6087	1107.58389741493	1
0	6093	1107.884706251736	0
0	6106	1109.83238800801	1
0	6108	1110.33620858714	0
0	6129	1113.035958510741	1
0	6132	1115.904838011135	0
0	6138	1115.937213099121	1
0	6139	1115.99485145744	0
0	6148	1116.113237674141	1
0	6150	1117.221525716318	2
0	6153	1117.541902718071	1
0	6158	1117.618098786808	0
0	6185	1120.789322117344	1
0	6188	1121.183734508345	2
0	6190	1121.212343354794	3
0	6191	1121.291226612378	2
0	6196	1121.505512560111	1
0	6204	1121.88361592395	2
0	6206	1122.045189883348	1
0	6211	1122.100707518301	0
0	6230	1123.851526060947	1
0	6233	1124.124377670999	2
0	6236	1124.971220130355	3
0	6237	1124.998652940024	2
0	6245	1125.195103295103	3
0	6246	1125.809864803152	2
0	6253	1126.221902695648	3
0	6254	1126.428624092912	2
0	6259	1126.719409858825	1
0	6266	1127.668132840026	2
0	6268	1127.933434242484	3
0	6270	1128.329911767344	4
0	6274	1130.631505654282	5
0	6277	1131.123888626238	4
0	6283	1131.607875780821	3
0	6290	1132.753798372645	4
0	6293	1132.841243495915	3
0	6299	1134.819954428403	2
0	6304	1135.208638966514	1
0	6309	1136.739910152113	0
0	6315	1137.083550657312	1
0	6316	1137.47393092279	0
0	6349	1143.391922589243	1
0	6360	1147.183727750463	0
0	6392	1149.032688731648	1
0	6396	1149.211816196619	2
0	6399	1150.367119497698	1
0	6408	1150.621427673667	2
0	6409	1150.746477251665	1
0	6414	1151.036082059331	0
0	6429	1152.109170764849	1
0	6431	1154.54826640862	2
0	6435	1156.861938274051	1
0	6441	1158.275554487859	2
0	6443	1158.343372571975	3
0	6444	1158.798194122151	2
0	6449	1158.889103144529	1
0	6456	1159.192727298441	0
0	6460	1160.743827084847	1
0	6465	1161.365816441096	0
0	6469	1161.647528920894	1
0	6475	1162.256055818824	0
0	6485	1164.786363082506	1
0	6487	1164.965356708393	2
0	6488	1165.002806876995	1
0	6494	1165.412833372318	0
0	6503	1166.669579326654	1
0	6511	1170.391970992595	0
0	6517	1170.627793636332	1
0	6518	1170.629466856499	0
0	6533	1172.293529303069	1
0	6536	1173.162482344968	0
0	6548	1174.595958079369	1
0	6549	1174.707311658915	0
0	6580	1179.107514357185	1
0	6585	1180.181610802973	2
0	6586	1180.48711573895	1
0	6591	1180.507466659902	0
0	6597	1180.785333952406	1
0	6599	1180.964177814093	2
0	6600	1181.05342985815	1
0	6606	1181.816598588514	2
0	6607	1182.066905665569	1
0	6614	1182.383861758825	2
0	6615	1182.644203272566	1
0	6621	1182.942993002362	0
0	6633	1183.505222830754	1
0	6634	1183.89929407506	0
0	6661	1185.556007715895	1
0	6662	1185.706329473185	0
0	6669	1185.926679899789	1
0	6671	1186.397213485809	0
0	6686	1189.255740436888	1
0	6692	1190.765964727721	2
0	6693	1190.884640267586	1
0	6706	1193.139124704396	2
0	6708	1193.604957809852	3
0	6710	1193.804763179441	4
0	6712	1194.379231536094	3
0	6718	1194.928169095144	4
0	6719	1195.007550363305	3
0	6726	1195.517006056313	4
0	6727	1196.156218241145	3
0	6735	1196.524972719717	4
0	6736	1197.41935604014	3
0	6745	1200.198224903262	2
0	6754	1200.304630112211	3
0	6756	1200.342752682258	4
0	6757	1201.842273687635	3
0	6763	1201.927432217481	4
0	6764	1202.557754056841	3
0	6771	1204.584052264148	2
0	6779	1205.552362640589	3
0	6780	1206.373124459388	2
0	6785	1207.413165563895	1
0	6794	1211.288712801722	0
0	6831	1214.453616573831	1
0	6839	1217.533063216078	0
0	6853	1219.303486048569	1
0	6854	1219.345806548668	0
0	6898	1226.388267409536	1
0	6902	1226.470503847812	2
0	6905	1226.943339991446	3
0	6906	1227.087718081037	2
0	6914	1229.407872754405	1
0	6922	1230.498054453904	2
0	6923	1230.867616464935	1
0	6928	1231.186914560766	0
0	6934	1231.202777858522	1
0	6938	1231.462179592454	2
0	6939	1231.987067654365	1
0	6945	1232.272894391244	0
0	6956	1233.354151823829	1
0	6957	1235.098007520569	0
0	6968	1235.321488845417	1
0	6973	1236.548452453275	2
0	6978	1238.161787412533	3
0	6981	1239.837031446314	4
0	6982	1239.901487914088	3
0	6987	1239.965684065915	2
0	6992	1240.127512306684	1
0	6998	1240.142114688164	2
0	7000	1241.793922279941	3
0	7002	1242.028220989802	4
0	7005	1242.611613790361	5
0	7008	1243.006647194241	4
0	7013	1243.332244270658	3
0	7020	1244.080541757499	4
0	7024	1245.112004669411	5
0	7025	1246.12110075985	4
0	7031	1247.101575379089	3
0	7037	1247.569562449473	4
0	7041	1248.021575590388	3
0	7048	1248.374045182949	4
0	7049	1249.142012891093	3
0	7054	1249.264759817393	2
0	7063	1249.881281788206	3
0	7064	1250.377684541545	2
0	7071	1250.967612293607	3
0	7072	1251.044695108903	2
0	7077	1251.23965493221	1
0	7083	1252.260989013614	2
0	7084	1252.393841379901	1
0	7090	1253.444243835259	2
0	7092	1253.447278622066	3
0	7093	1254.621770672439	2
0	7097	1255.157907850948	3
0	7104	1255.868515199089	2
0	7110	1257.694233644656	3
0	7112	1258.261882184994	4
0	7118	1260.395637893217	5
0	7121	1261.712482543978	4
0	7125	1263.517430551965	5
0	7128	1265.102640677172	4
0	7133	1265.915624964848	3
0	7139	1266.605832170486	4
0	7141	1268.393590826324	5
0	7143	1268.924397428563	6
0	7145	1268.973872162959	7
0	7148	1269.390377979336	6
0	7152	1269.927092785398	7
0	7155	1270.044463593897	6
0	7161	1272.916575232087	7
0	7163	1273.176785212086	8
0	7166	1274.273265355325	7
0	7171	1275.202683215596	6
0	7175	1276.562216926004	7
0	7180	1279.230839635366	6
0	7184	1281.561648595243	7
0	7186	1281.737966958	8
0	7188	1281.759076546491	9
0	7190	1281.83465725886	10
0	7194	1283.443327520452	11
0	7196	1283.876261684499	12
0	7198	1284.860744713316	13
0	7202	1286.751957406558	14
0	7204	1286.754866343611	15
0	7209	1289.719463021884	14
0	7215	1289.76307612072	13
0	7221	1289.843505609582	14
0	7227	1290.927825294945	13
0	7233	1291.422858756373	14
0	7234	1292.381638021939	13
0	7239	1293.256572531316	12
0	7243	1293.406169684898	13
0	7247	1294.502080922326	14
0	7251	1296.330464134937	13
0	7257	1296.406849189977	14
0	7260	1298.595948401382	13
0	7265	1298.68489832712	12
0	7270	1299.713613441097	11
0	7276	1299.768539235865	12
0	7278	1299.879386185964	13
0	7279	1300.145538474395	12
0	7284	1300.993591062575	11
0	7291	1301.807074873917	10
0	7298	1302.653502756349	11
0	7299	1302.908512680339	10
0	7307	1303.79761031092	9
0	7313	1305.519296128874	10
0	7314	1305.599809326622	9
0	7319	1305.987310650729	8
0	7323	1306.079667093698	9
0	7327	1308.236267080235	10
0	7328	1309.37432174859	9
0	7334	1309.98540484123	10
0	7336	1310.479901616373	11
0	7340	1311.825466758918	12
0	7341	1312.127643906339	11
0	7346	1312.420471392973	10
0	7353	1314.645648027522	11
0	7355	1314.865064063965	10
0	7360	1315.65389574401	9
0	7366	1316.227008935921	10
0	7367	1316.242081704261	9
0	7372	1317.455370507099	8
0	7377	1317.840748007085	7
0	7381	1317.873221371694	8
0	7384	1318.470736967397	7
0	7388	1318.478859680317	8
0	7393	1319.144341913479	7
0	7397	1320.093113397046	8
0	7400	1320.746428794274	7
0	7406	1323.486375938617	6
0	7412	1323.981835221077	5
0	7418	1324.104252618287	6
0	7419	1325.023743088874	5
0	7424	1325.854558590474	4
0	7428	1326.477637224115	5
0	7431	1326.730258772981	4
0	7437	1327.602610965725	5
0	7440	1328.904445140856	6
0	7445	1331.240824222906	7
0	7447	1331.400372436195	8
0	7450	1332.347976519545	7
0	7461	1333.231205431574	8
0	7462	1333.34836383068	7
0	7467	1333.857508140733	6
0	7473	1334.140317536745	7
0	7474	1334.26057521277	6
0	7480	1335.044567423271	7
0	7482	1335.569988131209	8
0	7483	1335.903520487178	7
0	7487	1335.907468938657	8
0	7490	1337.067055295047	7
0	7494	1337.585307566383	8
0	7496	1338.614650828436	9
0	7499	1340.809645359948	8
0	7506	1342.532907366408	9
0	7507	1343.589211270579	8
0	7512	1344.809427833824	7
0	7518	1346.164253258656	8
0	7519	1346.45145029346	7
0	7526	1347.6683641908	6
0	7532	1348.409683871551	5
0	7537	1348.628972642569	4
0	7541	1349.505963166081	5
0	7544	1350.944045767742	4
0	7550	1352.35694824255	5
0	7552	1352.413099841641	6
0	7553	1352.951809274603	5
0	7559	1353.299405268885	6
0	7561	1353.46692607808	7
0	7566	1355.178249145975	6
0	7573	1356.629391898141	5
0	7580	1360.059645590295	4
0	7584	1360.179481745598	5
0	7587	1361.498442225478	4
0	7593	1361.948932656078	5
0	7595	1363.047751291199	6
0	7601	1364.575071424374	5
0	7606	1364.800397948648	4
0	7611	1364.880448331315	3
0	7616	1364.958836462884	2
0	7624	1367.317946812784	1
0	7630	1367.637127083863	2
0	7631	1368.889173490271	1
0	7635	1368.904330846269	2
0	7638	1370.82981265917	1
0	7646	1372.398360141811	2
0	7647	1372.465056319409	1
0	7653	1373.160329005201	0
0	7682	1376.779533802684	1
0	7685	1378.507656380648	0
0	7706	1380.421492303966	1
0	7708	1380.675754409498	0
0	7714	1381.164041339985	1
0	7715	1381.413876276706	0
0	7726	1381.791484058889	1
0	7732	1382.890632625768	0
0	7738	1383.076031307843	1
0	7740	1384.265927967469	2
0	7741	1384.67004806274	1
0	7747	1384.949831730689	2
0	7750	1386.39341384454	3
0	7753	1387.502543484014	2
0	7760	1387.655278384196	1
0	7765	1388.757082504027	0
0	7776	1389.736916950893	1
0	7778	1390.282264585107	0
0	7786	1390.890183744738	1
0	7788	1391.269949139519	0
0	7814	1395.509539311337	1
0	7817	1395.548870369581	2
0	7818	1396.105888735253	1
0	7824	1396.828048587408	0
0	7830	1396.834727637563	1
0	7832	1397.141548540494	0
0	7845	1398.708243290815	1
0	7847	1398.825702307318	2
0	7848	1398.905240060182	1
0	7855	1399.309168872681	2
0	7857	1400.739793801903	3
0	7859	1400.934240323647	4
0	7860	1401.235403695329	3
0	7866	1401.391420824768	4
0	7868	1401.521162735701	3
0	7873	1401.58731547626	2
0	7878	1401.913930234015	1
0	7883	1401.942211010198	0
0	7923	1405.448762938709	1
0	7929	1406.509467272578	2
0	7930	1406.515768608885	1
0	7935	1406.701090861959	0
0	7944	1407.648422737616	1
0	7946	1408.224205983092	2
0	7950	1410.164450894168	1
0	7958	1410.471366158116	2
0	7959	1410.763834665042	1
0	7965	1410.962254217012	2
0	7970	1412.454042414782	3
0	7972	1412.595503262218	2
0	7978	1412.739676671815	1
0	7984	1414.07257345873	0
0	7997	1415.034655966302	1
0	7999	1415.54653948214	2
0	8005	1416.177990369396	3
0	8006	1417.859630022336	2
0	8013	1418.038177741333	1
0	8019	1418.563568310054	0
0	8059	1423.429240443738	1
0	8060	1423.480891513391	0
0	8076	1427.039897352147	1
0	8077	1427.224444895581	0
0	8094	1429.187943516944	1
0	8095	1429.446556092962	0
0	8101	1429.536633804475	1
0	8104	1429.658167680976	2
0	8106	1431.289720493688	1
0	8111	1431.472878758076	0
0	8122	1431.769738507723	1
0	8123	1431.819955878861	0
0	8157	1436.346461621871	1
0	8160	1436.478139372657	0
0	8166	1436.57015948097	1
0	8167	1437.649711848807	0
0	8183	1440.596997814575	1
0	8185	1440.794873108946	2
0	8198	1444.359525410243	1
0	8204	1445.543485622968	0
0	8215	1447.8100927946	1
0	8219	1450.492711680526	2
0	8221	1450.540318394426	3
0	8223	1450.982728302481	4
0	8224	1451.515575052927	3
0	8233	1451.884446902754	2
0	8238	1452.009361987854	1
0	8244	1452.09922056468	2
0	8248	1452.180559214382	3
0	8249	1453.254530894787	2
0	8256	1453.641192078367	1
0	8264	1455.929444452118	0
0	8278	1457.969340098507	1
0	8280	1458.231217268543	2
0	8284	1459.621254257321	1
0	8290	1460.187082187186	2
0	8293	1460.691320711466	3
0	8295	1460.915351744249	2
0	8301	1461.287596230416	3
0	8303	1462.489909898106	2
0	8308	1462.941132200202	1
0	8313	1463.165845297517	0
0	8330	1466.493070859479	1
0	8332	1466.621021666158	0
0	8343	1467.991524474901	1
0	8344	1468.056758753691	0
0	8352	1468.397164266752	1
0	8353	1468.454248688887	0
0	8404	1477.652222279617	1
0	8412	1479.213128997968	2
0	8413	1479.965194041802	1
0	8419	1481.907417630629	0
0	8435	1483.325348943071	1
0	8439	1484.632449833739	0
0	8450	1485.473984215746	1
0	8453	1485.731854569764	0
0	8474	1489.124568957229	1
0	8476	1490.372074355607	2
0	8479	1491.458041737776	1
0	8485	1492.122092472016	0
0	8505	1494.041202794262	1
0	8507	1494.443668614027	2
0	8510	1494.575809616115	1
0	8515	1495.549184892232	0
0	8519	1496.025242121224	1
0	8522	1496.880018713874	0
0	8546	1502.628783696155	1
0	8549	1503.830585710141	0
0	8570	1506.918624755696	1
0	8573	1509.013312094414	0
0	8595	1510.149354423956	1
0	8596	1510.625847688467	0
0	8608	1512.379194387138	1
0	8611	1512.455100792795	2
0	8613	1512.760144283771	3
0	8615	1513.001880298659	2
0	8620	1513.164177014042	1
0	8627	1513.992322608437	2
0	8628	1515.765202175509	1
0	8634	1516.123647674669	2
0	8635	1516.138987427979	1
0	8640	1516.586048451223	0
0	8657	1517.578782351336	1
0	8658	1518.011147350898	0
0	8673	1519.149113787729	1
0	8675	1519.570434063383	2
0	8677	1521.026472151023	3
0	8688	1523.475162274201	4
0	8695	1524.557276320848	5
0	8697	1524.798613495074	6
0	8699	1524.912463304003	7
0	8700	1526.169461839553	6
0	8707	1527.399826527986	5
0	8712	1527.413845479612	4
0	8719	1528.160553046713	3
0	8724	1528.972002320112	2
0	8729	1529.521626725391	1
0	8737	1530.363413690492	2
0	8739	1530.809584664197	1
0	8744	1530.824756151576	0
0	8748	1532.118370149683	1
0	8750	1532.492339677291	2
0	8752	1532.686476901028	3
0	8756	1533.024575019683	2
0	8761	1533.433669317697	1
0	8765	1533.63478404601	2
0	8771	1537.639556025362	1
0	8777	1537.816845748707	2
0	8778	1538.320709130894	1
0	8782	1539.069840096582	2
0	8784	1539.445189257415	3
0	8790	1540.262580695515	4
0	8792	1541.251098447371	3
0	8796	1542.626833613483	4
0	8800	1543.753641775374	3
0	8807	1543.849396459796	2
0	8817	1547.913080717101	1
0	8823	1548.016363808245	0
0	8845	1549.988327582984	1
0	8848	1551.104794457479	2
0	8849	1551.614699546525	1
0	8854	1551.73873510661	0
0	8860	1552.426182976292	1
0	8861	1552.715637584748	0
0	8882	1555.111133747908	1
0	8883	1555.37820810375	0
0	8894	1555.681313005158	1
0	8898	1555.985652222151	0
0	8929	1559.394867905782	1
0	8931	1559.731592172877	2
0	8935	1560.94610905967	3
0	8936	1560.970066915444	2
0	8941	1561.082151062714	1
0	8947	1561.937325141805	0
0	9005	1572.073307289063	1
0	9010	1575.970403096933	0
0	9019	1580.217397730282	1
0	9024	1582.013070831538	0
0	9030	1582.161222274154	1
0	9032	1582.352864222762	0
0	9039	1582.815037255817	1
0	9042	1583.342089543868	2
0	9043	1583.65816809362	1
0	9049	1583.916586482701	2
0	9050	1584.156033079619	1
0	9057	1584.670100303542	2
0	9058	1584.697698646844	1
0	9063	1585.056485480895	0
0	9080	1587.549962611438	1
0	9087	1589.879237486937	0
0	9108	1591.171653653585	1
0	9112	1592.046456242107	0
0	9133	1594.043925718533	1
0	9139	1596.023537438394	2
0	9140	1596.320861180137	1
0	9146	1596.375898069292	2
0	9148	1596.416034413989	3
0	9150	1596.791428635606	4
0	9151	1596.934772215597	3
0	9157	1597.637730004179	4
0	9160	1597.754780708848	3
0	9169	1600.561559385364	2
0	9174	1601.808787721231	1
0	9179	1603.125808579883	0
0	9183	1604.226499037898	1
0	9187	1606.947777447772	2
0	9191	1607.696799701071	3
0	9195	1610.200837185704	2
0	9202	1612.374380280454	3
0	9204	1613.168535279534	4
0	9206	1613.850217011643	5
0	9208	1614.54875820935	4
0	9214	1616.244597285654	3
0	9220	1616.687949665917	2
0	9224	1616.868623086668	3
0	9231	1619.367888008806	4
0	9232	1619.979281175234	3
0	9242	1621.046295717659	2
0	9248	1621.197680821731	3
0	9250	1621.400823631822	4
0	9251	1621.941659288845	3
0	9257	1622.515068493188	4
0	9258	1622.713483182821	3
0	9263	1622.725764037073	2
0	9267	1626.145974836825	3
0	9273	1627.797063661367	4
0	9275	1628.022597017148	3
0	9280	1628.095841097009	2
0	9287	1629.587942279457	1
0	9293	1629.83502090251	0
0	9301	1630.537940627033	1
0	9302	1630.629494571375	0
0	9308	1632.547550480066	1
0	9310	1632.652718479538	2
0	9311	1632.840119554134	1
0	9321	1633.660759470444	2
0	9322	1634.091945604022	1
0	9328	1635.402782064017	2
0	9329	1635.615343426471	1
0	9340	1637.358660782079	0
0	9357	1640.052420035222	1
0	9360	1640.316441850842	0
0	9373	1641.616974684709	1
0	9374	1641.720545548887	0
0	9391	1644.4254144639	1
0	9399	1647.47253219299	0
0	9411	1648.596449743422	1
0	9412	1648.642490062052	0
0	9451	1655.655072572342	1
0	9452	1655.721293375923	0
0	9458	1656.28295813177	1
0	9462	1657.874113580969	0
0	9482	1659.125270110866	1
0	9484	1659.126463072173	2
0	9488	1660.155768413802	3
0	9490	1660.317470867316	4
0	9491	1661.201068068562	3
0	9496	1661.303955985593	2
0	9501	1661.603934268862	1
0	9506	1662.514140497342	0
0	9522	1664.749595726476	1
0	9525	1666.181144287269	0
0	9534	1667.012100188872	1
0	9537	1667.586348968644	0
0	9541	1667.665656566054	1
0	9547	1669.703128339266	0
0	9556	1670.997043003011	1
0	9558	1671.064476231989	2
0	9564	1673.968337172237	3
0	9570	1675.065355554872	4
0	9571	1675.131274234241	3
0	9576	1675.985718404418	2
0	9582	1677.490284153666	1
0	9588	1679.760284104148	0
0	9594	1680.845485477238	1
0	9597	1681.582135809126	0
0	9601	1683.088573990836	1
0	9604	1683.914270180276	0
0	9612	1685.638014021114	1
0	9614	1685.981343592126	2
0	9615	1686.306210570201	1
0	9623	1692.699068816094	2
0	9624	1692.770324102061	1
0	9628	1693.069869712892	2
0	9631	1693.440971600456	1
0	9635	1694.58582342518	2
0	9639	1697.007086770734	3
0	9640	1697.140130140828	2
0	9645	1698.930716206833	1
0	9649	1700.32833242403	2
0	9654	1701.413950652675	1
0	9660	1701.799502394307	0
0	9678	1703.494929941252	1
0	9680	1703.665653897027	0
0	9687	1704.659289085251	1
0	9688	1704.797217818842	0
0	9709	1706.492759880825	1
0	9711	1707.310946534252	2
0	9716	1708.560679711586	1
0	9723	1708.957906047867	2
0	9725	1709.619848385497	1
0	9730	1710.053936093955	0
0	9743	1711.482195488583	1
0	9744	1711.584505117284	0
0	9785	1714.723632988968	1
0	9787	1715.211133537166	2
0	9789	1715.953776704697	1
0	9796	1716.448165234029	2
0	9798	1716.552722733588	3
0	9799	1716.768833273317	2
0	9804	1717.388447138082	1
0	9809	1717.568808388382	0
0	9815	1717.681925901634	1
0	9817	1718.047081901514	0
0	9833	1720.551289009577	1
0	9835	1720.64813702838	2
0	9838	1721.393195353144	1
0	9845	1721.915597805365	0
0	9858	1722.619387316161	1
0	9862	1723.92625014819	2
0	9863	1724.657398094438	1
0	9869	1724.815791430659	2
0	9871	1725.542802239909	1
0	9877	1726.246929839445	2
0	9878	1726.669105408596	1
0	9883	1727.139544611706	0
0	9887	1727.826763366011	1
0	9889	1727.854718974519	2
0	9903	1731.584392308003	3
0	9904	1731.622206832602	2
0	9909	1731.852830320505	1
0	9914	1732.140334078559	0
0	9918	1732.550422262875	1
0	9920	1733.713468130523	2
0	9923	1734.082320143727	1
0	9932	1736.912988427812	0
0	9936	1736.932537184357	1
0	9939	1737.382880381705	0
0	9943	1737.501649308802	1
0	9949	1739.800249591934	2
0	9953	1741.128449081971	1
0	9960	1741.901551729399	2
0	9961	1742.39371499512	1
0	9966	1742.7084526587	0
0	10014	1748.578131730948	1
0	10017	1748.836922486324	0
0	10040	1752.449120853707	1
0	10045	1753.801391399093	0
0	10056	1755.413978854148	1
0	10057	1756.227013647029	0
0	10068	1756.760566369622	1
0	10071	1757.307584313606	0
0	10089	1759.056709476502	1
0	10090	1759.260876091375	0
0	10118	1762.821754912862	1
0	10120	1763.889426168901	2
0	10124	1766.896619890619	1
0	10129	1767.016063058983	0
0	10136	1767.382638361313	1
0	10141	1768.603887317024	2
0	10143	1768.731216782203	3
0	10144	1768.763428135173	2
0	10149	1768.933190195125	1
0	10155	1769.200390254962	2
0	10158	1770.394728406662	1
0	10168	1772.750843497553	2
0	10169	1772.787038673337	1
0	10175	1773.060228815758	0
0	10181	1773.091145987728	1
0	10183	1773.904821109549	0
0	10194	1774.695421723366	1
0	10196	1774.827112325754	2
0	10197	1774.845584530269	1
0	10204	1775.644772666131	2
0	10205	1775.842411357318	1
0	10210	1775.89167108001	0
0	10216	1776.506762991762	1
0	10221	1777.39384016892	0
0	10229	1778.431658577547	1
0	10231	1779.476136172683	0
0	10242	1781.133693566787	1
0	10244	1781.645827780944	0
0	10255	1783.009225655674	1
0	10256	1783.514178221068	0
0	10285	1785.108854069057	1
0	10287	1785.523272979544	0
0	10306	1787.683807658924	1
0	10308	1787.820502906424	2
0	10309	1787.993669984937	1
0	10316	1789.673635446086	0
0	10323	1790.620917293713	1
0	10324	1790.864066208875	0
0	10336	1792.194505453658	1
0	10337	1792.437431906539	0
0	10347	1794.414403363875	1
0	10349	1794.449940124188	2
0	10351	1795.798172509218	1
0	10357	1797.019678331692	0
0	10363	1797.70239646313	1
0	10370	1799.495591742812	0
0	10385	1800.91307196592	1
0	10386	1802.069046374386	0
0	10398	1803.166954472187	1
0	10399	1803.407590589906	0
0	10454	1812.424647456587	1
0	10456	1813.549869759067	2
0	10458	1813.96538542367	3
0	10460	1815.14838455288	4
0	10463	1815.631068517375	3
0	10470	1816.138763527611	4
0	10471	1816.654566683925	3
0	10477	1817.14244640933	4
0	10478	1817.421737210786	3
0	10483	1817.488332441466	2
0	10489	1817.730755146543	3
0	10490	1817.814067023914	2
0	10496	1817.932837748988	3
0	10498	1818.772503060548	2
0	10505	1819.000616034927	1
0	10511	1819.65207436675	2
0	10514	1820.130367969498	1
0	10518	1820.589405569659	2
0	10520	1821.202409043579	3
0	10523	1821.642783711874	2
0	10528	1821.690775299858	1
0	10533	1821.867004448333	0
0	10537	1822.61043089624	1
0	10540	1823.769606933708	0
0	10567	1830.311822255603	1
0	10571	1832.092925077891	2
0	10573	1832.748103632147	3
0	10576	1833.376351838693	2
0	10581	1833.503213064874	1
0	10589	1834.384997063967	2
0	10590	1834.576114863526	1
0	10600	1836.360278463822	2
0	10601	1836.556932633633	1
0	10608	1838.014411575032	0
0	10612	1838.538561998655	1
0	10616	1838.702890984857	0
0	10639	1842.863637695331	1
0	10641	1844.101975060889	0
0	10660	1845.819254036365	1
0	10662	1847.012690513099	2
0	10663	1847.053140394187	1
0	10669	1847.334414838407	0
0	10678	1847.90457258129	1
0	10681	1848.104289515808	0
0	10693	1849.151511025436	1
0	10698	1849.482815918385	0
0	10719	1851.97291351879	1
0	10720	1852.405027873408	0
0	10728	1853.181123648287	1
0	10731	1853.572277879123	0
0	10737	1853.953013338375	1
0	10738	1854.344997839666	0
0	10749	1854.934039300318	1
0	10752	1856.571779435936	0
0	10778	1862.618420618572	1
0	10781	1864.118563830265	0
0	10788	1865.048191107536	1
0	10790	1865.240350594009	2
0	10791	1865.363602991201	1
0	10796	1865.421152003768	0
0	10804	1867.046686165652	1
0	10806	1867.212275641695	2
0	10807	1868.855218009788	1
0	10815	1869.261908205424	2
0	10816	1869.868218893599	1
0	10821	1870.395160764737	0
0	10839	1871.889340112944	1
0	10844	1872.796026234366	2
0	10846	1873.024218890848	3
0	10848	1873.481774940715	4
0	10851	1874.526347213851	3
0	10856	1874.532020724161	2
0	10863	1876.216628599207	1
0	10868	1877.74006587932	0
0	10881	1880.186855437132	1
0	10882	1880.672881407762	0
0	10899	1882.875381857851	1
0	10901	1882.90717962723	2
0	10903	1883.332084670645	1
0	10908	1883.746812912243	0
0	10932	1886.332019228325	1
0	10935	1886.765756980934	0
0	10946	1887.079014756747	1
0	10948	1887.228123156746	2
0	10949	1887.421174492534	1
0	10955	1888.775936564663	0
0	10962	1889.403057272371	1
0	10963	1890.125741635416	0
0	10996	1894.294743217573	1
0	10998	1894.362146011652	2
0	11003	1895.781941158127	1
0	11008	1896.291010441151	0
0	11032	1904.031883829465	1
0	11034	1904.095557588151	2
0	11037	1905.905426826422	1
0	11046	1908.647372985587	0
0	11055	1909.972434832747	1
0	11059	1910.51951496653	2
0	11062	1910.653188909969	1
0	11067	1911.0664359949	0
0	11073	1911.14729061147	1
0	11075	1911.341673391708	2
0	11078	1911.781451542047	1
0	11086	1912.458359969991	2
0	11089	1912.687947150338	1
0	11097	1913.42252960578	0
0	11106	1913.840555970566	1
0	11109	1914.617256525631	2
0	11111	1915.140308360369	3
0	11112	1915.197570920516	2
0	11118	1915.569564488987	3
0	11120	1916.213845016892	2
0	11126	1916.82373201754	3
0	11128	1917.427107531456	4
0	11129	1917.832124913872	3
0	11134	1917.975964368913	2
0	11139	1918.297354369367	1
0	11146	1919.744391380763	2
0	11148	1920.419116801736	3
0	11149	1920.899900806112	2
0	11154	1921.058656930866	1
0	11161	1922.430243383023	0
0	11198	1926.580828322227	1
0	11203	1927.865667584682	2
0	11207	1929.009662897784	3
0	11208	1930.169768126724	2
0	11214	1930.809356165835	1
0	11219	1931.209019238975	0
0	11230	1931.47086000083	1
0	11237	1934.232016634449	0
0	11245	1934.383931985394	1
0	11246	1934.734586269485	0
0	11254	1935.322385682395	1
0	11255	1935.553780822297	0
0	11284	1943.566946965366	1
0	11289	1944.124345203774	0
0	11295	1945.00184855054	1
0	11299	1945.48878212431	0
0	11311	1946.133343441514	1
0	11312	1946.352917433548	0
0	11323	1946.780615501378	1
0	11324	1947.189370591576	0
0	11346	1953.91782270502	1
0	11349	1955.745849655603	0
0	11356	1956.935290632592	1
0	11359	1957.810441376561	0
0	11391	1961.97540287674	1
0	11393	1962.043735722679	2
0	11396	1962.788527437669	1
0	11406	1963.534911712459	2
0	11407	1964.198856023387	1
0	11412	1964.600960729964	0
0	11442	1967.88425777034	1
0	11443	1968.868263838455	0
0	11452	1970.300779665288	1
0	11457	1971.420786358276	0
0	11482	1974.312817889661	1
0	11484	1974.392812753428	2
0	11486	1974.624030493148	3
0	11487	1974.651469675733	2
0	11493	1974.73284566206	3
0	11494	1974.85519378413	2
0	11499	1975.159440521662	1
0	11506	1975.661511054027	2
0	11508	1976.02228607119	1
0	11513	1976.324556872914	0
0	11527	1977.99825150963	1
0	11529	1978.367141433777	2
0	11530	1978.399577713935	1
0	11536	1978.558456281566	2
0	11537	1980.685531808928	1
0	11544	1981.211865999507	2
0	11545	1981.716777264163	1
0	11551	1984.454414989465	2
0	11553	1985.563626100536	3
0	11557	1986.867890831747	2
0	11563	1987.786632485584	3
0	11567	1989.640212822525	4
0	11569	1990.290192386098	5
0	11571	1990.533408375067	4
0	11581	1991.652688374918	3
0	11587	1991.964903185978	2
0	11592	1991.979946575857	1
0	11598	1992.193547233963	2
0	11600	1992.904630327247	3
0	11601	1993.098057587422	2
0	11607	1993.736335252352	3
0	11608	1994.028215690465	2
0	11612	1995.047790336155	3
0	11616	1997.698162341097	4
0	11620	1998.168933595394	3
0	11626	1998.264632416839	4
0	11628	1998.422199990129	5
0	11630	1998.872248145521	6
0	11632	1999.799286838813	5
0	11638	2001.566890618832	6
0	11640	2001.79997802658	7
0	11642	2002.006504806526	8
0	11643	2002.140932915278	7
0	11647	2003.641947445716	8
0	11650	2003.884654050248	7
0	11655	2004.370177645898	6
0	11659	2004.453816507796	7
0	11664	2006.703412919466	6
0	11669	2006.971835465856	5
0	11674	2007.379768258299	4
0	11681	2009.044410855913	3
0	11686	2009.454007117598	2
0	11692	2010.007663709384	1
0	11699	2011.126592533999	2
0	11701	2012.32030386091	3
0	11702	2012.370987245579	2
0	11708	2012.744960074604	3
0	11712	2013.480416354514	4
0	11713	2013.815891626342	3
0	11718	2013.930984690228	2
0	11723	2014.140912144257	1
0	11727	2014.31499049394	2
0	11730	2015.548131814011	1
0	11735	2016.397348854283	0
0	11757	2020.098641652228	1
0	11758	2020.836072586396	0
0	11783	2024.980878212372	1
0	11789	2027.240914913765	0
0	11810	2031.656433086991	1
0	11812	2032.091109658872	2
0	11814	2032.691131290922	1
0	11820	2033.057672851095	2
0	11821	2033.087863142695	1
0	11828	2035.292611470508	0
0	11844	2035.999710432565	1
0	11845	2036.086170432053	0
0	11857	2036.659108689781	1
0	11859	2037.003576298732	0
0	11879	2038.729870785804	1
0	11881	2038.737615855845	2
0	11882	2038.829107208666	1
0	11887	2038.859671710889	0
0	11893	2039.024506599377	1
0	11894	2039.083197160312	0
0	11902	2040.375622408457	1
0	11904	2040.709167775422	0
0	11913	2042.603780119304	1
0	11915	2042.915507221831	2
0	11916	2043.45267859623	1
0	11921	2044.849000314266	0
0	11934	2046.251550986882	1
0	11941	2048.217062395892	0
0	11947	2048.377276966182	1
0	11948	2048.492994268365	0
0	11983	2052.642263274555	1
0	11988	2053.41793787157	2
0	11992	2054.458189122187	3
0	11993	2054.8667068191	2
0	12001	2055.105344094071	1
0	12006	2055.293953350809	0
0	12013	2056.34653165235	1
0	12015	2056.523158195143	0
0	12069	2064.861998490212	1
0	12071	2065.509460342596	2
0	12077	2066.638248490712	1
0	12082	2069.149145075516	0
0	12117	2075.046258962141	1
0	12124	2076.833922517669	2
0	12127	2077.661310477623	1
0	12134	2078.45013238892	0
0	12154	2081.271874329266	1
0	12156	2082.458497419714	0
0	12163	2082.907123993218	1
0	12167	2083.192796701854	2
0	12168	2083.273872142931	1
0	12173	2083.29708309275	0
0	12179	2083.459142135499	1
0	12183	2085.302413703719	2
0	12184	2085.578154030244	1
0	12189	2085.844901365839	0
0	12200	2085.916346846387	1
0	12201	2087.33107268387	0
0	12214	2088.982376954838	1
0	12216	2089.444028205447	0
0	12244	2092.404842123467	1
0	12245	2092.482684995166	0
0	12272	2096.192360347076	1
0	12278	2097.878527971579	2
0	12279	2099.030096182617	1
0	12286	2099.630598357422	2
0	12287	2100.070514421811	1
0	12292	2100.690191018906	0
0	12305	2101.473563027844	1
0	12307	2101.512555584593	2
0	12308	2101.605495233004	1
0	12314	2101.609636968254	2
0	12317	2102.248510662786	1
0	12323	2103.875739305	0
0	12339	2104.502962833163	1
0	12342	2106.011063759776	0
0	12427	2126.059389246598	1
0	12430	2127.498997792166	0
0	12438	2127.9566969496	1
0	12441	2128.126431763083	0
0	12485	2132.866885232626	1
0	12488	2134.202644825822	0
0	12506	2137.162943263912	1
0	12507	2138.451910256775	0
0	12543	2145.370513981826	1
0	12544	2146.885793315221	0
0	12558	2149.409957235683	1
0	12560	2150.106643937025	2
0	12561	2150.752071070964	1
0	12569	2151.350401597437	0
0	12577	2152.462373212464	1
0	12580	2152.902634955088	2
0	12581	2153.512618961225	1
0	12586	2153.756738855237	0
0	12612	2157.50862256042	1
0	12614	2157.659247981756	2
0	12615	2157.964417576518	1
0	12621	2159.098307126356	0
0	12632	2159.263537444171	1
0	12633	2159.322557157582	0
0	12656	2167.354580747552	1
0	12657	2168.27106926557	0
0	12702	2176.189280188596	1
0	12705	2177.741424300493	0
0	12772	2185.226561262375	1
0	12773	2185.516650053683	0
0	12845	2198.406423290766	1
0	12847	2198.950834688989	0
0	12861	2201.705479322064	1
0	12863	2201.81353593099	2
0	12865	2203.232027961226	3
0	12866	2203.379413553507	2
0	12873	2204.759944920632	1
0	12878	2205.211406946714	0
0	12891	2211.027066933767	1
0	12892	2212.845210526717	0
0	12898	2212.886547802914	1
0	12899	2212.940902981535	0
0	12905	2214.840799554427	1
0	12907	2215.145497229112	2
0	12908	2215.466491336581	1
0	12913	2216.667204485116	0
0	12919	2217.089962632056	1
0	12920	2217.296428878678	0
0	12924	2218.258627724492	1
0	12928	2219.345879299229	0
0	12969	2228.409370867093	1
0	12972	2228.91526706772	0
0	12979	2228.990719383977	1
0	12981	2229.020152067698	2
0	12982	2229.221068740387	1
0	12988	2229.974345376716	0
0	13009	2231.597656188003	1
0	13010	2232.031064458116	0
0	13035	2236.441094325471	1
0	13038	2236.729038886051	0
0	13057	2239.070383675607	1
0	13059	2239.314694275223	0
0	13066	2239.960487206276	1
0	13068	2240.27388577948	2
0	13070	2240.833531321785	3
0	13072	2240.854400175464	4
0	13074	2241.682094535465	5
0	13079	2242.31122299262	6
0	13080	2243.113704584157	5
0	13087	2243.953499402582	4
0	13092	2244.004656301504	3
0	13099	2244.758687261482	2
0	13104	2245.053115204547	1
0	13112	2246.673194731097	2
0	13114	2246.904792511079	3
0	13116	2247.152972081438	4
0	13117	2247.589276367067	3
0	13122	2248.734378384081	2
0	13128	2250.321427106594	3
0	13129	2250.71646128523	2
0	13134	2251.59076942739	1
0	13138	2252.293839229047	2
0	13141	2253.403852756253	1
0	13148	2256.04166116171	2
0	13149	2256.05863960886	1
0	13161	2256.941275388425	2
0	13165	2257.77976083019	3
0	13166	2257.920340753015	2
0	13171	2258.614376539375	1
0	13176	2258.700578969605	0
0	13188	2259.111477048952	1
0	13191	2259.136975803043	2
0	13192	2260.423815489312	1
0	13199	2260.698563249369	0
0	13232	2263.430333834655	1
0	13233	2263.690993393852	0
0	13246	2264.846002344697	1
0	13247	2265.13919841579	0
0	13264	2266.746538016708	1
0	13266	2267.162270021028	2
0	13267	2267.516485393764	1
0	13272	2268.785796959224	0
0	13289	2271.994628914833	1
0	13290	2272.250351389025	0
0	13299	2273.233806644176	1
0	13301	2273.302481674988	2
0	13303	2273.879570054822	3
0	13305	2274.413184848333	4
0	13307	2275.213393399183	5
0	13312	2277.059988278031	4
0	13316	2277.368663836185	5
0	13319	2278.647850024048	4
0	13330	2279.914658998763	3
0	13335	2280.343038605071	2
0	13341	2281.628933074899	1
0	13346	2281.654104382546	0
0	13352	2283.056069625622	1
0	13358	2286.076425393971	2
0	13360	2287.625959692042	1
0	13365	2288.057832610303	0
0	13390	2290.79635375455	1
0	13392	2290.849105146277	2
0	13394	2292.387876605982	1
0	13402	2293.178754238638	2
0	13404	2293.530895446727	3
0	13405	2293.564081375195	2
0	13410	2294.108400384127	1
0	13414	2294.588942999113	2
0	13417	2294.901889984441	1
0	13427	2296.68353806697	2
0	13432	2296.967507702772	3
0	13434	2297.165980388228	4
0	13435	2297.339583638327	3
0	13440	2297.887495554893	2
0	13448	2298.708693269058	3
0	13450	2300.039540134023	2
0	13455	2300.120320492415	1
0	13460	2301.624641599074	0
0	13464	2301.958214239753	1
0	13466	2304.062760878861	2
0	13470	2306.126742473014	1
0	13476	2306.448905740525	2
0	13478	2306.800232065709	3
0	13482	2307.437022190273	4
0	13483	2307.984391380122	3
0	13488	2309.296112598087	2
0	13494	2310.919475508533	3
0	13496	2311.160696321739	4
0	13498	2311.665110404841	5
0	13499	2311.784724947958	4
0	13505	2312.628813422495	5
0	13507	2312.959953239977	6
0	13508	2312.961738739411	5
0	13513	2313.893000637642	4
0	13518	2315.290757955049	3
0	13523	2315.799516233827	2
0	13528	2316.445102306819	1
0	13532	2316.586932622908	2
0	13535	2318.273508492217	1
0	13541	2319.386364230041	2
0	13542	2319.508728946606	1
0	13549	2321.429397340166	0
0	13555	2321.770172569882	1
0	13557	2321.775255241665	2
0	13558	2322.014661750232	1
0	13563	2322.926138569758	0
0	13567	2324.934381634576	1
0	13572	2327.490773806074	0
0	13584	2328.987461954102	1
0	13589	2330.512090931924	2
0	13590	2331.30966929004	1
0	13595	2332.214239168363	0
0	13669	2346.8645621397	1
0	13670	2347.136436599217	0
0	13684	2348.226766254155	1
0	13686	2348.878227431288	2
0	13687	2348.964516086507	1
0	13692	2349.040161607638	0
0	13705	2349.356305037511	1
0	13706	2349.797315899579	0
0	13731	2352.28909995219	1
0	13737	2354.041778677547	2
0	13739	2354.103078994333	3
0	13740	2354.431319538	2
0	13745	2354.940544173019	1
0	13750	2356.168879088771	0
0	13756	2358.32124911481	1
0	13758	2358.370960880483	2
0	13759	2359.10332223079	1
0	13765	2360.373143834399	2
0	13766	2360.519140980416	1
0	13771	2361.679338975956	0
0	13790	2366.52921015188	1
0	13791	2366.646927894982	0
0	13819	2373.894935902845	1
0	13822	2374.883550911623	0
0	13840	2382.520318655374	1
0	13841	2382.876765080493	0
0	13860	2385.445055045136	1
0	13861	2385.867675481552	0
0	13893	2396.4280870208	1
0	13894	2396.651234315432	0
0	13940	2407.228301727035	1
0	13943	2408.018576417671	0
0	13981	2420.124409429018	1
0	13983	2420.198584064428	0
0	13998	2423.551024990611	1
0	13999	2423.826425942621	0
0	14028	2431.069846534098	1
0	14029	2431.261313914548	0
0	14033	2431.267064473384	1
0	14039	2432.786841315824	0
0	14069	2440.04221190511	1
0	14070	2440.298635660713	0
0	14084	2443.271383650047	1
0	14085	2443.321324379085	0
0	14101	2445.506958668617	1
0	14103	2446.088258577942	2
0	14106	2447.320113165221	3
0	14108	2447.838107248571	4
0	14109	2448.153527303104	3
0	14115	2448.66519497201	4
0	14117	2448.799862126132	5
0	14118	2448.903217090087	4
0	14123	2449.099315110634	3
0	14128	2450.4395272912	2
0	14135	2451.17928939698	1
0	14141	2451.248400024577	2
0	14142	2451.508926122336	1
0	14147	2452.795135799304	0
0	14151	2453.208605049516	1
0	14154	2454.075551477718	0
0	14160	2455.727746136302	1
0	14162	2456.785229992059	2
0	14165	2457.386464815129	1
0	14172	2459.667027376361	0
0	14176	2460.959555188237	1
0	14180	2461.244246974471	2
0	14182	2461.400535660509	3
0	14184	2462.453775696085	4
0	14186	2462.573398530457	5
0	14191	2464.69772435958	4
0	14195	2466.01152142792	5
0	14198	2467.337483421867	4
0	14203	2470.234778172422	3
0	14208	2471.530268200938	2
0	14213	2473.538883554301	1
0	14218	2474.607098413229	0
0	14226	2476.495000292906	1
0	14230	2477.71439421304	0
0	14254	2482.734535565272	1
0	14256	2482.908510798319	2
0	14259	2483.24385139626	1
0	14268	2485.650082857873	2
0	14270	2485.94827858826	3
0	14271	2487.315404071249	2
0	14277	2487.332424137596	3
0	14280	2487.893411358136	2
0	14285	2488.148179734988	1
0	14290	2488.903766661877	0
0	14322	2492.624485497995	1
0	14324	2493.149541983765	2
0	14325	2493.201165524903	1
0	14331	2493.611484450191	2
0	14335	2494.128527373985	3
0	14336	2494.191152996463	2
0	14344	2494.788362255861	3
0	14345	2494.803592733244	2
0	14350	2495.465294562101	1
0	14356	2496.207818809345	2
0	14359	2497.125762529819	1
0	14365	2497.170284762032	0
0	14371	2498.093419182051	1
0	14372	2498.566622388619	0
0	14378	2502.348167789516	1
0	14384	2504.011237867283	2
0	14386	2504.497591719511	3
0	14387	2504.76314072271	2
0	14396	2505.133351577348	3
0	14398	2505.248203477096	4
0	14399	2505.808624215568	3
0	14406	2506.073855192137	2
0	14411	2506.322091838609	1
0	14415	2506.970591526133	2
0	14420	2509.041418442951	1
0	14426	2509.88067249132	2
0	14431	2511.432802356355	3
0	14433	2513.39852461306	2
0	14439	2514.718927025886	3
0	14442	2516.024947916723	2
0	14448	2518.202912727011	1
0	14453	2519.370614626955	0
0	14461	2520.52019530035	1
0	14462	2520.730171616599	0
0	14483	2521.957953989775	1
0	14484	2522.144554857994	0
0	14488	2523.113304014357	1
0	14492	2523.807214952047	2
0	14493	2524.034646367294	1
0	14497	2524.4948314853	2
0	14502	2526.00364933579	1
0	14508	2526.347987434574	2
0	14511	2527.397044446596	1
0	14515	2527.4336971291	2
0	14517	2527.673689207887	3
0	14523	2528.890702390451	4
0	14525	2529.417446366949	3
0	14530	2529.734811673111	2
0	14534	2529.786033780767	3
0	14538	2531.550938568672	2
0	14547	2533.826790130587	1
0	14552	2533.875358755539	0
0	14562	2539.003435736714	1
0	14563	2539.008447643392	0
0	14584	2541.382985356545	1
0	14586	2542.31029180417	0
0	14590	2542.519484348745	1
0	14595	2543.470584055094	0
0	14619	2544.763370050266	1
0	14621	2546.337708419154	0
0	14641	2548.889119028186	1
0	14643	2549.447945718934	2
0	14644	2550.052230154301	1
0	14648	2552.316491503338	2
0	14650	2552.37246882803	3
0	14654	2553.010817025352	2
0	14661	2554.145715832235	1
0	14668	2555.995951168713	0
0	14685	2559.070470975862	1
0	14686	2559.422225847976	0
0	14692	2559.45347388385	1
0	14693	2560.006071139143	0
0	14699	2560.667936664698	1
0	14701	2561.181976075649	2
0	14704	2562.588119364741	1
0	14709	2564.442931360569	0
0	14729	2568.418477891777	1
0	14730	2568.627302444838	0
0	14739	2569.138553006674	1
0	14743	2571.284697559123	2
0	14744	2572.487527651289	1
0	14748	2573.400627768903	2
0	14753	2574.616197907693	3
0	14755	2574.819063899869	4
0	14758	2575.281037437323	5
0	14760	2576.182048769078	4
0	14766	2576.876381528858	3
0	14771	2577.734242975158	2
0	14776	2577.77450178279	1
0	14781	2578.340107367364	0
0	14785	2578.442755905934	1
0	14787	2578.705318190293	2
0	14790	2578.956527100333	1
0	14796	2579.431199107533	0
0	14807	2580.598011081026	1
0	14810	2580.742854545725	0
0	14814	2580.988563837719	1
0	14817	2581.695056587243	0
0	14828	2582.999144024828	1
0	14835	2584.593849366727	2
0	14837	2585.288112288063	1
0	14844	2587.408103497903	0
0	14869	2589.830415888986	1
0	14872	2590.096797263627	0
0	14893	2591.119735446183	1
0	14897	2591.570736324342	0
0	14930	2596.601982025144	1
0	14932	2596.89769468295	2
0	14936	2597.639704362834	1
0	14941	2597.941963464086	0
0	14951	2598.48262105487	1
0	14953	2598.512432978963	2
0	14955	2600.584019517891	1
0	14960	2600.881341130766	0
0	14966	2601.746222148621	1
0	14967	2602.125948168204	0
0	14974	2602.611447123541	1
0	14976	2603.370796135117	0
0	14987	2604.266863175423	1
0	14990	2604.542146343013	2
0	14993	2606.508452790467	1
0	14998	2606.527068944432	0
0	15009	2607.576163153546	1
0	15012	2607.762264392729	2
0	15013	2607.776388844764	1
0	15019	2607.85280600162	2
0	15021	2609.024390109229	1
0	15027	2609.441468245768	2
0	15031	2610.243019640304	3
0	15032	2611.546925091194	2
0	15037	2612.751603364035	1
0	15045	2613.428245464284	0
0	15051	2613.48559274908	1
0	15052	2613.729754998449	0
0	15066	2616.21288518324	1
0	15069	2617.524564145745	0
0	15089	2621.943911264724	1
0	15090	2622.496071143853	0
0	15097	2622.574667820927	1
0	15099	2622.850251236967	2
0	15103	2623.438904405544	1
0	15111	2624.217921559305	0
0	15180	2636.693347097357	1
0	15183	2636.949205856491	0
0	15200	2638.480840743938	1
0	15201	2640.580729803071	0
0	15217	2642.477036009867	1
0	15219	2642.945418600648	2
0	15220	2643.558015787968	1
0	15225	2643.698934694422	0
0	15257	2648.793880727662	1
0	15264	2650.200407297214	2
0	15266	2650.358843348503	3
0	15268	2650.690103784355	2
0	15275	2652.177655943558	1
0	15281	2653.004910437142	0
0	15300	2655.140979996151	1
0	15302	2655.281474093163	2
0	15303	2655.79378549313	1
0	15310	2656.613552791554	0
0	15317	2657.178396057705	1
0	15319	2657.854730458518	2
0	15320	2657.87095959355	1
0	15326	2660.130343939116	0
0	15338	2661.429293098559	1
0	15341	2662.679872320812	0
0	15345	2662.766461799767	1
0	15349	2664.769438064904	2
0	15350	2665.102353555583	1
0	15354	2665.238293659387	2
0	15359	2665.959729339463	3
0	15360	2666.128739988315	2
0	15366	2667.059484495728	1
0	15375	2667.946066922212	0
0	15379	2668.046118041434	1
0	15381	2669.211144793247	2
0	15384	2670.447370914061	1
0	15391	2672.396126711828	0
0	15408	2673.921362803351	1
0	15413	2674.708384745933	0
0	15426	2675.462890520521	1
0	15427	2676.103581761881	0
0	15442	2679.40627025514	1
0	15443	2679.479572161589	0
0	15464	2680.937850173497	1
0	15466	2682.071340274337	0
0	15476	2683.552416780213	1
0	15477	2683.792284564817	0
0	15513	2688.218722676057	1
0	15515	2688.293441511933	2
0	15517	2688.560949186768	3
0	15518	2688.614549285871	2
0	15526	2689.612520077861	1
0	15531	2689.909645002152	0
0	15537	2690.105993749658	1
0	15542	2690.686636392544	2
0	15544	2691.342536134791	1
0	15549	2691.344515048938	0
0	15571	2693.801173899768	1
0	15574	2694.131243897482	0
0	15594	2696.33988202738	1
0	15595	2697.340144412091	0
0	15601	2697.599997614109	1
0	15602	2698.155914290173	0
0	15608	2698.420499185783	1
0	15611	2699.250063523111	0
0	15630	2702.483625118278	1
0	15632	2702.6241983539	2
0	15636	2702.935739866288	3
0	15637	2703.035407858911	2
0	15643	2703.137512827762	3
0	15645	2704.908115870684	2
0	15651	2705.088338076966	3
0	15654	2705.815122986907	4
0	15655	2706.049527495423	3
0	15661	2706.656083783717	2
0	15666	2707.015852931154	1
0	15671	2707.071276045696	0
0	15677	2707.175873442982	1
0	15679	2707.461758289261	2
0	15681	2708.970649729054	1
0	15687	2709.105267813979	2
0	15689	2709.284254226522	1
0	15695	2711.411199907467	0
0	15715	2714.625933849805	1
0	15716	2714.934158409762	0
0	15762	2728.389836278105	1
0	15766	2730.184620854184	2
0	15767	2731.30329597014	1
0	15772	2731.476048613091	0
0	15784	2736.249461633871	1
0	15786	2736.829604045966	2
0	15787	2737.067470759437	1
0	15792	2737.759857957599	0
0	15798	2738.276806210344	1
0	15802	2738.733558962296	0
0	15809	2739.456638238307	1
0	15811	2740.894019351932	2
0	15812	2740.99057153575	1
0	15818	2741.10744536995	2
0	15820	2741.384952093914	1
0	15826	2741.767879350839	2
0	15828	2742.122995612075	3
0	15829	2742.306364308448	2
0	15836	2743.925399750834	1
0	15841	2744.866836121699	0
0	15849	2745.517110124219	1
0	15852	2746.05868730159	0
0	15856	2747.630083867188	1
0	15860	2750.578427649659	2
0	15862	2751.544674871662	1
0	15867	2751.968441355254	0
0	15873	2752.305959805159	1
0	15876	2752.733472805074	0
0	15900	2753.55194942017	1
0	15903	2754.61618340052	2
0	15904	2755.151448543226	1
0	15910	2755.395823336085	2
0	15915	2756.57139960437	1
0	15921	2757.461884125078	0
0	15952	2759.620913220293	1
0	15954	2760.0310655797	2
0	15957	2760.656536052475	1
0	15962	2761.071725348702	0
0	15976	2764.216032334375	1
0	15983	2766.963775709028	2
0	15984	2767.304998463393	1
0	15989	2767.311490769169	0
0	15995	2767.855429590419	1
0	15997	2768.547992113027	2
0	16001	2769.956375380988	3
0	16002	2770.711817069332	2
0	16009	2771.112873706364	3
0	16013	2772.12615345988	4
0	16014	2772.299921456933	3
0	16020	2773.047498648119	4
0	16022	2773.443929252779	5
0	16024	2773.816300429431	6
0	16025	2774.39803057046	5
0	16031	2774.887271282812	4
0	16036	2775.112582466049	3
0	16041	2775.273105793691	2
0	16045	2775.273626961328	3
0	16047	2777.620626269017	4
0	16051	2778.030994668308	5
0	16054	2779.228720020727	4
0	16060	2780.91185790953	5
0	16064	2781.709376617065	6
0	16067	2782.608236333227	5
0	16073	2782.827192939354	6
0	16078	2784.008578028921	5
0	16083	2784.690321609952	4
0	16088	2785.17914299625	3
0	16092	2785.87010122541	4
0	16094	2786.332309991535	5
0	16098	2786.685476397344	6
0	16099	2786.69433476806	5
0	16105	2787.480956784493	6
0	16106	2787.689796954257	5
0	16112	2788.731442135423	6
0	16113	2789.520772687436	5
0	16117	2790.887947202353	6
0	16119	2790.917442330343	7
0	16121	2791.066659250116	8
0	16123	2792.621440657408	9
0	16126	2793.942882594377	8
0	16131	2794.656885780707	7
0	16136	2795.198579699429	6
0	16146	2798.978479123362	7
0	16149	2800.499572250018	6
0	16153	2802.430343212412	7
0	16155	2803.533248937398	8
0	16158	2805.044288185828	7
0	16163	2806.140938801208	6
0	16167	2806.752411367521	7
0	16171	2807.616457049902	8
0	16173	2808.48214257206	7
0	16178	2808.635552419189	6
0	16183	2809.809601793876	5
0	16188	2810.313270606082	4
0	16192	2811.302280681344	5
0	16194	2811.679073032617	6
0	16201	2813.001482433839	5
0	16206	2813.746391222657	4
0	16212	2813.781480496614	5
0	16214	2814.151694238692	4
0	16220	2814.637741766273	3
0	16226	2814.735053513555	4
0	16228	2817.585857358154	3
0	16233	2817.794482685287	2
0	16237	2818.219213890877	3
0	16240	2818.608711619005	2
0	16244	2819.396529589891	3
0	16246	2819.440003589214	4
0	16248	2819.503520169978	5
0	16251	2821.226705677779	4
0	16256	2821.640595126801	3
0	16260	2822.54456898542	4
0	16268	2823.731225661693	3
0	16274	2823.892821885142	4
0	16275	2824.750203047466	3
0	16280	2827.180871464496	2
0	16285	2829.167501304627	1
0	16292	2831.469423644874	0
0	16296	2832.397269802553	1
0	16300	2833.33936224866	2
0	16301	2833.419128697425	1
0	16312	2838.899865934721	0
0	16331	2841.743740203748	1
0	16334	2842.376186778293	0
0	16342	2843.607612098267	1
0	16343	2844.207589627718	0
0	16373	2847.008415615217	1
0	16377	2847.842705573671	0
0	16391	2849.728232268333	1
0	16394	2850.037486392606	2
0	16395	2850.163215365391	1
0	16401	2850.212022160928	0
0	16413	2850.755541669622	1
0	16414	2850.846317160007	0
0	16431	2856.000526584591	1
0	16433	2856.173229697262	2
0	16434	2857.117226582247	1
0	16439	2857.59118463893	0
0	16453	2857.753936377652	1
0	16458	2859.465705779909	0
0	16464	2859.681706123476	1
0	16465	2859.891772712348	0
0	16489	2865.399465143126	1
0	16491	2865.677572318109	2
0	16492	2866.896177030315	1
0	16498	2867.336512817054	0
0	16514	2868.795541554464	1
0	16515	2868.825844155557	0
0	16527	2869.955379859445	1
0	16528	2871.063325176585	0
0	16547	2873.494042601462	1
0	16548	2873.799029566496	0
0	16556	2874.646090472488	1
0	16558	2875.489701876219	2
0	16560	2876.928111596383	1
0	16565	2876.9689417314	0
0	16699	2904.876154310656	1
0	16700	2905.038067556997	0
0	16707	2906.236554819641	1
0	16712	2906.507124541088	0
0	16718	2906.976376420377	1
0	16719	2908.127278036133	0
0	16778	2918.042789726	1
0	16783	2918.309318470726	0
0	16790	2919.197255765467	1
0	16793	2920.412427786477	2
0	16794	2920.569075448936	1
0	16799	2921.2405723456	0
0	16813	2922.983820276665	1
0	16814	2923.82421332862	0
0	16828	2926.715459294389	1
0	16830	2927.806886145753	0
0	16865	2930.092206162828	1
0	16866	2930.288453366335	0
0	16906	2934.931859026215	1
0	16909	2935.174054316713	0
0	16920	2936.005871960472	1
0	16923	2936.822908859229	2
0	16924	2937.328419251238	1
0	16930	2937.416576293784	0
0	16952	2941.463035171573	1
0	16953	2942.21863929027	0
0	16961	2944.265783426346	1
0	16962	2944.754067579861	0
0	17053	2972.996837191546	1
0	17054	2973.668286187965	0
0	17061	2974.273768626475	1
0	17062	2974.501897832952	0
0	17070	2974.88131190524	1
0	17071	2974.91655674696	0
0	17194	3004.164586223599	1
0	17196	3005.184679943338	0
0	17212	3006.30037074204	1
0	17213	3006.663072648116	0
0	17234	3012.514989733518	1
0	17236	3013.316780485065	0
0	17258	3016.553295420444	1
0	17259	3016.957202731439	0
0	17285	3023.064485128506	1
0	17288	3023.668508063079	2
0	17291	3023.81391673782	1
0	17298	3025.616441551794	0
0	17309	3026.636045210244	1
0	17311	3027.013232548783	2
0	17315	3027.477643408839	1
0	17321	3027.808211853682	2
0	17323	3028.350563223966	1
0	17329	3029.063375960366	0
0	17335	3029.446344344772	1
0	17336	3029.863055729166	0
0	17377	3032.900854082342	1
0	17379	3034.282079151322	2
0	17381	3034.868919003863	3
0	17385	3036.115390676716	4
0	17386	3036.189575670952	3
0	17393	3036.823257392282	2
0	17399	3037.024314968729	1
0	17406	3037.466233118406	2
0	17407	3037.582870936071	1
0	17412	3038.672051498623	0
0	17439	3042.386533877513	1
0	17440	3042.38804836721	0
0	17455	3045.312392352998	1
0	17460	3047.142048323703	0
0	17481	3051.192476634861	1
0	17482	3051.198657100469	0
0	17514	3058.07882966799	1
0	17515	3058.160172592254	0
0	17536	3060.001495863371	1
0	17537	3061.034060824479	0
0	17641	3084.000098520938	1
0	17647	3084.981123431115	2
0	17648	3086.628229659765	1
0	17653	3087.507796686515	0
0	17666	3088.414581512189	1
0	17667	3089.346400688282	0
0	17676	3090.790412707392	1
0	17677	3092.483546879082	0
0	17689	3093.89757475012	1
0	17690	3093.909346681229	0
0	17773	3108.278616576735	1
0	17775	3108.446493116556	2
0	17776	3108.927657319031	1
0	17783	3109.207582320926	2
0	17785	3110.048668942053	3
0	17787	3110.08508511511	4
0	17790	3112.135594575636	3
0	17798	3114.57723499825	2
0	17805	3117.260618487714	1
0	17810	3118.444474428109	0
0	17816	3118.647987993422	1
0	17818	3119.558546906876	0
0	17825	3120.149242183354	1
0	17828	3121.64348613166	0
0	17844	3122.796710248668	1
0	17847	3123.332512852841	2
0	17850	3124.149327688695	3
0	17856	3125.032752269734	2
0	17862	3125.05304569951	3
0	17867	3125.680064446212	4
0	17868	3126.459058255579	3
0	17873	3126.681616108613	2
0	17878	3126.843360890612	1
0	17884	3127.68936963484	2
0	17886	3128.139975220788	3
0	17888	3128.491228583252	2
0	17895	3128.683839655169	3
0	17896	3129.598413867867	2
0	17901	3129.679685046966	1
0	17908	3129.979558926871	0
0	17914	3130.287816358026	1
0	17915	3130.455568632895	0
0	17919	3130.47574901882	1
0	17923	3131.316754063134	0
0	17934	3132.332940484136	1
0	17936	3132.753142182408	0
0	17952	3135.964627603894	1
0	17955	3136.642119335611	0
0	17971	3139.117115285563	1
0	17974	3139.647845733954	2
0	17975	3140.935174982872	1
0	17980	3141.508740274576	0
0	17998	3142.791881462886	1
0	18000	3143.420155170464	0
0	18046	3150.135226163571	1
0	18048	3150.431917226602	0
0	18077	3154.208264067268	1
0	18078	3154.35204317866	0
0	18084	3154.460449485058	1
0	18091	3156.705583817905	2
0	18092	3158.07347866854	1
0	18098	3158.091713086561	2
0	18101	3158.589363218494	3
0	18103	3158.657635199513	4
0	18104	3159.014831710289	3
0	18111	3159.662605211998	4
0	18113	3160.073452070914	5
0	18117	3160.615660616821	4
0	18124	3161.073295770624	3
0	18130	3161.18522673071	4
0	18131	3161.213133697909	3
0	18139	3163.77900511053	4
0	18140	3163.972236242251	3
0	18146	3163.989162797112	4
0	18148	3164.490249588442	5
0	18150	3165.442106974438	4
0	18155	3165.726775103986	3
0	18160	3167.260631969752	2
0	18165	3168.276504962283	1
0	18171	3169.416973727527	2
0	18172	3170.206689556013	1
0	18177	3171.150929381663	0
0	18181	3171.9131533001	1
0	18183	3173.458082080852	2
0	18186	3173.886529069808	1
0	18193	3174.238898048834	0
0	18197	3174.423424553105	1
0	18203	3176.045853452601	0
0	18247	3187.585439178363	1
0	18248	3188.189328224929	0
0	18288	3194.149387404334	1
0	18291	3194.702929167069	2
0	18292	3194.923580529384	1
0	18300	3195.908129662132	0
0	18313	3197.166036749898	1
0	18315	3197.386289516925	2
0	18316	3197.502237578758	1
0	18323	3197.954254576824	0
0	18366	3203.910389341507	1
0	18372	3204.724119759353	2
0	18376	3207.126447815164	1
0	18381	3207.510567421931	0
0	18396	3210.697789435452	1
0	18401	3214.35379771922	2
0	18402	3214.693035150948	1
0	18410	3216.55795479123	2
0	18411	3216.748480840617	1
0	18416	3217.758164555679	0
0	18444	3223.599953026894	1
0	18446	3223.911099014438	0
0	18488	3226.460681380859	1
0	18493	3228.207083550618	0
0	18507	3230.392569106752	1
0	18508	3231.08765460815	0
0	18559	3238.844179587699	1
0	18565	3240.306197085599	0
0	18575	3240.765852345103	1
0	18576	3241.560450967555	0
0	18587	3242.922327887974	1
0	18588	3243.123640506094	0
0	18604	3245.480690641147	1
0	18606	3245.734163898542	2
0	18610	3246.912928943928	3
0	18613	3248.435612604969	4
[...]
4	163178	28286.003410875286	8.425902586437
4	163218	28291.446613285096	11.967746362624
4	163230	28292.711718513007	4.369228446839
4	163235	28293.432533664251	3.285572169553
4	163242	28293.732325075059	0.1153109794
4	163262	28298.849696036521	0.349354691558
4	163299	28304.207021973113	3.786832453713
4	163361	28313.805759231373	6.64627226636
4	163370	28314.887170193848	6.577780143539
4	163385	28317.891717730867	4.536232458997
4	163394	28319.124286034876	3.996188866961
4	163405	28321.871856598815	1.762698459105
4	163423	28324.596764009718	2.316289138979
4	163443	28327.403493989618	2.000774002827
4	163471	28334.503698980815	3.53188343311
4	163479	28336.448632061846	4.879801472489
4	163513	28343.540850400985	3.402027552268
4	163534	28348.289492669582	0.914401502262
4	163569	28357.253049785263	0.622418492946
4	163574	28357.983181728107	1.146015806281
4	163595	28360.277968084579	0.252464206071
4	163604	28360.609034097942	0.385639556368
4	163642	28368.099827020911	3.125370673128
4	163649	28368.320022145625	0.053563656895
4	163669	28370.900331344724	0.329875210526
4	163692	28372.740623619168	0.988947580836
4	163697	28373.456624043038	1.512351791114
4	163701	28373.666196159682	1.454882337984
4	163737	28383.19021328305	3.622774872149
4	163758	28386.090332796047	4.902739968782
4	163766	28387.279881094254	5.690982381176
4	163771	28387.81986918117	2.830432498523
4	163775	28387.826417017977	2.771474823741
4	163798	28389.006610837087	0.260694222636
4	163834	28393.998161399638	4.847272841382
4	163838	28394.817958051352	2.131297400403
4	163852	28397.651152881211	0.706486122844
4	163859	28400.771452628887	0.115019015974
4	163892	28405.468693158315	2.102313211422
4	163903	28407.270629683256	0.131286325699
4	163914	28409.466439563867	0.277714521414
4	163930	28414.928359584121	2.610010450628
4	163950	28419.002554228365	4.333870315834
4	163982	28421.680908758386	0.169553172156
4	163999	28423.367655506578	0.681791941761
4	164025	28426.845421278304	4.077370807481
4	164037	28428.337951281807	5.082864232525
4	164042	28428.553138446982	4.91127129452
4	164046	28428.723320116786	1.84734428221
4	164053	28431.166865769566	1.052145781465
4	164061	28432.744770178937	0.840698393226
4	164075	28435.537892238973	2.130219490331
4	164084	28436.026926271751	1.188859589899
4	164133	28443.253990760642	0.279713342524
4	164235	28460.416313803051	16.212687536477
4	164240	28460.473102147625	5.547501860653
4	164245	28462.355139904436	3.653841462715
4	164260	28465.071165975352	0.805552566723
4	164282	28470.715334548147	0.930901640326
4	164403	28491.584427549357	21.169424871635
4	164412	28493.006482596728	20.089002185363
4	164417	28493.402545884805	16.761907805164
4	164425	28495.848492868476	8.397177403216
4	164429	28496.389179220568	4.592761692521
4	164469	28504.675007495963	2.066878142156
4	164500	28509.165528512187	4.829813874828
4	164525	28515.196782247569	10.617727117324
4	164545	28519.926094115883	3.463659688901
4	164560	28522.688491096091	5.003156762165
4	164594	28529.233046684411	4.446865384407
4	164612	28533.026412248033	0.361331849193
4	164643	28536.009409620595	1.433593046185
4	164655	28537.888110781494	3.096982165348
4	164704	28546.169339860048	10.829814770276
4	164709	28546.479195330881	8.36555873643
4	164719	28548.039452796071	7.721652932892
4	164729	28548.114683256293	5.315220356687
4	164734	28550.603995702437	7.595816411982
4	164747	28556.346142760613	9.108034938377
4	164883	28583.469440633331	32.40129023833
4	164935	28590.578071081402	35.828291430584
4	164940	28590.670754425208	25.763840823132
4	164954	28592.888059584599	23.625367308689
4	165193	28643.162551289365	72.441446655912
4	165217	28646.944177327723	73.327890676179
4	165229	28647.844936400074	72.288772087726
4	165242	28650.755935401872	72.803624279158
4	165267	28652.209544904775	74.238295035004
4	165274	28652.677176754257	70.667951223659
4	165293	28655.989260739148	72.172855543999
4	165318	28658.582615391753	71.510608193425
4	165332	28661.108409377617	69.405732996795
4	165338	28661.593327027463	69.188573730321
4	165347	28664.233662244653	62.755974604236
4	165352	28664.418119495033	58.800341043927
4	165357	28664.958764540868	57.9639533549
4	165362	28665.008390469843	54.845830278157
4	165387	28671.247590811161	53.005531430488
4	165461	28681.718450578064	60.872810268502
4	165509	28688.119471696442	61.516088056216
4	165526	28691.439049709423	63.927480810945
4	165546	28692.470268401716	64.269161530924
4	165556	28693.16467179176	64.389323192023
4	165565	28694.799462426304	65.810984969914
4	165587	28696.330348436958	64.993288025933
4	165612	28699.401065547674	67.519903736176
4	165630	28701.160121555399	67.786962770537
4	165635	28701.26678486907	63.529298187373
4	165640	28701.831112463079	56.184899687238
4	165650	28703.671741771236	54.451728093037
4	165670	28706.612592840991	56.263752110669
4	165681	28707.993312552933	55.48641179188
4	165689	28711.684068879237	57.636804745869
4	165718	28713.912455583303	59.145452835005
4	165731	28715.452861995502	54.998137745515
4	165760	28726.610344815485	63.63088819766
4	165964	28764.362911906953	97.748663405552
4	165975	28764.8367490642	93.604174713218
4	165996	28766.553566566593	90.300263588123
4	166019	28770.119564107633	92.933530802965
4	166024	28770.262768622754	92.168601286206
4	166033	28771.687677369124	91.162666134266
4	166040	28772.219917624466	81.94575183434
4	166053	28772.921365671636	77.460422757675
4	166071	28775.836450015568	79.926706139133
4	166082	28777.476934834769	64.493991794926
4	166087	28777.490085330868	63.441497891755
4	166092	28777.594212125158	54.78384535442
4	166101	28777.963325943216	46.217012771949
4	166117	28781.928598235005	41.93535560108
4	166122	28781.969375319967	38.621527256296
4	166128	28783.344091295338	33.678832729965
4	166137	28785.447487959449	34.472309272905
4	166142	28786.42007991138	35.338789650308
4	166157	28789.015990677839	33.402966543677
4	166204	28795.832950966564	38.093784121304
4	166210	28796.70145160846	36.365236916394
4	166215	28796.923459216745	35.344538238031
4	166220	28797.067983798016	32.647179892081
4	166225	28798.483826164789	32.813410993188
4	166234	28799.31518713618	32.59282746371
4	166256	28801.135673580631	30.329033828294
4	166261	28803.322215708002	25.723099528126
4	166271	28807.253879820623	28.152608783667
4	166278	28807.416131443843	23.263842317034
4	166305	28809.403068466608	24.731023531283
4	166310	28810.495319240411	24.036331492108
4	166315	28810.714144149721	21.357125646967
4	166320	28812.126464091276	20.319274052882
4	166333	28815.611143907349	14.944369640345
4	166360	28818.424925007494	12.275238191518
4	166399	28832.889962418369	1.273854513266
4	166414	28837.189229840828	0.029417877641
4	166422	28842.603949620048	0.76277237338
4	166459	28849.523014396398	2.860213019422
4	166464	28849.794615897006	3.02282276836
4	166471	28850.430267042227	1.63054420579
4	166486	28851.90582682807	2.88642684353
4	166503	28856.189512621349	1.09707287641
4	166523	28857.937577912078	0.801574723121
4	166543	28859.11557188514	0.433204176099
4	166590	28866.107976532145	3.725597319843
4	166597	28866.340763955647	1.59201459931
4	166618	28867.995169259791	2.998152786835
4	166622	28868.483629413584	1.506914764223
4	166649	28873.112563929453	4.129554774094
4	166688	28879.039899788463	4.538677737964
4	166693	28879.342865193767	1.379627552293
4	166701	28880.813879538567	1.99237078864
4	166710	28883.557977370111	4.148408992416
4	166788	28900.22988938814	8.953992514639
4	166801	28902.928841931039	6.714854904215
4	166806	28903.134014319383	5.258905890471
4	166813	28904.218855960844	5.815834553435
4	166824	28905.661425068727	1.839920899115
4	166844	28909.051825117616	2.726645568302
4	166857	28916.001041556274	1.18645636589
4	166883	28919.760514329364	0.270226465049
4	166925	28928.119372513734	0.912492370829
4	166934	28931.348845062557	0.080955506182
4	166941	28932.033487170529	0.263209799559
4	166952	28934.263168705791	1.973625163724
4	166957	28935.121850740764	2.119285155029
4	166967	28936.663376528672	0.135622839386
4	166974	28937.952627628917	1.367881896322
4	167018	28947.013424878823	2.838602226028
4	167025	28947.670872664033	3.29877585574
4	167040	28949.006880406913	3.987202218265
4	167066	28950.622598807726	4.359519878277
4	167104	28956.309971571066	2.501158912153
4	167119	28958.851064225223	4.562436993888
4	167138	28959.70180979547	0.029077982411
4	167153	28960.82714732818	0.058184451043
4	167194	28973.797427687024	3.600452077329
4	167242	28980.349666251793	6.161793313783
4	167247	28980.46938304517	4.721713280393
4	167267	28982.708920924065	0.910525647244
4	167288	28985.001164712243	2.968436898775
4	167324	28989.339825982472	7.112144296402
4	167345	28992.746795023259	6.71234276017
4	167357	28993.64120624775	0.289783121997
4	167507	29020.201740117025	15.283033930709
4	167512	29020.229920893281	10.055440357581
4	167516	29020.485853653939	2.560021392039
4	167526	29023.020069135121	0.075475060018
4	167573	29029.593634441648	1.119567785589
4	167582	29031.345725545654	0.47488689171
4	167637	29039.048117918892	1.663020378074
4	167655	29043.271470198117	1.574436751314
4	167702	29048.392627974418	0.531037039719
4	167747	29057.339268408623	0.795568914227
4	167756	29059.210433870486	0.310742408007
4	167764	29060.654962903709	1.380735027914
4	167789	29063.749326381131	0.94899466773
4	167805	29067.674157323397	0.866054896881
4	167812	29068.037159149113	0.02075894878
4	167832	29073.164265187642	1.420379059887
4	167836	29073.244668362749	0.705181510163
4	167843	29073.516588617379	0.124201151208
4	167876	29081.172383414647	2.962635002429
4	167912	29088.836700728232	0.626696906588
4	167931	29090.829007724253	0.330704489062
4	167941	29092.675857122577	0.821420804313
4	167976	29097.462431713518	3.610858852998
4	167987	29098.229951730084	4.255734334233
4	167991	29098.301682032273	3.630660156768
4	168009	29102.169003376338	3.811246415445
4	168020	29104.11416113259	0.724012604741
4	168109	29128.761555960325	0.280390568699
4	168121	29129.334267714698	0.292797400017
4	168170	29137.017951477222	2.737475726612
4	168509	29200.838901749205	64.072759340458
4	168515	29201.483285595319	64.62766991035
4	168528	29203.874943162966	64.177883406227
4	168564	29207.109236768381	65.383410625353
4	168574	29209.380314381866	64.464378791317
4	168585	29210.960250965072	65.561591243641
4	168591	29211.469899043953	65.848653549871
4	168600	29213.494952695113	60.031467227683
4	168625	29216.702556479949	62.887942693774
4	168638	29220.198744813677	63.658311256806
4	168650	29222.604551656504	62.239319718811
4	168673	29225.575335335397	65.159315478208
4	168686	29229.728675926975	67.698575780829
4	168723	29236.036758080273	63.914284777239
4	168752	29239.134089481754	56.844446277185
4	168770	29240.736469996884	57.506149436896
4	168775	29240.953717999304	52.48353862637
4	168780	29241.150046948375	50.729131537562
4	168785	29241.215808562916	49.096327196288
4	168794	29242.3658192812	49.468810189435
4	168818	29248.404897494988	49.336326464143
4	168843	29251.002598203492	48.726426788225
4	168853	29251.474970013154	47.275472528683
4	168858	29251.513452986403	45.188806477685
4	168863	29251.634773250216	43.578288981755
4	168868	29251.794869705928	39.873096313637
4	168873	29253.518831626856	35.627568580391
4	168885	29255.994781680416	34.285517648513
4	168892	29256.470373943605	33.780188028527
4	168897	29257.743382069403	33.337628778771
4	168902	29257.968241722663	27.222285161315
4	168912	29258.67363216399	26.272622729704
4	168923	29260.827782514068	24.089896322876
4	168930	29261.557283584915	23.866961847787
4	168950	29262.171323907723	23.613707896208
4	168956	29263.353643152856	19.553523164036
4	168961	29263.427824779469	18.967872164442
4	168969	29264.16650375247	16.218729774604
4	168976	29265.183121789007	14.884151997701
4	168985	29265.637800954586	9.903545333469
4	168996	29266.410863154197	8.362586745503
4	169001	29266.923508013225	8.795023447539
4	169006	29267.925835709493	8.989538682522
4	169011	29268.686944616927	4.607942465394
4	169044	29276.95200769455	12.148979311837
4	169091	29282.180538238849	16.992850092081
4	169098	29284.580042506335	15.647078993294
4	169105	29284.915939540171	14.982351505707
4	169116	29285.330011728188	13.596279404974
4	169125	29287.441053992335	13.954757497219
4	169171	29295.760416554323	21.745714679887
4	169181	29296.335840288763	21.680300614222
4	169187	29296.724035562327	21.032198926368
4	169194	29301.005131399038	24.502562142449
4	169207	29303.027783463445	25.588206492363
4	169241	29306.162092098965	25.323227924966
4	169246	29306.374525929904	15.675985219332
4	169256	29309.257461089434	18.476870116886
4	169261	29309.444397498595	7.151175380079
4	169266	29311.170616857228	7.930713710116
4	169271	29311.754541798683	5.079735578322
4	169275	29313.282874862836	4.58815413817
4	169285	29318.096605365888	4.728084095355
4	169544	29360.765374182067	39.719543148789
4	169551	29361.507186073455	39.32308610948
4	169557	29361.988649876267	29.948751511197
4	169562	29362.137268984863	19.799316966547
4	169569	29362.282630457884	13.956572174258
4	169574	29362.484617174843	8.359269264055
4	169582	29365.774958698273	10.839035787959
4	169593	29366.126883713714	10.054933528583
4	169606	29373.200905000599	12.119852639883
4	169708	29391.124819155645	7.993028915231
4	169722	29392.001252079587	8.353044856472
4	169745	29393.92707987694	10.259031349568
4	169750	29394.258677139302	6.948531701454
4	169760	29396.710149848486	9.160442208557
4	169791	29403.574086589711	13.089815846466
4	169978	29431.993092379439	39.850795576534
4	169983	29432.224099121202	38.502181197515
4	169993	29434.072640027199	38.850797422406
4	169999	29435.225233335268	36.893061473081
4	170005	29436.112983591614	37.075515541489
4	170014	29438.292141152223	37.911214767925
4	170035	29440.736378565395	37.113132755877
4	170048	29441.424351102082	37.142117843752
4	170053	29442.393397844332	33.726131473844
4	170058	29443.457580574069	31.420013742361
4	170065	29443.958943865503	27.564907494303
4	170083	29445.721674671679	29.062944786659
4	170119	29448.211601274063	29.579070699446
4	170133	29450.995422280199	32.24457397699
4	170144	29453.290163204129	29.518533103925
4	170150	29454.317656762318	27.512572661855
4	170161	29457.415050316182	29.416315494996
4	170203	29463.287975281893	34.988679945661
4	170244	29468.322728384863	38.774998475719
4	170258	29469.400819395562	36.554608465881
4	170268	29469.973934721697	19.478747617315
4	170279	29470.866198746105	13.692420695838
4	170289	29471.716275827524	8.359586425989
4	170296	29474.011824537245	3.759715843054
4	170330	29479.773541261441	1.044824339155
4	170347	29483.233197133746	2.854752169544
4	170370	29485.585372022014	0.258493898924
4	170384	29488.278574278434	0.38849560873
4	170421	29492.561928610679	2.075538385087
4	170442	29495.906795567132	4.5167861984
4	170456	29497.980277447759	1.524734926132
4	170493	29506.311519410358	2.651662499162
4	170497	29506.633045184841	1.810382491403
4	170550	29512.64368953963	2.319234179399
4	170602	29518.366417208615	3.437795697484
4	170609	29518.995028650455	4.025777106757
4	170630	29523.176622019891	2.682378791819
4	170693	29534.228996109882	0.030568853234
4	170711	29541.064545828317	3.647329269602
4	170726	29542.129088990781	3.341113238004
4	170747	29545.083588477475	1.622862051803
4	170813	29554.979071094608	5.162074268169
4	170821	29555.607915546661	3.15474249876
4	170828	29556.574478993029	3.649943625094
4	170837	29559.307672765459	5.888907877242
4	170857	29564.6495710671	9.363133421109
4	170872	29566.656246567234	5.020824879402
4	170904	29570.305973498597	6.987965461634
4	170934	29574.526717645832	6.805956166132
4	170941	29574.995689151097	6.426211266132
4	170945	29575.248304036031	1.844146907661
4	171032	29584.257458068891	7.768572651068
4	171054	29589.058040009181	3.527286365886
4	171062	29590.172015146688	3.777272433508
4	171144	29606.624125436585	11.703355189053
4	171154	29610.050808976999	14.651316265675
4	171160	29611.385545108058	15.085719847559
4	171169	29612.955026617787	10.237289084078
4	171180	29613.732676198124	8.979653298128
4	171233	29621.998196734986	8.970129628882
4	171245	29622.913958852517	7.194753637126
4	171271	29628.053300623701	1.233466276826
4	171294	29632.023323547767	0.228335699385
4	171324	29638.075449046406	2.634512823358
4	171336	29639.220071663798	2.70631776766
4	171345	29641.249637693488	2.961133344769
4	171379	29646.139574504683	6.39296270421
4	171396	29650.431717634549	6.902876087122
4	171413	29654.896571324813	8.908736684172
4	171417	29656.144014012783	9.194530401807
4	171448	29659.803703329089	0.345374609173
4	171476	29665.374655459178	0.642813142109
4	171491	29669.757897244782	1.052493313853
4	171499	29670.955770825534	0.934732044666
4	171523	29673.772435061032	1.752266990955
4	171588	29684.725646339811	7.49072157799
4	171634	29698.185336786256	9.951277520346
4	171681	29702.54050089783	13.599917658427
4	171691	29703.703516963278	11.556846955784
4	171698	29705.016502114569	12.474850546042
4	171708	29705.410066675389	2.768082909015
4	171719	29707.283617747261	0.436610896877
4	171738	29709.579171935068	2.220262587306
4	171766	29713.11906120788	4.647016341791
4	171782	29716.774839156778	4.462474542692
4	171786	29717.031082222171	2.330706009327
4	171799	29719.391806845477	1.02981582418
4	171834	29722.614382444328	4.078435275419
4	171875	29727.578202104785	0.437047375604
4	171903	29731.380416341245	3.099511095636
4	171910	29733.738218872372	4.006846575544
4	171914	29734.796074858584	3.161712738797
4	171930	29737.618726773828	1.952951252149
4	171955	29741.450481568197	5.259755024318
4	171970	29743.396723341922	0.417968238378
4	172013	29753.744056729321	0.46172414271
4	172026	29755.447681725808	1.0913151607
4	172051	29756.99354211633	0.652543455991
4	172083	29763.896337825369	1.495641676768
4	172116	29776.003963452854	0.654562370155
4	172137	29781.919219965878	1.316243444247
4	172256	29800.638270481602	12.083113023981
4	172265	29802.623813541189	8.705573395609
4	172277	29804.238962118174	8.779391029358
4	172292	29807.84590545349	6.373601835889
4	172365	29815.667826860584	11.614229486166
4	172399	29819.824345241682	5.700300038216
4	172403	29820.877318257916	1.577305244614
4	172410	29821.581487818327	0.223892920903
4	172430	29828.531174530926	0.30754573971
4	172439	29829.736110846884	0.542801451103
4	172457	29831.988674262775	1.258933839458
4	172474	29833.10107791083	0.176663034982
4	172490	29838.715158559608	1.663945280316
4	172513	29848.19778271243	2.278449002433
4	172539	29851.997437275932	1.761518958539
4	172571	29854.983261851169	3.54044391599
4	172575	29855.720904694338	1.645897495685
4	172583	29856.389311509612	0.370139135949
4	172625	29865.478207898488	1.098283276262
4	172656	29873.90375164228	0.071910048435
4	172666	29876.459525490709	2.13069054021
4	172709	29884.471620923332	0.470820266467
4	172726	29888.644246288293	2.218348725562
4	172738	29889.822226736519	2.115070725825
4	172756	29891.193975168357	0.648892020438
4	172784	29894.959356833438	2.161242097137
4	172808	29898.230536358562	2.229452560102
4	172816	29898.770343885378	0.144209114731
4	172989	29930.528553059369	11.66954959143
4	172997	29931.276406765811	11.170039822246
4	173016	29933.388180775804	13.16340326709
4	173022	29934.657530911509	12.050254000567
4	173027	29935.69593929354	10.172638103451
4	173040	29938.209241689623	8.332691930273
4	173048	29938.946272335159	7.245266943386
4	173064	29941.820338406051	4.564263939062
4	173078	29946.220728196546	8.375551661259
4	173083	29946.509061133759	5.337448164394
4	173092	29947.861033811381	4.805210170669
4	173108	29951.751285421359	5.194523327376
4	173141	29955.741758900294	4.840785142416
4	173175	29959.806180420845	2.464918361128
4	173190	29963.5669142903	2.892280458018
4	173196	29964.10937249173	3.335195227354
4	173203	29965.826130367459	3.537163052607
4	173260	29976.887316146675	7.751019963937
4	173271	29977.303723307105	6.219877693892
4	173276	29977.325854732351	6.239595207463
4	173361	29992.370912355839	6.563553131527
4	173379	29993.618320178295	5.354364990064
4	173385	29993.984929775206	4.809549509513
4	173398	29996.168892572271	2.737428875039

