version 2
run First-n5-11-20191016-14:52:58-13964
attr configname First-n5
attr datetime 20191016-14:52:58
attr experiment First-n5
attr inifile omnetpp.ini
attr iterationvars ""
attr iterationvarsf ""
attr measurement ""
attr network org.omnetpp.queueing.Pizza
attr processid 13964
attr repetition 11
attr replication ""
attr resultdir results
attr runnumber 11
attr seedset 11
param **.PS.maxInventoriedPS 5
param **.U1.interArrivalTime exponential(2s)
param **.U2.interArrivalTime exponential(4s)
param **.PS.serviceTimeForInventoryU1 exponential(0.8s)
param **.PS.serviceTimeForInventoryU2 exponential(1.0s)
param **.PS.serviceTimeDirectU1 exponential(1.2s)
param **.PS.serviceTimeDirectU2 exponential(1.4s)
param **.PS.probabilityProducing 0.5
param **.CS.serviceTimeU1 exponential(0.8s)
param **.CS.serviceTimeU2 exponential(1.0s)

vector 0 Pizza.EntryQueueU1 queueLength:vector ETV
attr interpolationmode sample-hold
attr title "queue length, vector"
vector 1 Pizza.CS queueLength:vector ETV
attr interpolationmode sample-hold
attr title "queue length, vector"
vector 2 Pizza.EntryQueueU2 queueLength:vector ETV
attr interpolationmode sample-hold
attr title "queue length, vector"
vector 3 Pizza.sink lifeTime:vector ETV
attr interpolationmode none
attr title "lifetime of arrived jobs, vector"
attr unit s
vector 4 Pizza.sink lifeTimeU2:vector ETV
attr interpolationmode none
attr title "lifetime of arrived jobs, vector"
attr unit s
0	0	0	0
0	7	0.397559776347	1
0	9	0.82918977245	2
0	12	1.924040615244	1
0	21	3.410677649658	2
0	23	3.605489874977	3
0	25	4.534659223345	2
0	31	5.118339758079	1
0	36	5.262681591808	0
0	48	7.410359181033	1
0	50	7.754101433183	2
0	52	7.805043269295	3
0	58	10.650790573663	4
0	61	11.353524261599	3
0	66	11.399351054945	2
0	71	11.436106481422	1
0	77	12.943095776975	0
0	91	14.641053681864	1
0	93	15.466196427651	2
0	94	15.978311796129	1
0	102	16.793990044111	2
0	105	17.230769171889	3
0	106	17.251730679433	2
0	111	17.256544882674	1
0	117	18.000235323262	2
0	118	18.505448400268	1
0	125	19.764015673012	0
0	131	20.263730570707	1
0	133	20.367750075319	2
0	134	20.529744156978	1
0	138	21.264965720767	2
0	142	21.634777024198	3
0	148	22.781033617187	4
0	153	23.040462489084	3
0	161	25.773225533957	2
0	166	26.330584487031	1
0	171	27.316297792618	0
0	203	32.980559599538	1
0	205	33.168268560753	2
0	206	33.306162367186	1
0	212	33.399860107465	0
0	221	34.406353788605	1
0	224	35.368803744881	0
0	230	36.356493574775	1
0	232	36.44092035999	0
0	238	36.726813876195	1
0	239	36.748520939757	0
0	260	39.376933910571	1
0	261	39.394345373889	0
0	265	39.603744414807	1
0	267	40.073392124875	2
0	271	41.396595300669	1
0	277	42.223334138315	2
0	279	42.94287841983	3
0	283	43.648118731261	2
0	288	43.933623278764	1
0	295	44.210278880713	0
0	301	47.128863745104	1
0	308	49.091721749416	2
0	309	49.443746271231	1
0	315	50.05407680205	0
0	323	51.88693825233	1
0	325	52.708333564815	0
0	333	53.350746459421	1
0	337	54.991941038443	0
0	346	57.03854447219	1
0	349	57.829156568271	0
0	374	61.898802006954	1
0	377	63.249042179446	2
0	383	65.054480725786	1
0	388	65.054618539683	0
0	413	68.629913315355	1
0	414	69.314847928718	0
0	448	71.295871518317	1
0	451	73.156223966923	2
0	452	74.118218071584	1
0	462	76.095049546445	0
0	468	76.332143230294	1
0	469	76.856522380303	0
0	487	78.419095766955	1
0	489	78.582339914942	2
0	490	78.774579495985	1
0	496	79.754321729354	0
0	510	81.499831410458	1
0	512	81.95042680868	0
0	519	82.187738032055	1
0	522	82.6961199512	0
0	552	85.524976099486	1
0	556	86.076445513057	0
0	569	87.011083505279	1
0	571	87.314185357895	2
0	572	88.143964639499	1
0	581	89.405084691541	0
0	599	91.038895049787	1
0	600	91.089346479121	0
0	640	96.262860236086	1
0	646	98.897046679136	2
0	647	99.012926743333	1
0	652	99.468244487204	0
0	663	101.74205157618	1
0	666	102.029391215363	0
0	678	103.540996768965	1
0	681	104.594362588897	0
0	688	105.600583535657	1
0	689	105.870059461021	0
0	705	110.522271829865	1
0	709	110.970468596969	0
0	721	111.266828927734	1
0	723	111.511643399062	2
0	725	114.293416207235	1
0	731	114.84922415444	2
0	732	115.006734961052	1
0	739	117.117803983034	2
0	741	117.514204362838	3
0	742	117.877279815107	2
0	747	118.181690054782	1
0	753	118.483947192972	0
0	759	119.142219213212	1
0	760	121.460594603469	0
0	783	129.301054170095	1
0	785	129.45172846758	2
0	787	129.605829636747	3
0	789	130.550104681129	4
0	793	132.141257333287	3
0	802	132.937192861255	2
0	808	133.784271904322	1
0	813	134.040799317136	0
0	819	134.219789991272	1
0	820	134.280910915416	0
0	842	137.373119636439	1
0	844	137.509140794288	2
0	847	138.11998154168	3
0	848	138.348908677778	2
0	855	138.74695684782	1
0	861	140.117269830601	0
0	870	141.256712402123	1
0	872	141.335017703728	2
0	874	141.952661520357	3
0	876	141.95879917346	4
0	877	142.002627530332	3
0	885	142.483633839259	2
0	891	143.61560434088	3
0	892	143.948001191121	2
0	897	144.196413671042	1
0	901	144.803897033153	2
0	904	145.811689826502	1
0	908	146.489716409236	2
0	911	147.90090569989	1
0	918	149.202518535813	0
0	924	150.763936514952	1
0	928	151.452702282916	2
0	929	151.638741311053	1
0	939	154.047790140609	2
0	941	154.171033786952	3
0	942	154.432980157512	2
0	946	154.540029109646	3
0	950	155.175641767038	4
0	953	155.657686308173	3
0	961	156.331626216976	4
0	963	157.634546355633	5
0	964	157.712185501915	4
0	968	158.472248377124	5
0	974	160.865348946546	4
0	979	160.970511612805	3
0	984	162.886846321123	2
0	993	164.736678760445	3
0	995	164.820038226006	4
0	998	164.98006399076	5
0	999	165.595362233487	4
0	1004	166.18870131711	3
0	1009	166.682667376621	2
0	1013	166.808436009521	3
0	1015	167.058377838342	4
0	1018	167.819374348119	3
0	1025	168.165232186994	2
0	1030	168.889551640656	1
0	1034	168.989134311252	2
0	1037	172.448015534556	1
0	1043	174.61559649421	2
0	1044	175.399367695147	1
0	1052	179.718780732653	0
0	1058	180.82825561085	1
0	1060	181.05973162469	2
0	1062	181.209228623592	3
0	1063	181.951551951935	2
0	1068	182.773055699442	1
0	1074	183.254095487098	0
0	1093	184.34956491458	1
0	1095	184.631612403311	0
0	1112	187.148886206624	1
0	1114	187.210579538525	2
0	1117	187.501328660468	1
0	1122	187.542147193668	0
0	1163	193.912265851551	1
0	1164	194.639718195314	0
0	1172	195.984105046435	1
0	1173	196.350092733894	0
0	1198	200.132604424395	1
0	1199	200.148168211947	0
0	1222	201.947832642063	1
0	1223	202.111304428734	0
0	1255	205.248014947519	1
0	1256	205.611166548791	0
0	1268	208.040215874002	1
0	1269	208.485637645729	0
0	1278	209.103772118165	1
0	1280	209.117263003339	2
0	1282	212.774527483883	3
0	1288	214.13538727558	4
0	1292	217.551299517574	5
0	1293	217.859357524412	4
0	1298	218.263241323514	3
0	1303	218.413905516042	2
0	1311	220.152136671482	1
0	1317	221.093564388158	0
0	1329	222.294306410342	1
0	1330	222.953658115903	0
0	1343	223.325826564443	1
0	1346	223.894414082697	2
0	1348	223.957108821607	3
0	1349	224.138602009209	2
0	1356	225.39913837617	1
0	1361	225.746696572496	0
0	1385	229.864230430921	1
0	1388	230.190919768417	0
0	1400	232.428107742025	1
0	1403	233.141190230269	0
0	1419	235.753009569712	1
0	1420	236.921732108671	0
0	1441	240.401233456043	1
0	1442	240.42694401307	0
0	1463	243.13723894149	1
0	1464	243.256137911583	0
0	1492	248.108103553593	1
0	1497	250.883582703974	2
0	1500	252.086514082413	1
0	1505	252.747628376604	0
0	1516	252.918018300029	1
0	1520	253.806140577092	2
0	1522	254.15093817123	1
0	1528	254.643410501987	2
0	1530	255.870057648932	3
0	1531	256.318080627654	2
0	1536	256.548766115	1
0	1542	257.010786515597	0
0	1548	257.589011932113	1
0	1549	257.909003497042	0
0	1575	262.726614409836	1
0	1579	263.947648451083	0
0	1592	264.405815449073	1
0	1593	264.605651617444	0
0	1634	274.403778563449	1
0	1636	274.81979084845	0
0	1650	276.013282560104	1
0	1651	276.100238073611	0
0	1690	283.649753989411	1
0	1691	283.79677437267	0
0	1706	285.406912265291	1
0	1707	285.502955209223	0
0	1715	285.749779662555	1
0	1716	286.848298468499	0
0	1739	289.593424033764	1
0	1742	290.432955699784	0
0	1749	291.966548034774	1
0	1751	292.439397474961	2
0	1755	293.806613698296	1
0	1760	294.558588767326	0
0	1776	296.584881150887	1
0	1781	298.404063386066	0
0	1794	298.823009315421	1
0	1797	299.555484419565	2
0	1798	300.125860024313	1
0	1804	301.728158726905	2
0	1806	301.736007203557	3
0	1807	301.79145581853	2
0	1813	303.045685145967	3
0	1816	304.085207802179	2
0	1822	304.142613931538	3
0	1825	304.2598563539	2
0	1831	304.301040806104	3
0	1833	304.925595663794	4
0	1834	304.937755020516	3
0	1840	305.089182113313	4
0	1841	306.072639682085	3
0	1846	306.102671886221	2
0	1850	306.127066427184	3
0	1853	307.548527948421	2
0	1857	308.513509409032	3
0	1860	309.109651388517	2
0	1864	310.67022327301	3
0	1868	311.067264162424	2
0	1874	311.125553562561	3
0	1875	311.451709358772	2
0	1880	312.169732325137	1
0	1886	314.828721124987	2
0	1888	315.05698039584	3
0	1891	315.363682410716	2
0	1896	316.338599052522	1
0	1900	318.114266863331	2
0	1903	318.889392924943	1
0	1907	319.164532115129	2
0	1915	321.386159784867	1
0	1920	321.40627424872	0
0	1926	323.226319428038	1
0	1928	323.770412012857	2
0	1930	324.62277411863	3
0	1933	324.902137962841	2
0	1943	326.453505071218	1
0	1949	327.688123167935	0
0	1999	334.373499544827	1
0	2000	337.335186269873	0
0	2011	337.919994159152	1
0	2016	338.508329850306	2
0	2026	340.771458048443	3
0	2027	342.9127387472	2
0	2032	343.052400430931	1
0	2037	343.403898168223	0
0	2050	345.583281722708	1
0	2058	349.226485206274	2
0	2062	352.849802909966	3
0	2065	353.932370083112	2
0	2071	354.103444236715	3
0	2074	354.86470348768	2
0	2079	356.404634065913	1
0	2086	356.612648901124	0
0	2092	357.137328210067	1
0	2096	357.997687458366	2
0	2097	358.166016562287	1
0	2102	359.85985738396	0
0	2115	360.291610599066	1
0	2116	360.365388497408	0
0	2123	362.296089801278	1
0	2124	362.44458521679	0
0	2128	363.178538512166	1
0	2132	366.154936312188	0
0	2138	366.76877673342	1
0	2140	367.375576523695	0
0	2152	370.348999029238	1
0	2154	370.506246595235	2
0	2157	371.24773961659	1
0	2162	371.76170375313	0
0	2174	372.967692919181	1
0	2176	373.117875411726	2
0	2181	373.841249289909	3
0	2186	375.179167200412	2
0	2191	375.889495512557	1
0	2195	376.034795619937	2
0	2198	376.892221707841	1
0	2205	377.59854675045	0
0	2237	380.780785443011	1
0	2242	382.081558650145	2
0	2244	382.08939741093	3
0	2245	383.552846251796	2
0	2256	385.922439524836	1
0	2262	386.152735783637	0
0	2282	389.135270339225	1
0	2283	389.24130282816	0
0	2317	391.344084021167	1
0	2321	392.615422531908	0
0	2344	394.265650768518	1
0	2352	395.763302443899	2
0	2356	398.859878459564	1
0	2362	398.919091052972	2
0	2365	399.740840684658	3
0	2366	399.966359979964	2
0	2372	400.927217987362	1
0	2377	401.217384465243	0
0	2412	406.442976838254	1
0	2416	407.788759850379	0
0	2423	408.341277919813	1
0	2424	408.926612603625	0
0	2430	408.966333573795	1
0	2434	410.049378914316	0
0	2440	410.238868038319	1
0	2442	411.250351502852	2
0	2443	411.533358169492	1
0	2450	411.811808237239	0
0	2456	413.088606039225	1
0	2458	413.388741016756	2
0	2460	413.857033742587	3
0	2464	415.164714415656	2
0	2470	416.220548710267	3
0	2473	417.209155890492	2
0	2481	418.406188734847	3
0	2483	419.3178172178	2
0	2491	419.666763387726	1
0	2496	420.284422013591	0
0	2512	420.485033552994	1
0	2513	420.783777035826	0
0	2521	422.172632063048	1
0	2523	422.411040579388	2
0	2525	422.754472549011	3
0	2527	422.79262392648	4
0	2531	423.047725635739	5
0	2537	424.10705080674	6
0	2538	426.140986541851	5
0	2546	428.50708392543	6
0	2548	428.622484756286	7
0	2550	428.997965144416	6
0	2555	430.66202243568	5
0	2561	431.539956985896	4
0	2566	432.100666389918	3
0	2572	433.96585454852	4
0	2579	434.368983425498	5
0	2580	435.128254766282	4
0	2586	435.171735536914	5
0	2587	435.188798983444	4
0	2593	435.857639563852	5
0	2600	438.719420577129	6
0	2603	439.577450672196	5
0	2608	439.956227404433	4
0	2615	441.67603417475	3
0	2620	443.489740453954	2
0	2625	444.411251808259	1
0	2631	445.336640263217	0
0	2645	448.238807185448	1
0	2647	448.617809148944	2
0	2649	450.147127431072	3
0	2651	450.688179602072	4
0	2653	450.926528675282	5
0	2654	451.617021462777	4
0	2658	451.769428032294	5
0	2663	453.907235972617	4
0	2667	454.050765366553	5
0	2670	455.705814564615	4
0	2674	455.705907423062	5
0	2681	458.598725947586	4
0	2686	459.644476777448	3
0	2693	460.959551560386	2
0	2698	462.001770152046	1
0	2703	463.184125008961	0
0	2711	464.478700336735	1
0	2712	464.516365674867	0
0	2746	468.357973550366	1
0	2748	468.848116960849	2
0	2750	470.453737702797	1
0	2755	470.810309712424	0
0	2768	474.144311010073	1
0	2771	475.271430256478	2
0	2772	475.863774709493	1
0	2779	476.320470800703	0
0	2790	477.693952996158	1
0	2791	477.824241294649	0
0	2836	486.874765370245	1
0	2842	489.30170744753	2
0	2847	490.866475420343	1
0	2853	491.078270482001	2
0	2857	492.574135874093	3
0	2858	492.605347466026	2
0	2864	492.829487139265	3
0	2868	493.334428961981	2
0	2874	493.341771070738	3
0	2875	493.503775005077	2
0	2880	493.914197840792	1
0	2889	496.316288842608	2
0	2897	499.224400298216	1
0	2903	499.332145220691	2
0	2904	499.730167343151	1
0	2912	501.011898241916	0
0	2934	502.342273435602	1
0	2939	503.623839879514	0
0	2945	504.062133121589	1
0	2946	504.123365256681	0
0	2953	504.505102100088	1
0	2955	505.317515482069	0
0	2997	509.62759733329	1
0	3000	509.69133064208	0
0	3013	511.050022973466	1
0	3017	511.592743883006	2
0	3018	511.849273483365	1
0	3023	512.795995875162	0
0	3036	513.253643474826	1
0	3037	514.174380106248	0
0	3068	516.614963479656	1
0	3070	516.759813881878	2
0	3072	516.769557850129	3
0	3075	517.533029477244	2
0	3083	519.084699707442	1
0	3088	519.157183581315	0
0	3117	522.175050451313	1
0	3118	523.406158338438	0
0	3140	526.328655759284	1
0	3149	528.710548575148	2
0	3150	528.830238025273	1
0	3155	528.872294936722	0
0	3195	536.062054285533	1
0	3199	536.520122492813	2
0	3202	537.029788971386	3
0	3203	537.03048408359	2
0	3211	537.240790921373	1
0	3218	538.143843524323	2
0	3219	538.184367229795	1
0	3226	538.593443541641	2
0	3227	540.361618484626	1
0	3233	540.675917876455	0
0	3246	541.377108531639	1
0	3247	541.704152262786	0
0	3303	549.352273421494	1
0	3304	550.223405320954	0
0	3357	564.612879261079	1
0	3358	564.860172872096	0
0	3364	565.556929199533	1
0	3365	565.911654145994	0
0	3400	572.752926390421	1
0	3402	573.103613218409	0
0	3409	573.959439281573	1
0	3411	574.296679657279	0
0	3459	585.274379343522	1
0	3460	585.831358610578	0
0	3473	587.892250223815	1
0	3474	587.988797963647	0
0	3480	588.412928321326	1
0	3483	590.145632111117	0
0	3496	592.196442449317	1
0	3497	594.165040212617	0
0	3540	610.991144361002	1
0	3545	611.940311901842	2
0	3546	612.117333220562	1
0	3551	612.344768141234	0
0	3555	613.026935396775	1
0	3558	613.32496826929	0
0	3562	613.346850833605	1
0	3565	614.990840969405	0
0	3612	625.628371631469	1
0	3615	625.912666880354	0
0	3658	633.042165836108	1
0	3660	633.78875726883	2
0	3663	634.057200823875	1
0	3669	634.379273917815	0
0	3780	651.12637271115	1
0	3781	651.28450260457	0
0	3803	657.893583413014	1
0	3804	658.752731316589	0
0	3819	661.275740091598	1
0	3820	661.700039632793	0
0	3871	674.729180666143	1
0	3872	676.110512840367	0
0	3884	676.751992547597	1
0	3885	676.994168816403	0
0	3893	677.885776905575	1
0	3894	678.309463419024	0
0	3901	678.815517812576	1
0	3902	678.88686163388	0
0	3926	683.387103459935	1
0	3927	683.50553061944	0
0	3962	690.767421568051	1
0	3963	690.837524358978	0
0	3990	698.730805231755	1
0	3994	700.367485915345	2
0	4000	701.29063602948	3
0	4003	701.778605758561	4
0	4004	702.452171211527	3
0	4010	704.203154940425	2
0	4018	704.410281461334	3
0	4019	704.723740059346	2
0	4028	706.656294187064	3
0	4029	707.519475222797	2
0	4034	707.987760655593	1
0	4039	710.731852112342	0
0	4058	714.930912296647	1
0	4060	715.269567055889	0
0	4067	715.637101907692	1
0	4068	716.940201280069	0
0	4086	721.990944995275	1
0	4088	722.031177672276	2
0	4091	722.320162966299	1
0	4097	722.713165275519	0
0	4149	734.317213185422	1
0	4150	734.796854742365	0
0	4200	739.589808574852	1
0	4204	741.41707214058	0
0	4231	744.228100552496	1
0	4233	745.676974561282	0
0	4246	746.479246801828	1
0	4248	746.513320014023	0
0	4278	755.075939388812	1
0	4279	755.443845113501	0
0	4374	776.656901165923	1
0	4375	777.055018812649	0
0	4419	785.402714300252	1
0	4422	786.146029720202	2
0	4424	786.503469572088	3
0	4425	786.504070142951	2
0	4430	786.596222374557	1
0	4436	787.319391029386	0
0	4492	796.596290988483	1
0	4494	797.626459722423	2
0	4496	798.111199042355	1
0	4502	798.780837468546	2
0	4505	799.242121417583	3
0	4506	799.526205191802	2
0	4511	800.186988848157	1
0	4516	800.435101321323	0
0	4523	800.789734863786	1
0	4525	800.93408871707	2
0	4527	801.448641515837	3
0	4528	801.519425994709	2
0	4533	801.813768822515	1
0	4541	803.365089193978	0
0	4577	811.262871203401	1
0	4578	811.468718492129	0
0	4596	812.898481112625	1
0	4599	814.190861216245	2
0	4600	814.406410675495	1
0	4606	814.531159886348	2
0	4608	815.035431319653	1
0	4613	815.229877454139	0
0	4619	815.265581935126	1
0	4621	815.543665722868	2
0	4626	816.171528123686	3
0	4627	816.6130609876	2
0	4632	816.755769608399	1
0	4636	817.84560130072	2
0	4638	818.250119445155	3
0	4645	820.011305188919	2
0	4650	821.202962355213	1
0	4655	821.480937908592	0
0	4659	822.598523554652	1
0	4661	823.117194604464	2
0	4664	823.277730694555	1
0	4668	824.351850711679	2
0	4671	825.690117406501	1
0	4676	827.702053731795	0
0	4680	828.377246925926	1
0	4684	829.221213314032	2
0	4686	829.356319179628	3
0	4687	829.429221080025	2
0	4692	832.76309618939	1
0	4696	834.102313014737	2
0	4699	834.925162814146	1
0	4703	835.098108030444	2
0	4707	839.704161221296	1
0	4712	840.368156372229	0
0	4725	841.886829783385	1
0	4727	843.777385669718	0
0	4818	861.384771427562	1
0	4819	861.904750533613	0
0	4834	864.904340048653	1
0	4835	864.965630926189	0
0	4915	882.760273204052	1
0	4917	883.257225672585	2
0	4919	883.53791703049	3
0	4921	883.655476598202	2
0	4927	883.881427749896	3
0	4929	884.182364730373	4
0	4930	885.474939240591	3
0	4936	885.656932840329	4
0	4939	887.887994348904	3
0	4946	888.113048340215	4
0	4947	888.219846175822	3
0	4952	888.371633704335	2
0	4958	888.733171375297	3
0	4961	890.38634041506	4
0	4963	891.108650206951	5
0	4964	891.197627498796	4
0	4971	891.784636213532	3
0	4976	894.254144061745	2
0	4981	894.294055756868	1
0	4986	894.654678612275	0
0	4992	897.158820551845	1
0	4997	897.819822082498	0
0	5001	898.418275711296	1
0	5006	899.704518486514	0
0	5012	899.88291757049	1
0	5016	900.418439492361	0
0	5028	901.535740718829	1
0	5030	902.071554659243	2
0	5032	902.240653820614	3
0	5034	902.310513213451	4
0	5041	906.761637510214	3
0	5046	907.404743435002	2
0	5051	907.621508115032	1
0	5056	908.285621583875	0
0	5121	920.339053712144	1
0	5124	920.922723155597	0
0	5160	925.356143944939	1
0	5161	925.505485935776	0
0	5167	925.624063946702	1
0	5169	926.707921559893	2
0	5174	927.750849519884	3
0	5176	929.562531826401	4
0	5177	929.980670434502	3
0	5182	930.257894484434	2
0	5187	930.913663768133	1
0	5193	931.192318742412	2
0	5194	931.554149221541	1
0	5203	933.632170719531	2
0	5204	933.781923869592	1
0	5209	934.52097381789	0
0	5225	935.92812097959	1
0	5227	936.152479958018	2
0	5233	937.812933047817	1
0	5239	938.212504690566	0
0	5243	939.072500781102	1
0	5245	940.434109382296	2
0	5248	942.007523743316	1
0	5254	945.118459503204	2
0	5255	945.992656957297	1
0	5262	947.667654716874	0
0	5281	949.768860462263	1
0	5284	950.894607246457	2
0	5286	951.158359105092	1
0	5292	951.178719769827	2
0	5294	951.237040740583	3
0	5295	951.591645946973	2
0	5300	952.179972116975	1
0	5304	952.185350991913	2
0	5310	953.35184038433	1
0	5315	953.587147216701	0
0	5369	960.184321062216	1
0	5370	960.235344738259	0
0	5376	960.489525147493	1
0	5377	960.580349537059	0
0	5388	961.102778014251	1
0	5391	961.868521330011	2
0	5393	962.968992551456	3
0	5394	963.37663100202	2
0	5401	964.683703830748	3
0	5402	964.737769692436	2
0	5408	966.109567976465	1
0	5413	966.378548001359	0
0	5425	967.106212643857	1
0	5428	968.114004285052	0
0	5446	971.482835991305	1
0	5447	971.707701723947	0
0	5524	989.63766058559	1
0	5525	989.830026852465	0
0	5542	992.802975915467	1
0	5544	992.982486654066	2
0	5546	993.708377195282	1
0	5552	995.292809293919	2
0	5556	998.324546983601	1
0	5561	998.330437277165	0
0	5577	999.166115021167	1
0	5584	1000.224183721604	0
0	5590	1000.966764653668	1
0	5595	1002.231965747521	0
0	5607	1004.143508322099	1
0	5609	1005.098560740513	0
0	5627	1007.009534901138	1
0	5629	1007.026995945019	2
0	5631	1007.262018669651	3
0	5634	1009.655755714467	2
0	5639	1009.70961884758	1
0	5644	1010.422271407694	0
0	5692	1020.50831264879	1
0	5694	1020.556387052596	2
0	5697	1020.583822956522	1
0	5702	1021.029498702981	0
0	5747	1029.51242746544	1
0	5750	1030.30005297358	2
0	5751	1030.414737572474	1
0	5757	1031.118074246866	0
0	5764	1031.786442928348	1
0	5765	1032.066632867001	0
0	5778	1033.373144945689	1
0	5780	1034.556645402996	0
0	5829	1049.012745397827	1
0	5833	1051.194442268301	2
0	5834	1051.195678566865	1
0	5838	1051.670683813203	2
0	5840	1051.693620948334	3
0	5842	1052.08132719025	4
0	5854	1055.509275050627	3
0	5859	1055.817201307647	2
0	5865	1055.836584501037	3
0	5867	1056.147747622819	4
0	5869	1056.637600417346	3
0	5874	1057.589448705285	2
0	5879	1058.181838903555	1
0	5883	1058.432260858886	2
0	5885	1058.597203770062	3
0	5887	1059.602297697136	4
0	5891	1061.209765567741	3
0	5896	1061.633064785618	2
0	5900	1062.082855269759	3
0	5902	1062.086744585458	4
0	5906	1062.626372965823	5
0	5908	1063.22911729596	6
0	5911	1066.784290040281	5
0	5916	1067.185238431069	4
0	5925	1067.768289047505	5
0	5931	1068.860769936233	6
0	5932	1068.983619014649	5
0	5937	1069.266249520815	4
0	5943	1069.911216868745	5
0	5945	1070.513071493143	6
0	5949	1070.87934359956	7
0	5951	1072.400443736632	8
0	5954	1074.079310293905	7
0	5959	1074.64352074746	6
0	5967	1075.779000866754	5
0	5973	1077.369023752277	4
0	5979	1077.5045931993	5
0	5980	1077.595718553542	4
0	5984	1078.995348906067	5
0	5987	1080.876277847633	4
0	5991	1082.647047666787	5
0	5997	1083.13758708079	6
0	6000	1083.61713227959	7
0	6003	1084.047399624936	8
0	6008	1085.133590289558	7
0	6014	1085.25231991421	8
0	6016	1085.291114387797	9
0	6019	1087.220416793138	8
0	6025	1088.274169417257	9
0	6027	1089.574343268227	10
0	6028	1089.896709749113	9
0	6034	1090.196153351911	10
0	6035	1091.25080169842	9
0	6041	1092.026400307746	8
0	6047	1092.226131292533	9
0	6048	1092.378848136153	8
0	6053	1095.556642646482	7
0	6058	1096.271785380985	6
0	6062	1096.385207109347	7
0	6064	1096.790672503971	8
0	6067	1097.569201663682	7
0	6072	1098.41378635998	6
0	6081	1105.060107418984	5
0	6085	1105.519555826752	6
0	6090	1105.82740582415	5
0	6094	1106.093985914317	6
0	6096	1107.95494383142	7
0	6103	1112.628775870144	6
0	6107	1114.357551070296	7
0	6111	1116.519289233157	8
0	6113	1117.602837879455	9
0	6115	1117.820106267251	10
0	6116	1118.070256411197	9
0	6122	1120.240538003768	10
0	6123	1120.302225542724	9
0	6128	1121.901776522354	8
0	6136	1122.996022591597	9
0	6139	1123.721655350552	8
0	6145	1124.453392220586	9
0	6147	1124.756289365355	10
0	6148	1125.375011687759	9
0	6152	1125.841217625313	10
0	6156	1127.52479720862	9
0	6162	1128.29073662509	8
0	6167	1128.689614669066	7
0	6171	1128.787466411709	8
0	6178	1131.241238568385	7
0	6183	1131.983828694927	6
0	6187	1132.981046805666	7
0	6191	1133.729997975686	8
0	6196	1136.336615781257	7
0	6202	1136.735588672981	8
0	6204	1136.856316516964	9
0	6207	1137.498390971518	8
0	6222	1139.792666392379	7
0	6226	1140.519399987212	8
0	6230	1142.285776644614	9
0	6233	1143.205796360806	8
0	6237	1143.242562023451	9
0	6239	1145.216685257831	10
0	6241	1146.511222692323	11
0	6245	1149.373411193096	12
0	6247	1149.88255029466	13
0	6249	1150.798186153997	12
0	6257	1151.64448838027	11
0	6262	1151.817575625348	10
0	6266	1151.859862410552	11
0	6272	1153.163309509038	12
0	6275	1154.153961779657	13
0	6276	1154.680385633159	12
0	6281	1155.702425782952	11
0	6286	1156.775882252657	10
0	6292	1156.903592028597	11
0	6295	1158.533467158387	10
0	6299	1161.493521963405	11
0	6303	1161.977136588173	12
0	6304	1162.381681247285	11
0	6310	1166.151596477057	12
0	6312	1167.008078175084	13
0	6314	1168.815609841239	14
0	6315	1169.22267841574	13
0	6319	1170.116950492612	14
0	6322	1170.540432139591	13
0	6328	1171.488902235817	14
0	6329	1171.494954792484	13
0	6334	1171.851355964672	12
0	6339	1173.436479529555	11
0	6344	1174.157478558026	10
0	6352	1175.17629480961	11
0	6354	1175.723069397615	12
0	6355	1177.160665354652	11
0	6359	1178.429679113934	12
0	6364	1179.742903809023	11
0	6368	1181.02539784159	12
0	6372	1182.243273360816	13
0	6373	1182.301736706165	12
0	6381	1183.864612202815	13
0	6383	1184.086649684739	14
0	6384	1184.230129259902	13
0	6388	1185.481775301733	14
0	6394	1186.774434700255	13
0	6399	1186.861389880264	12
0	6405	1187.524230813936	11
0	6411	1188.081866909996	12
0	6412	1188.430082692997	11
0	6418	1188.89265283742	12
0	6420	1189.00046187074	13
0	6421	1189.216027308075	12
0	6426	1189.714940078175	11
0	6431	1190.382708538247	10
0	6435	1191.960307436015	11
0	6440	1192.99542927614	10
0	6444	1193.080865894639	11
0	6447	1193.786991936707	10
0	6451	1195.50016828461	11
0	6454	1197.839421319994	10
0	6461	1198.371140965992	9
0	6467	1199.309736845936	8
0	6475	1199.88956122177	7
0	6481	1200.315370827979	8
0	6482	1200.59487755356	7
0	6487	1200.853400336569	6
0	6492	1201.937052401632	5
0	6496	1201.985679937911	6
0	6502	1202.089520146953	7
0	6503	1202.287138502898	6
0	6508	1203.668841863332	5
0	6515	1207.173196730114	4
0	6519	1207.254336374223	5
0	6522	1208.056055895064	4
0	6530	1209.226967545658	5
0	6531	1209.851150513991	4
0	6536	1210.317053575041	3
0	6541	1210.378398374026	2
0	6546	1212.017812495609	1
0	6553	1213.278053017262	0
0	6557	1215.466868369892	1
0	6563	1216.338822805059	2
0	6565	1216.668380212505	3
0	6566	1216.780849276013	2
0	6571	1218.17812742396	1
0	6575	1218.584846283428	2
0	6577	1218.799280335231	3
0	6579	1218.969381694697	4
0	6582	1219.675885412196	3
0	6590	1222.32557078173	4
0	6592	1222.381689400242	5
0	6593	1222.522587289645	4
0	6601	1225.653158112534	5
0	6603	1225.814314941905	6
0	6604	1225.91490257761	5
0	6609	1226.107062309223	4
0	6616	1226.564135743621	3
0	6620	1226.599186898905	4
0	6623	1227.810621558819	3
0	6629	1229.59783683357	2
0	6634	1229.94088753389	1
0	6640	1232.443766467617	0
0	6647	1233.946950749602	1
0	6649	1234.413797980044	2
0	6650	1234.860522061784	1
0	6655	1235.509262472875	0
0	6697	1239.985258851211	1
0	6699	1240.486689817908	2
0	6704	1241.791170177419	1
0	6709	1241.913069309801	0
0	6719	1243.056117936386	1
0	6720	1244.009978817726	0
0	6735	1248.874548892442	1
0	6743	1250.45385170854	2
0	6747	1251.497158625044	3
0	6748	1251.625486064243	2
0	6753	1251.715517362352	1
0	6759	1252.298302414391	2
0	6760	1252.509981064609	1
0	6766	1253.49689110852	2
0	6768	1254.634928966465	3
0	6769	1255.184734309439	2
0	6774	1255.955811165773	1
0	6780	1256.425646979057	0
0	6812	1259.488582271103	1
0	6814	1259.632618305272	2
0	6816	1259.707024176308	3
0	6821	1260.448871336741	4
0	6823	1261.431348032967	5
0	6824	1261.492173053153	4
0	6830	1261.877543539091	5
0	6835	1263.206519734147	4
0	6840	1263.301481596566	3
0	6846	1263.67675725508	4
0	6849	1263.983845308098	3
0	6855	1265.048266206316	2
0	6861	1265.237542440881	1
0	6871	1266.339572667716	0
0	6893	1267.8760986938	1
0	6898	1268.528791550694	2
0	6900	1268.631118454676	3
0	6901	1269.12443503432	2
0	6907	1269.740927680403	1
0	6914	1270.274155194692	0
0	6932	1271.963691416611	1
0	6933	1272.673161568885	0
0	6947	1273.374081278345	1
0	6957	1276.387476192615	0
0	6964	1276.836544197094	1
0	6966	1276.929492899236	2
0	6967	1277.387315453582	1
0	6973	1277.889601438116	0
0	6987	1278.586284284935	1
0	6993	1279.575112596496	2
0	6994	1279.652056669655	1
0	7000	1280.585538312966	0
0	7013	1282.006678478078	1
0	7015	1283.088909223606	0
0	7025	1286.558627593975	1
0	7027	1286.985754182061	2
0	7028	1287.359916655431	1
0	7035	1288.401930311217	2
0	7037	1289.103499057256	3
0	7039	1289.266537944289	4
0	7043	1290.210477822138	3
0	7048	1290.417364598037	2
0	7053	1290.732362353317	1
0	7059	1291.476320084311	0
0	7076	1292.575171609857	1
0	7078	1292.71423532249	0
0	7087	1293.132262157882	1
0	7089	1293.272091345405	2
0	7091	1293.441407492606	3
0	7094	1293.739993835608	2
0	7101	1294.05039977508	3
0	7102	1294.483214977746	2
0	7109	1295.780037878985	3
0	7110	1295.885029367649	2
0	7118	1296.864357968158	3
0	7119	1296.894956997074	2
0	7125	1297.19464294988	3
0	7126	1297.397559131884	2
0	7132	1298.223753492245	1
0	7137	1298.65321599063	0
0	7141	1298.749499174825	1
0	7145	1299.202472269572	2
0	7148	1299.396151907009	3
0	7154	1301.167652589955	4
0	7156	1301.451639648237	3
0	7162	1301.785169082668	2
0	7170	1302.39412896784	3
0	7172	1303.092065158205	4
0	7173	1303.165532239695	3
0	7178	1303.548877401722	2
0	7183	1304.26113215231	1
0	7188	1304.860811131674	0
0	7207	1306.313561590406	1
0	7211	1306.980977121548	2
0	7212	1307.046954287373	1
0	7217	1307.175618987368	0
0	7224	1307.331173024879	1
0	7226	1307.73417816621	2
0	7228	1307.969295576576	3
0	7231	1308.619106769702	2
0	7236	1309.215780178409	1
0	7240	1309.984050801182	2
0	7242	1310.008684409343	3
0	7244	1311.14886667057	4
0	7251	1313.527490295547	3
0	7255	1313.738386705243	4
0	7258	1314.628265758931	3
0	7265	1315.487094159453	2
0	7270	1315.690965425061	1
0	7275	1316.56850842051	0
0	7281	1318.01375861833	1
0	7284	1318.135028632688	0
0	7295	1320.497385694343	1
0	7296	1320.934727879767	0
0	7313	1322.892128180775	1
0	7314	1323.143656695454	0
0	7323	1323.55293854382	1
0	7328	1323.782467240102	2
0	7330	1323.901024946044	1
0	7337	1324.6157382091	2
0	7339	1325.225129246574	1
0	7344	1325.255819006135	0
0	7392	1328.604339647902	1
0	7394	1330.202401356045	2
0	7399	1331.051071379497	3
0	7400	1331.378347302717	2
0	7406	1331.384327984465	3
0	7407	1331.44420446328	2
0	7412	1331.668222220698	1
0	7418	1332.089697162338	2
0	7420	1332.277741037986	3
0	7422	1333.691776279642	2
0	7428	1333.834954701881	1
0	7434	1334.292748309788	2
0	7435	1335.859502316228	1
0	7441	1337.182028697833	0
0	7480	1345.656622141751	1
0	7481	1345.713852520498	0
0	7490	1347.333167413256	1
0	7495	1348.724042973854	0
0	7509	1350.713177058699	1
0	7513	1351.436794433255	2
0	7515	1351.601759490372	3
0	7517	1352.053898415835	4
0	7519	1352.069340873098	5
0	7529	1355.794617185636	4
0	7534	1356.365161798769	3
0	7541	1357.677107910556	2
0	7547	1358.703417811804	3
0	7549	1359.96447957477	2
0	7554	1360.624885270261	1
0	7561	1360.780176837586	2
0	7564	1361.027343340241	3
0	7566	1361.277751467981	4
0	7569	1361.898517855692	3
0	7574	1362.139593267357	2
0	7580	1362.860360065534	3
0	7581	1362.956237805168	2
0	7586	1365.535433303096	1
0	7591	1366.983233559586	0
0	7597	1367.972382774828	1
0	7598	1368.306205307962	0
0	7602	1368.480889635143	1
0	7608	1370.369415077148	2
0	7612	1371.333877208546	3
0	7614	1371.445048861742	4
0	7616	1371.66692529795	5
0	7617	1372.538040626522	4
0	7625	1375.188253516936	5
0	7627	1375.252813332683	6
0	7628	1376.851886630912	5
0	7633	1376.911431750621	4
0	7639	1377.11527742377	3
0	7645	1377.367210085373	4
0	7646	1377.578908615981	3
0	7651	1377.848281329235	2
0	7655	1377.886572732978	3
0	7657	1377.914197218045	4
0	7661	1379.264976081129	5
0	7670	1381.164815012134	4
0	7674	1381.908879046118	5
0	7677	1383.220759129398	4
0	7682	1383.730467276233	3
0	7689	1385.924817679476	2
0	7693	1385.95878612252	3
0	7695	1387.37912183745	4
0	7699	1389.335707396479	5
0	7702	1389.582185871323	4
0	7708	1390.227673987376	3
0	7714	1392.264482251445	2
0	7721	1394.117101806992	1
0	7727	1395.353252454018	2
0	7728	1395.814595059957	1
0	7733	1396.909804595751	0
0	7746	1399.4855461682	1
0	7747	1399.502677450822	0
0	7762	1399.925667172301	1
0	7767	1400.763752698422	0
0	7773	1402.37777581495	1
0	7774	1402.936733230335	0
0	7786	1404.566554096678	1
0	7788	1404.942557505344	0
0	7794	1405.128408189854	1
0	7796	1405.368325882262	2
0	7798	1406.836578570809	3
0	7800	1407.203014521725	2
0	7805	1407.313116461776	1
0	7810	1407.330202577398	0
0	7830	1408.554360049508	1
0	7833	1408.738869943021	0
0	7839	1409.361856095327	1
0	7846	1410.375239008852	0
0	7852	1410.862087771674	1
0	7856	1412.045860301199	0
0	7862	1412.702193962735	1
0	7864	1412.867685212127	0
0	7879	1414.130809156252	1
0	7883	1415.630549773795	0
0	7889	1415.825365517083	1
0	7891	1415.924870288249	2
0	7892	1415.982653679892	1
0	7897	1417.031026901292	0
0	7908	1418.50026753073	1
0	7909	1418.610616150737	0
0	7923	1420.285082153213	1
0	7925	1420.37198231962	2
0	7928	1421.221433983976	1
0	7933	1421.43041744697	0
0	7948	1423.121972066969	1
0	7952	1423.983229926181	2
0	7953	1424.54674091402	1
0	7959	1424.719475269102	2
0	7960	1425.118502281839	1
0	7967	1425.690143717331	2
0	7968	1425.840976252197	1
0	7973	1425.971500154456	0
0	8023	1429.972992237104	1
0	8024	1430.156879819947	0
0	8042	1431.73183829952	1
0	8043	1433.53768453404	0
0	8050	1433.795066177185	1
0	8052	1434.890595540375	2
0	8054	1435.490762421821	1
0	8060	1435.648482366528	2
0	8061	1436.217566087042	1
0	8067	1436.294164187474	2
0	8068	1436.614581323459	1
0	8074	1436.896306071791	2
0	8082	1437.489603561184	3
0	8083	1438.121924266602	2
0	8091	1438.858664920715	3
0	8093	1439.145816481591	4
0	8095	1439.309149952101	5
0	8097	1439.773462052737	4
0	8107	1441.276084583684	3
0	8115	1441.641588449629	4
0	8116	1441.923297165972	3
0	8123	1442.282094737063	2
0	8128	1442.363436710675	1
0	8136	1443.445260725985	0
0	8179	1451.802739835234	1
0	8180	1452.53684820334	0
0	8187	1453.581603440022	1
0	8188	1453.601674566741	0
0	8210	1459.590614216302	1
0	8214	1461.260192156865	0
0	8230	1461.503421934361	1
0	8232	1462.145072949421	2
0	8234	1462.640176569378	3
0	8235	1463.361066186849	2
0	8240	1463.655463154743	1
0	8249	1466.085987531019	0
0	8253	1466.180820512854	1
0	8264	1468.183036198621	0
0	8300	1472.716966978321	1
0	8302	1473.12352469714	0
0	8309	1473.611393188795	1
0	8311	1474.16390559487	2
0	8317	1474.726435943709	3
0	8318	1476.234507849059	2
0	8324	1476.534838064448	3
0	8325	1476.563859717663	2
0	8330	1476.568866158986	1
0	8336	1476.72594090194	2
0	8339	1477.07063041988	3
0	8341	1477.312567469939	2
0	8346	1477.760525115928	1
0	8353	1478.089367725812	0
0	8383	1482.080853949453	1
0	8384	1482.130069228029	0
0	8398	1483.068506929651	1
0	8404	1484.106760760046	2
0	8406	1484.393985536951	3
0	8409	1485.75683375365	4
0	8410	1486.848067526415	3
0	8418	1488.177959936412	4
0	8421	1489.201909923302	5
0	8422	1489.4049000451	4
0	8428	1490.357425788626	3
0	8433	1490.468950861922	2
0	8441	1491.732991352868	1
0	8450	1492.503535672911	0
0	8486	1495.650744459952	1
0	8491	1497.335931784416	0
0	8507	1501.424827563046	1
0	8508	1501.453180275795	0
0	8520	1503.60044416522	1
0	8521	1503.720797197536	0
0	8525	1503.993183864695	1
0	8528	1504.951876790593	0
0	8534	1507.1682478763	1
0	8537	1507.944254180355	0
0	8553	1511.43086558648	1
0	8554	1511.47897370428	0
0	8572	1513.157366164798	1
0	8575	1513.88815342395	0
0	8587	1514.473063767069	1
0	8588	1514.565610681703	0
0	8594	1514.635004348686	1
0	8596	1514.826304255816	2
0	8597	1514.902026809146	1
0	8603	1515.076272976399	2
0	8607	1517.487196724987	1
0	8613	1518.062759763513	2
0	8616	1518.724778508579	1
0	8621	1519.074697214394	0
0	8625	1519.355259478212	1
0	8631	1520.454834652382	2
0	8633	1523.861333921985	3
0	8635	1524.174623112365	4
0	8637	1524.351190640238	5
0	8641	1526.557976234213	6
0	8644	1527.764450577337	5
0	8652	1529.369085207159	6
0	8653	1529.466688975219	5
0	8659	1530.562836624107	6
0	8661	1530.951558385819	7
0	8662	1531.374714007137	6
0	8667	1533.458062526636	5
0	8672	1535.680148538042	4
0	8676	1535.853322450496	5
0	8680	1537.825720808746	6
0	8681	1537.845150829638	5
0	8685	1538.741683376035	6
0	8689	1539.062183761405	7
0	8691	1539.192886719152	8
0	8692	1541.160883242279	7
0	8697	1541.35631156138	6
0	8701	1542.685898884381	7
0	8704	1544.371965237598	6
0	8710	1545.800699095117	7
0	8712	1545.850281146324	8
0	8713	1545.922639234433	7
0	8718	1546.782997327192	6
0	8723	1548.261792086179	5
0	8731	1549.908497289968	6
0	8732	1549.985065288145	5
0	8737	1550.199907159461	4
0	8745	1550.617637155988	5
0	8746	1551.553472837047	4
0	8757	1555.674346378472	3
0	8761	1555.734955500704	4
0	8764	1556.813777293475	3
0	8772	1558.156026356686	2
0	8779	1558.921975286338	1
0	8783	1558.995593450685	2
0	8786	1560.851452499986	1
0	8792	1562.24011173575	2
0	8795	1562.829117555836	3
0	8796	1563.538701898566	2
0	8803	1564.797418662426	3
0	8804	1564.888178401475	2
0	8810	1564.911834560629	3
0	8812	1566.343430207095	2
0	8817	1566.804352394804	1
0	8824	1568.864571624671	0
0	8828	1568.995820281894	1
0	8830	1569.037867237831	2
0	8832	1569.325465986773	3
0	8834	1569.636700634378	4
0	8838	1572.342918787348	3
0	8843	1572.511164661632	2
0	8848	1573.216533232645	1
0	8858	1576.629472332786	2
0	8860	1576.675466995287	3
0	8862	1577.331293529182	4
0	8864	1577.333054570061	5
0	8865	1577.934230662232	4
0	8870	1578.022387750738	3
0	8875	1578.878434251118	2
0	8881	1581.029468321258	1
0	8886	1581.520053479093	0
0	8922	1585.013802087878	1
0	8923	1585.591832263363	0
0	8929	1585.799132970774	1
0	8930	1585.8163060231	0
0	8945	1586.502743356353	1
0	8946	1587.907359000017	0
0	8964	1589.718154644383	1
0	8969	1591.172563848163	2
0	8970	1591.482063427319	1
0	8976	1591.519314065935	2
0	8977	1591.837768553111	1
0	8984	1593.074736496415	2
0	8987	1594.878210828136	1
0	8995	1595.325519805181	2
0	8996	1595.338520687279	1
0	9004	1596.526644587851	2
0	9005	1596.657768803991	1
0	9011	1597.215675887902	2
0	9013	1597.655881990884	1
0	9018	1597.927632737198	0
0	9055	1601.332497655864	1
0	9061	1603.572805272273	2
0	9066	1603.989098467062	3
0	9068	1604.218513593578	4
0	9072	1605.436641184869	3
0	9079	1605.755418475184	4
0	9081	1606.067987197954	5
0	9083	1606.207214825443	6
0	9084	1606.213569402785	5
0	9091	1607.00936213591	4
0	9096	1607.273794423239	3
0	9104	1608.093122173883	4
0	9105	1608.340869879455	3
0	9110	1608.537466310873	2
0	9115	1608.9781628222	1
0	9120	1609.162478184679	0
0	9126	1610.102219331853	1
0	9130	1612.329511336324	2
0	9134	1613.283759548707	3
0	9135	1613.459179161214	2
0	9139	1614.196140845974	3
0	9143	1615.036584251706	2
0	9150	1616.281403234942	3
0	9151	1616.467714535159	2
0	9156	1617.79956545008	1
0	9163	1618.700710315854	2
0	9164	1618.784291700748	1
0	9169	1619.120457765939	0
0	9182	1621.220171646043	1
0	9184	1621.703460167985	2
0	9185	1621.755494432103	1
0	9191	1623.078882746321	0
0	9230	1627.508138543573	1
0	9232	1627.637881641558	2
0	9235	1628.388189594811	3
0	9237	1628.660128131838	4
0	9238	1630.193898026509	3
0	9245	1630.684917472856	2
0	9251	1631.119721884376	1
0	9256	1631.763771306287	0
0	9284	1633.631410375859	1
0	9286	1634.57883946928	0
0	9292	1635.227880420002	1
0	9293	1635.385633715126	0
0	9331	1637.867669610039	1
0	9334	1638.487875553935	0
0	9344	1639.426195295262	1
0	9348	1639.770297969721	2
0	9350	1641.916843269504	1
0	9356	1642.399493959084	2
0	9358	1642.481474067964	3
0	9365	1644.009785833098	2
0	9374	1645.95576968594	1
0	9383	1646.921991637851	0
0	9399	1648.696106122574	1
0	9401	1650.443692636791	0
0	9416	1650.835619422479	1
0	9417	1650.861895145426	0
0	9426	1652.98690267348	1
0	9428	1653.069813650403	2
0	9431	1653.845787694501	1
0	9436	1653.971102899223	0
0	9457	1657.789196362278	1
0	9459	1657.8157028483	2
0	9460	1658.146139075828	1
0	9465	1658.161229848077	0
0	9494	1664.424375752811	1
0	9495	1664.850838615601	0
0	9501	1665.014356655661	1
0	9502	1665.40039733437	0
0	9531	1668.307791160695	1
0	9534	1668.879584836613	2
0	9540	1669.569535820127	1
0	9546	1669.664826227575	2
0	9552	1670.354684609183	1
0	9558	1670.95394614034	2
0	9559	1671.185940164447	1
0	9566	1672.113301027635	0
0	9600	1676.980843888895	1
0	9602	1677.381471117748	2
0	9604	1678.319245209987	3
0	9605	1678.369484492094	2
0	9610	1678.620342074292	1
0	9615	1678.665433117039	0
0	9626	1679.120014621285	1
0	9628	1679.253807900658	2
0	9630	1679.26942103895	3
0	9632	1679.373563105483	4
0	9633	1679.543360256703	3
0	9639	1680.143292736151	2
0	9646	1680.825659673797	1
0	9651	1680.829741124356	0
0	9655	1680.844460523958	1
0	9660	1682.093041712158	0
0	9666	1682.760138196447	1
0	9670	1683.09969118663	0
0	9676	1684.061930308986	1
0	9684	1685.873339934393	0
0	9727	1689.414331887737	1
0	9728	1689.71845817565	0
0	9743	1691.674151840211	1
0	9746	1692.091930143545	0
0	9785	1698.086141014336	1
0	9789	1701.261736726229	0
0	9808	1702.43067511482	1
0	9810	1702.799436705439	2
0	9816	1705.447529800785	1
0	9821	1706.241490549455	0
0	9827	1706.263945318286	1
0	9829	1706.417401258646	2
0	9831	1706.526766016363	1
0	9836	1706.832777879693	0
0	9853	1707.468855320193	1
0	9857	1708.165411719003	2
0	9858	1708.398266474272	1
0	9863	1708.616315125161	0
0	9900	1715.989128183372	1
0	9903	1717.12388495154	0
0	9910	1717.93466703441	1
0	9911	1718.072404137574	0
0	9917	1718.246149028843	1
0	9920	1718.551087248475	2
0	9921	1718.624731814167	1
0	9927	1719.095367578144	2
0	9930	1719.190234240277	3
0	9931	1720.263710424652	2
0	9936	1720.505477250018	1
0	9943	1720.934994318541	0
0	9949	1721.297283464874	1
0	9950	1721.383019970811	0
0	10050	1735.353963446077	1
0	10051	1735.643216038624	0
0	10096	1745.41149233123	1
0	10099	1746.003304697225	2
0	10101	1746.138946908677	1
0	10108	1747.022545680911	2
0	10110	1747.342866852264	3
0	10111	1747.712717466989	2
0	10118	1749.503714935519	3
0	10119	1750.036403376418	2
0	10125	1750.783760300525	1
0	10131	1750.898044333265	0
0	10158	1754.153252174299	1
0	10161	1754.709731704905	2
0	10162	1755.248739607823	1
0	10170	1755.590562279431	2
0	10172	1755.735477904361	3
0	10173	1757.104226954468	2
0	10178	1757.387376162272	1
0	10183	1758.016669806003	0
0	10201	1761.317535846	1
0	10203	1764.313381838772	2
0	10206	1767.374613618265	1
0	10215	1768.848617204096	0
0	10221	1770.602876929603	1
0	10228	1772.148078714551	2
0	10230	1772.508600439585	3
0	10232	1772.537637494337	4
0	10234	1772.729711455799	5
0	10238	1774.421231589782	6
0	10239	1774.666282476983	5
0	10246	1776.265234044717	6
0	10247	1776.307333677346	5
0	10254	1778.08479148735	4
0	10261	1778.185974603455	3
0	10266	1778.367052769471	2
0	10271	1778.529836280633	1
0	10275	1780.140952806093	2
0	10283	1782.376207837914	1
0	10288	1782.573662418885	0
0	10292	1785.618862380627	1
0	10295	1786.122490651243	0
0	10299	1786.474231350677	1
0	10302	1787.962275754462	0
0	10306	1788.126741143228	1
0	10308	1789.047002660993	2
0	10313	1790.544927933347	1
0	10318	1791.339655173603	0
0	10363	1794.347152463393	1
0	10369	1796.922658848037	0
0	10378	1798.973715724302	1
0	10380	1799.174987592633	2
0	10383	1800.041001381456	1
0	10390	1801.481123359311	0
0	10434	1809.498659790839	1
0	10436	1809.562311808855	2
0	10439	1810.805186516437	1
0	10447	1811.795873346061	2
0	10450	1812.094029953565	3
0	10452	1812.724608433129	2
0	10462	1814.715937811544	3
0	10465	1815.016020420595	2
0	10471	1815.6759212121	3
0	10472	1816.040019375185	2
0	10479	1816.932966689696	3
0	10481	1817.139923603733	4
0	10484	1817.754767096664	5
0	10485	1818.220073236424	4
0	10490	1818.648009344843	3
0	10495	1818.780117814032	2
0	10500	1819.04906168766	1
0	10507	1822.705680406448	2
0	10508	1823.103637781789	1
0	10513	1823.859282527125	0
0	10517	1823.998943400495	1
0	10522	1825.057537275327	0
0	10540	1827.457549448101	1
0	10541	1827.988063220475	0
0	10599	1838.822991768253	1
0	10601	1839.466667743645	2
0	10602	1839.742433524133	1
0	10609	1840.215030967872	2
0	10612	1840.477268782151	3
0	10613	1841.661666954997	2
0	10618	1841.791091633561	1
0	10624	1842.148941193342	2
0	10629	1843.261435260342	3
0	10630	1843.512082991551	2
0	10635	1843.98539442961	1
0	10639	1845.859618894369	2
0	10641	1847.73595062643	3
0	10645	1848.92319966563	4
0	10650	1849.963671143956	3
0	10657	1851.714743470777	2
0	10661	1851.91282352427	3
0	10663	1852.073651769778	4
0	10667	1853.610410743685	3
0	10675	1853.922187584981	2
0	10679	1853.980764934571	3
0	10682	1854.656139804448	2
0	10689	1855.108374181534	3
0	10691	1855.586830958811	4
0	10693	1855.703798678903	5
0	10695	1856.049433845471	4
0	10702	1857.667677967751	5
0	10703	1857.769589751107	4
0	10708	1857.871442417802	3
0	10713	1857.886516280306	2
0	10718	1858.556389445404	1
0	10723	1859.019797940363	0
0	10727	1859.712232545164	1
0	10731	1860.06688464623	2
0	10733	1860.788757998856	3
0	10735	1860.992682753695	4
0	10737	1861.093548410371	5
0	10738	1862.084350376283	4
0	10743	1862.46033588426	3
0	10747	1862.744764181569	4
0	10751	1865.083557945341	5
0	10755	1869.55661292753	6
0	10756	1869.730727980486	5
0	10760	1870.538348956474	6
0	10764	1873.262477652718	7
0	10766	1874.368686210901	8
0	10771	1876.706777383684	7
0	10775	1877.095347483356	8
0	10782	1879.772401560275	7
0	10789	1880.403939675828	8
0	10791	1880.89098828548	7
0	10797	1880.905940546316	8
0	10799	1880.92132929017	9
0	10801	1881.036289667926	10
0	10803	1883.61619465355	11
0	10804	1884.416399820914	10
0	10811	1884.805677023954	11
0	10812	1885.056967585934	10
0	10819	1886.707374898095	9
0	10825	1886.804321324246	10
0	10828	1887.105672606308	11
0	10829	1887.176916526073	10
0	10836	1887.604381530575	9
0	10842	1887.813909380726	10
0	10846	1889.184850369949	11
0	10850	1889.741871681892	12
0	10851	1889.75317353585	11
0	10856	1889.907538960012	10
0	10861	1890.814741348254	9
0	10866	1891.50888651701	8
0	10872	1894.510876471135	7
0	10878	1894.921909033043	6
0	10885	1896.189570981732	5
0	10889	1897.20763529617	6
0	10894	1898.677226387672	7
0	10898	1900.452482753098	6
0	10904	1900.547541592489	7
0	10905	1900.888792721499	6
0	10911	1901.693396674035	7
0	10912	1902.739966531928	6
0	10916	1903.671731974468	7
0	10921	1905.59137586291	6
0	10925	1909.339635825013	7
0	10927	1909.651202369654	8
0	10929	1909.854980392433	9
0	10931	1910.271266391483	10
0	10934	1910.660367659804	9
0	10939	1910.923060603965	8
0	10944	1911.11046854939	7
0	10953	1911.77050003688	6
0	10959	1912.167045544911	7
0	10961	1912.216888623723	8
0	10963	1913.304694462299	9
0	10967	1913.849964887314	10
0	10971	1914.200556477345	11
0	10973	1915.283619910569	10
0	10980	1915.747175367107	9
0	10987	1917.35259434188	10
0	10988	1917.802652182293	9
0	10993	1919.475207591798	8
0	10999	1920.485868716674	7
0	11004	1920.937034094035	6
0	11011	1921.46737942651	7
0	11013	1921.502661136323	8
0	11016	1922.025083920926	7
0	11022	1922.70195757739	6
0	11028	1922.806849999378	7
0	11031	1923.278636313467	8
0	11034	1924.559184534511	7
0	11040	1925.167093093783	8
0	11042	1925.450101305258	9
0	11043	1925.470140522569	8
0	11051	1925.63801213878	9
0	11056	1926.969216254288	10
0	11057	1927.14981835178	9
0	11063	1927.621748582896	8
0	11068	1927.748892342222	7
0	11074	1930.266379675516	8
0	11078	1930.492667463682	9
0	11081	1931.204708903188	8
0	11087	1931.793647600454	9
0	11088	1932.195190645128	8
0	11093	1933.265900979961	7
0	11098	1935.245073876434	6
0	11104	1936.046799371707	7
0	11106	1936.15530593549	8
0	11107	1936.323845061899	7
0	11113	1936.838487365035	8
0	11116	1939.318452219791	7
0	11123	1939.71535316201	6
0	11127	1939.820734299629	7
0	11132	1941.840921717521	8
0	11133	1942.44660870491	7
0	11142	1943.983616662453	8
0	11144	1944.803262108237	9
0	11146	1944.892227812213	10
0	11147	1945.917432451849	9
0	11154	1946.260451397313	10
0	11155	1946.472890488915	9
0	11160	1947.338104225172	8
0	11167	1949.749555289776	9
0	11169	1949.855707104018	10
0	11170	1950.344287050892	9
0	11177	1950.705672887697	10
0	11181	1951.376307943706	11
0	11183	1951.37697852315	12
0	11184	1951.60929272623	11
0	11190	1951.626809552122	12
0	11192	1951.691994141336	11
0	11198	1951.719040310658	12
0	11200	1951.888883415888	13
0	11204	1952.209844382348	12
0	11211	1952.993351527198	11
0	11216	1955.30341460214	10
0	11220	1955.847637954234	11
0	11223	1956.285164379801	10
0	11227	1956.446633154886	11
0	11230	1957.480007911548	10
0	11234	1957.649051504795	11
0	11239	1960.424479367589	10
0	11243	1961.817431515748	11
0	11246	1962.016478035083	10
0	11252	1962.877751450998	9
0	11258	1963.491227772952	8
0	11266	1964.206254233966	9
0	11267	1964.806061613043	8
0	11276	1967.677297077029	7
0	11284	1968.796119693941	8
0	11285	1970.19607578689	7
0	11292	1971.169379981455	6
0	11298	1971.315455362253	7
0	11299	1972.272644996408	6
0	11304	1972.689912054902	5
0	11310	1973.384453444968	4
0	11315	1973.417946225891	3
0	11320	1973.600252152867	2
0	11324	1977.208992565213	3
0	11326	1978.04654180263	4
0	11328	1978.387981391596	5
0	11332	1978.852990911604	6
0	11333	1979.205097600509	5
0	11337	1980.758377293893	6
0	11342	1985.489555185198	5
0	11348	1986.398240462352	6
0	11350	1987.326419725826	7
0	11351	1988.683364969754	6
0	11356	1991.234287994546	5
0	11361	1991.485079719078	4
0	11369	1992.45072596776	5
0	11372	1993.420269057579	4
0	11376	1994.496057821503	5
0	11378	1996.401725406533	6
0	11380	1997.070817893053	7
0	11385	1998.84517070227	6
0	11391	1999.338112947237	5
0	11396	1999.531282924641	4
0	11403	1999.92897575286	3
0	11408	2001.035417984829	2
0	11418	2002.781621241484	1
0	11424	2003.937432621021	0
0	11432	2005.317512571253	1
0	11434	2006.803488963332	2
0	11435	2007.5062603582	1
0	11440	2007.9605236667	0
0	11453	2008.610345381862	1
0	11454	2008.795372789383	0
0	11493	2013.056490016455	1
0	11494	2013.244683465593	0
0	11507	2014.904593712726	1
0	11509	2015.427816938521	2
0	11514	2016.173581998861	3
0	11519	2017.804766285306	4
0	11523	2020.070293808803	5
0	11525	2020.454005397498	4
0	11532	2021.85775126358	3
0	11540	2023.913861438844	2
0	11546	2024.065606768075	3
0	11547	2024.09039698792	2
0	11552	2024.669394712421	1
0	11558	2024.912005743915	2
0	11560	2024.92865780188	3
0	11562	2024.96725077864	4
0	11564	2025.622064421016	3
0	11569	2025.674268443939	2
0	11575	2025.994035098838	3
0	11577	2027.084022278703	2
0	11585	2028.183142996078	3
0	11587	2028.347222733446	2
0	11592	2028.941156993789	1
0	11597	2029.43261072181	0
0	11610	2031.27171109988	1
0	11612	2031.503474780875	2
0	11613	2032.778754209539	1
0	11620	2033.668198307947	0
0	11624	2034.089675530847	1
0	11636	2036.164093736787	2
0	11637	2036.169391352874	1
0	11643	2037.730145585459	2
0	11644	2037.936841231932	1
0	11651	2040.299724634488	0
0	11657	2043.403867452457	1
0	11658	2043.423283481945	0
0	11672	2046.247224456351	1
0	11674	2046.915283992922	2
0	11676	2047.849026636601	3
0	11680	2048.581070264616	4
0	11684	2050.435760231596	5
0	11686	2051.223114581673	4
0	11691	2051.751099231132	3
0	11697	2051.983077207508	4
0	11698	2052.086607614316	3
0	11703	2052.49365164212	2
0	11708	2053.039590425774	1
0	11714	2054.240884028517	0
0	11727	2055.402140810342	1
0	11728	2055.541197226206	0
0	11753	2058.599327881725	1
0	11754	2059.102261542402	0
0	11778	2066.309795822342	1
0	11779	2066.855284000534	0
0	11828	2071.365257949828	1
0	11830	2072.274873458732	2
0	11832	2072.275148833453	3
0	11834	2072.962140608844	2
0	11839	2073.414062901596	1
0	11844	2073.606853289125	0
0	11848	2073.90747833221	1
0	11850	2077.038405075704	2
0	11852	2077.412506181978	3
0	11854	2077.449676809411	4
0	11858	2080.536091745657	5
0	11864	2081.351137701473	6
0	11865	2081.545294308822	5
0	11870	2081.650993432468	4
0	11875	2081.767451447904	3
0	11882	2083.642419573715	2
0	11888	2085.064661275547	1
0	11892	2085.316707818055	2
0	11898	2088.555569877484	1
0	11903	2089.161453899156	0
0	11932	2093.4625752149	1
0	11933	2094.428686293823	0
0	11958	2097.697823199886	1
0	11960	2098.010542815673	0
0	11990	2102.19427084088	1
0	11991	2102.214142709359	0
0	12005	2104.67001399039	1
0	12007	2106.397935856995	2
0	12008	2107.794040441453	1
0	12013	2108.528688729494	0
0	12027	2109.449317055314	1
0	12030	2109.891570063933	0
0	12039	2111.484500174409	1
0	12040	2111.511211507369	0
0	12054	2114.506619238227	1
0	12055	2114.709641188873	0
0	12069	2115.354308058152	1
0	12073	2115.926856795425	0
0	12093	2120.625850714618	1
0	12095	2120.854265800339	2
0	12097	2121.651718668559	3
0	12099	2122.159515786315	4
0	12101	2122.838780011736	5
0	12103	2124.062103725609	6
0	12111	2129.191789116481	5
0	12116	2129.494230167455	4
0	12121	2129.944346273378	3
0	12127	2130.805920150734	2
0	12131	2131.194897707392	3
0	12137	2131.848492541639	4
0	12140	2132.148817039575	5
0	12141	2132.987219923601	4
0	12160	2138.241908593152	3
0	12165	2138.896765736266	2
0	12169	2139.698555229552	3
0	12173	2139.932878758367	4
0	12174	2140.014255088323	3
0	12179	2141.085420270983	2
0	12183	2141.643171443249	3
0	12187	2144.985610597831	4
0	12188	2145.185993782197	3
0	12195	2146.20576130942	2
0	12199	2146.45267701569	3
0	12201	2146.990005663722	4
0	12203	2147.552125128327	5
0	12205	2148.293510659018	6
0	12207	2148.737600719735	7
0	12209	2149.069441174095	8
0	12211	2149.124968250319	9
0	12213	2149.205636332191	10
0	12216	2149.729550360822	9
0	12220	2150.113082888486	10
0	12223	2152.583140680914	9
0	12230	2153.078033198796	8
0	12234	2153.642969498941	9
0	12238	2156.134661279301	8
0	12243	2156.929790875676	7
0	12248	2158.16478240862	6
0	12256	2161.825559723069	5
0	12261	2162.192944657015	4
0	12265	2163.000797354482	5
0	12268	2163.258484605499	4
0	12273	2163.435824362036	3
0	12278	2164.07664997892	2
0	12282	2164.155419003682	3
0	12286	2164.590022471701	4
0	12290	2164.98727393645	3
0	12295	2165.525111371837	2
0	12300	2168.641515423759	1
0	12304	2170.152465082418	2
0	12310	2173.411971650568	3
0	12313	2173.662507943492	2
0	12320	2174.80244839911	3
0	12321	2175.296907959956	2
0	12326	2175.537028654612	1
0	12332	2175.661309917446	2
0	12333	2175.714763589265	1
0	12338	2175.89600923922	0
0	12342	2175.930823794225	1
0	12346	2176.524284733603	2
0	12348	2176.776618834897	3
0	12349	2177.044763809028	2
0	12353	2178.097894226199	3
0	12355	2178.253270135226	4
0	12358	2179.254912640042	3
0	12364	2181.227107220463	4
0	12365	2182.261411103369	3
0	12376	2184.680349298348	2
0	12381	2185.872822219056	1
0	12387	2186.821297267844	2
0	12391	2188.367527474764	3
0	12392	2188.575447806852	2
0	12397	2189.468393610801	1
0	12402	2190.923294229217	0
0	12414	2191.332081662989	1
0	12416	2191.639170199994	0
0	12427	2192.82161617832	1
0	12430	2192.94073638747	0
0	12472	2198.483872176783	1
0	12477	2199.959901545747	0
0	12496	2201.942899177022	1
0	12497	2202.059323563908	0
0	12504	2202.723617457347	1
0	12506	2202.845666218104	2
0	12507	2203.009045196789	1
0	12513	2203.31532773134	0
0	12531	2205.811857827597	1
0	12532	2206.097839502978	0
0	12566	2212.029064957698	1
0	12567	2212.068562507517	0
0	12590	2213.612958120345	1
0	12594	2214.853194087084	0
0	12617	2217.949842589927	1
0	12619	2218.216577916504	2
0	12621	2218.586831903769	1
0	12627	2218.905711468967	0
0	12640	2219.787195836656	1
0	12642	2220.463718967457	0
0	12648	2221.381037316131	1
0	12651	2221.968603772253	0
0	12657	2223.086432756617	1
0	12661	2224.143573429884	0
0	12672	2224.355848020109	1
0	12674	2224.586797886785	0
0	12688	2227.114965553695	1
0	12691	2227.508489507006	2
0	12695	2230.360097737548	3
0	12699	2231.174311203051	4
0	12702	2231.855794140946	3
0	12710	2232.52879267355	2
0	12716	2233.064808480508	1
0	12722	2233.096046557533	2
0	12723	2233.827843762009	1
0	12729	2233.828979215037	2
0	12730	2234.188192081947	1
0	12735	2234.959464694171	0
0	12765	2237.86470714047	1
0	12770	2239.38996695046	0
0	12777	2239.857980352093	1
0	12780	2240.824164869737	2
0	12781	2240.97690944847	1
0	12786	2241.579814572116	0
0	12858	2249.803598726711	1
0	12862	2251.740386543527	2
0	12864	2252.067544498783	1
0	12872	2254.010609066426	0
0	12890	2255.45155496022	1
0	12893	2255.847618633191	2
0	12894	2255.940762444836	1
0	12900	2256.593598887444	0
0	12906	2256.905876936165	1
0	12907	2257.017372604605	0
0	12918	2257.748325086393	1
0	12921	2258.560450930604	0
0	12930	2259.171980803836	1
0	12934	2259.85456518498	2
0	12935	2259.93002159094	1
0	12941	2261.319477015518	0
0	12945	2263.771469406378	1
0	12947	2264.649216967333	2
0	12950	2266.520946058607	1
0	12956	2269.049790283844	0
0	12971	2271.77258285121	1
0	12973	2271.916023651188	2
0	12975	2272.928541284704	3
0	12978	2275.197375255936	2
0	12983	2275.341241742643	1
0	12988	2275.614762759767	0
0	12999	2277.675186865067	1
0	13001	2277.771256923683	2
0	13004	2278.853271708817	1
0	13010	2280.320583351541	0
0	13027	2282.448028140328	1
0	13028	2282.877386174345	0
0	13054	2285.978096868465	1
0	13056	2286.663544947623	2
0	13059	2286.873641480644	1
0	13064	2287.368439772289	0
0	13068	2288.409660312765	1
0	13073	2289.691829827908	0
0	13079	2290.572624801457	1
0	13080	2291.307180156011	0
0	13093	2293.35166626206	1
0	13095	2293.390936349515	2
0	13104	2295.348955539948	1
0	13111	2296.40633759597	0
0	13117	2296.654671553544	1
0	13119	2296.953354893733	0
0	13128	2297.337785689177	1
0	13130	2297.34017025752	2
0	13133	2298.902544353453	1
0	13138	2299.275575007094	0
0	13147	2301.342265752777	1
0	13152	2304.306946452453	0
0	13156	2304.966976488705	1
0	13160	2307.112528749288	0
0	13173	2310.345004798162	1
0	13176	2312.035168043071	0
0	13184	2312.527908721798	1
0	13185	2312.919597418816	0
0	13203	2314.595717498221	1
0	13211	2315.709688336962	0
0	13233	2316.892920166592	1
0	13235	2317.32223006181	2
0	13239	2318.734001920491	3
0	13240	2319.336286990339	2
0	13245	2319.830817269679	1
0	13250	2320.402873262934	0
0	13270	2321.9961179306	1
0	13271	2322.393294963378	0
0	13278	2323.494719405461	1
0	13282	2323.847558091939	2
0	13284	2324.023340408444	1
0	13289	2324.487918346718	0
0	13325	2330.301672053543	1
0	13327	2330.621678215887	0
0	13347	2332.764657067853	1
0	13349	2333.455472262262	0
0	13355	2333.772841144625	1
0	13356	2333.799658076613	0
0	13362	2333.876196898451	1
0	13363	2333.885979322375	0
0	13404	2340.97511315427	1
0	13405	2342.243381581138	0
0	13418	2344.252001025897	1
0	13420	2344.757703104741	0
0	13449	2354.705479083868	1
0	13450	2354.727364950347	0
0	13456	2354.937177828114	1
0	13459	2355.935910052218	0
0	13503	2360.180931641691	1
0	13507	2361.255392673454	0
0	13592	2376.152186725375	1
0	13593	2376.786551019676	0
0	13606	2378.978625930243	1
0	13612	2380.935332620099	0
0	13620	2382.303033552581	1
0	13621	2382.885752966242	0
0	13633	2385.169535387672	1
0	13636	2386.475388332306	2
0	13637	2386.996654753305	1
0	13643	2387.55552906228	0
0	13694	2395.855783457392	1
0	13695	2396.711649811719	0
0	13787	2412.012813169044	1
0	13790	2413.425157736595	0
0	13811	2416.868999288712	1
0	13812	2417.066400852998	0
0	13826	2418.610943386499	1
0	13827	2418.648569808399	0
0	13892	2428.155409873933	1
0	13894	2428.614593166057	2
0	13896	2430.555787180936	3
0	13898	2431.284329387597	4
0	13902	2431.891055569073	5
0	13904	2432.866357737939	6
0	13907	2433.623307876672	5
0	13914	2434.107091119123	4
0	13919	2434.444504116934	3
0	13924	2435.309796452409	2
0	13930	2435.91695046799	1
0	13935	2436.430765293161	0
0	13941	2436.590098628171	1
0	13942	2437.311268056609	0
0	13979	2444.645046232902	1
0	13981	2444.997290480019	2
0	13989	2447.476318673295	3
0	13990	2447.820057918447	2
0	13997	2448.421262885556	1
0	14002	2449.250213232196	0
0	14021	2454.253339037257	1
0	14023	2454.445192320773	2
0	14025	2455.935494288951	3
0	14030	2459.183219219601	2
0	14036	2461.396251516339	3
0	14038	2461.450114568855	2
0	14043	2461.768797833267	1
0	14048	2462.190743736019	0
0	14052	2462.97747374334	1
0	14054	2463.3910691514	2
0	14056	2464.156498880427	3
0	14058	2464.254652358506	4
0	14060	2464.520441711776	5
0	14063	2464.907567379748	4
0	14067	2466.142628928689	5
0	14069	2466.506416451066	6
0	14073	2467.502794152635	5
0	14082	2468.067390244558	4
0	14086	2468.887085696802	5
0	14088	2469.24295065782	6
0	14090	2469.658211334128	7
0	14092	2470.722007559599	8
0	14096	2472.392772102817	7
0	14102	2474.354737675167	6
0	14107	2475.073580444913	5
0	14113	2476.695274401921	4
0	14118	2476.860455748504	3
0	14125	2479.149436479586	2
0	14129	2479.982060325004	3
0	14135	2480.860694105494	2
0	14139	2480.884093593863	3
0	14141	2482.303806082565	4
0	14145	2483.257974025178	5
0	14149	2484.772472959218	6
0	14153	2484.934850093745	5
0	14158	2485.261046855127	4
0	14164	2485.941886932301	5
0	14165	2486.753104923951	4
0	14172	2488.279137469241	3
0	14179	2488.505481127113	2
0	14184	2489.184275768393	1
0	14188	2490.337169398444	2
0	14190	2490.626788113364	3
0	14195	2492.104477990477	2
0	14200	2493.974467298646	1
0	14208	2496.854344229106	0
0	14219	2497.172727923703	1
0	14220	2497.333046764904	0
0	14224	2497.687944291979	1
0	14226	2498.32985509564	2
0	14229	2499.159960497383	1
0	14236	2500.499264685892	2
0	14237	2501.052871496542	1
0	14242	2501.362133729272	0
0	14246	2501.894694963731	1
0	14250	2502.346854934654	2
0	14252	2502.677236592799	1
0	14257	2502.900033955961	0
0	14264	2503.627292401032	1
0	14265	2504.448764914366	0
0	14278	2506.404816791991	1
0	14279	2506.696458723539	0
0	14287	2507.762801201752	1
0	14291	2508.887191242154	2
0	14293	2508.900094948837	3
0	14294	2509.064311437894	2
0	14300	2509.345748529876	3
0	14301	2509.957942299706	2
0	14309	2511.417800634834	3
0	14310	2511.53300014824	2
0	14316	2512.646638097289	3
0	14319	2513.11178761213	4
0	14320	2514.185377216127	3
0	14325	2514.604092548729	2
0	14333	2518.255854492573	3
0	14335	2518.403943066527	4
0	14342	2520.028677647168	3
0	14349	2520.925565195972	4
0	14353	2521.294639429851	3
0	14358	2521.507019547655	2
0	14363	2521.707048021011	1
0	14371	2522.299809254264	2
0	14372	2523.109651709561	1
0	14378	2523.340496638309	2
0	14381	2524.601355611697	1
0	14396	2527.078128593276	0
0	14411	2529.128571901666	1
0	14412	2531.919077328471	0
0	14445	2535.1410456782	1
0	14446	2535.442830976881	0
0	14462	2537.677840556325	1
0	14465	2537.764211086802	0
0	14496	2539.417507001642	1
0	14497	2540.172777476294	0
0	14503	2540.394837540009	1
0	14504	2540.603598663145	0
0	14523	2543.423226464267	1
0	14526	2544.797708824444	0
0	14550	2546.883888448613	1
0	14554	2547.120703094171	2
0	14555	2547.331961456719	1
0	14563	2548.84927585656	0
0	14575	2548.951157165297	1
0	14577	2549.909321733743	2
0	14579	2550.303388181852	3
0	14580	2550.46241513801	2
0	14588	2551.256547747991	3
0	14591	2553.660090593591	2
0	14596	2553.67154713077	1
0	14601	2553.931224787365	0
0	14619	2555.590653808566	1
0	14620	2555.614371111526	0
0	14659	2561.011109226933	1
0	14661	2561.914610829595	0
0	14691	2567.832016960738	1
0	14695	2568.667520112709	2
0	14698	2571.353191415472	1
0	14703	2572.027612983413	0
0	14710	2572.217479998624	1
0	14714	2574.150499092862	2
0	14716	2574.722265196452	3
0	14719	2575.597660745065	2
0	14724	2575.612266348642	1
0	14730	2575.955132441221	2
0	14731	2576.330258307001	1
0	14736	2576.405653273151	0
0	14759	2580.035598436317	1
0	14762	2582.968942003168	0
0	14780	2583.902596674637	1
0	14782	2584.569373124563	0
0	14795	2585.856361660202	1
0	14798	2586.523812408264	0
0	14830	2588.926804565981	1
0	14832	2589.501789962536	0
0	14846	2590.504534660593	1
0	14850	2591.041426757279	2
0	14851	2591.410951793071	1
0	14857	2592.823608085381	0
0	14867	2594.10662158884	1
0	14872	2596.837485685708	0
0	14881	2599.521379430837	1
0	14888	2602.477870869682	0
0	14902	2603.211956585687	1
0	14903	2603.73421803476	0
0	14933	2608.202343521108	1
0	14935	2608.603713461671	2
0	14937	2609.725869933248	3
0	14938	2609.987257890527	2
0	14944	2610.336464135634	3
0	14945	2610.857592637523	2
0	14952	2611.596722843521	1
0	14958	2612.687878511661	0
0	14975	2613.453124995693	1
0	14977	2613.558705269839	2
0	14978	2613.578079948501	1
0	14985	2613.788181650658	0
0	14996	2614.889007128467	1
0	14997	2614.995051187416	0
0	15013	2618.112353442566	1
0	15022	2619.388290600911	2
0	15023	2619.527796259701	1
0	15028	2620.18775340456	0
0	15048	2623.578575555274	1
0	15051	2624.126725895318	0
0	15057	2624.514662169375	1
0	15062	2624.826374487054	2
0	15063	2625.279806635317	1
0	15071	2626.726364816726	0
0	15079	2629.170261277995	1
0	15082	2629.386782020643	0
0	15086	2629.685417839449	1
0	15090	2630.833449289455	0
0	15096	2631.432781435548	1
0	15098	2632.503813710115	2
0	15099	2632.744903307248	1
0	15103	2633.032011827443	2
0	15109	2636.167724593728	1
0	15116	2637.213928750013	0
0	15132	2637.800043544594	1
0	15135	2638.718806919133	2
0	15136	2638.789612228099	1
0	15141	2639.255947924317	0
0	15158	2640.395621591348	1
0	15163	2642.225252163933	0
0	15183	2644.353943139805	1
0	15190	2646.178979731618	2
0	15192	2647.671397735965	3
0	15194	2647.771823577101	4
0	15199	2648.992799184174	5
0	15200	2650.596608140797	4
0	15205	2651.169401299999	3
0	15210	2651.486965976608	2
0	15214	2651.767835367462	3
0	15219	2654.976788830738	2
0	15223	2654.991052924594	3
0	15229	2656.588218401361	4
0	15230	2656.684082245428	3
0	15236	2657.48516003189	4
0	15237	2659.047355925956	3
0	15242	2661.16119136097	2
0	15246	2661.402899178715	3
0	15248	2661.490577949978	4
0	15250	2662.205693026642	5
0	15254	2663.416625558111	6
0	15255	2663.917628813306	5
0	15259	2664.277630887447	6
0	15261	2665.284324622686	7
0	15265	2666.416288844636	8
0	15267	2666.642664808887	9
0	15268	2667.496868185694	8
0	15272	2668.204800878476	9
0	15276	2669.487510658498	10
0	15277	2670.245436702436	9
0	15281	2671.069665813617	10
0	15286	2674.002653392819	11
0	15288	2674.31626202381	12
0	15289	2675.052723109801	11
0	15294	2675.790401081586	10
0	15298	2676.00879292718	11
0	15304	2677.496089281804	12
0	15305	2677.99940450542	11
0	15312	2680.811046347196	10
0	15321	2681.888018295003	9
0	15326	2683.498518445916	8
0	15330	2683.995011180525	9
0	15333	2687.348791763453	8
0	15337	2687.832561300096	9
0	15340	2688.377597838742	8
0	15345	2688.714247863903	7
0	15351	2689.241319484953	8
0	15352	2689.56454052397	7
0	15357	2691.004344674877	6
0	15362	2691.979087384852	5
0	15368	2692.820083605067	6
0	15369	2692.971165315662	5
0	15376	2693.629795507482	6
0	15381	2694.158432257909	5
0	15386	2694.304062986282	4
0	15390	2694.593151265092	5
0	15394	2698.246499135152	6
0	15398	2700.336430381175	7
0	15399	2700.914660572164	6
0	15407	2703.333898919378	7
0	15409	2703.600459185124	8
0	15414	2705.228664761099	7
0	15418	2705.648782477185	8
0	15426	2708.40244912175	9
0	15427	2708.968905421623	8
0	15433	2710.151706914432	9
0	15437	2711.207352826883	10
0	15438	2711.657944773438	9
0	15450	2713.166647114379	10
0	15451	2713.572006443591	9
0	15456	2713.835509246423	8
0	15461	2714.260826363215	7
0	15465	2714.438813800876	8
0	15471	2717.238912817849	9
0	15472	2718.839945743765	8
0	15477	2719.368793960605	7
0	15481	2720.122767622873	8
0	15485	2720.254801446488	9
0	15487	2722.588585130466	10
0	15491	2724.180379282325	11
0	15492	2724.371984766792	10
0	15496	2725.497721295991	11
0	15501	2727.433029868708	10
0	15505	2728.028582840857	11
0	15514	2730.20719171471	10
0	15519	2731.707030876737	9
0	15528	2734.66335234707	8
0	15532	2734.917301466439	9
0	15534	2735.364110472213	10
0	15537	2736.14441154245	9
0	15545	2740.565725169604	10
0	15553	2743.766094230935	11
0	15555	2744.338596595548	12
0	15557	2744.605661168405	13
0	15561	2745.269857247893	14
0	15564	2745.519578259093	13
0	15571	2746.455616605961	12
0	15576	2746.942116538488	11
0	15581	2748.62857619192	10
0	15586	2749.052462798834	9
0	15593	2750.013982445499	8
0	15598	2750.644212898619	7
0	15604	2751.022935527444	8
0	15607	2752.426187601592	7
0	15613	2755.26880337206	8
0	15615	2755.675760973666	9
0	15621	2758.278046070524	8
0	15626	2758.471282589397	7
0	15630	2759.31451157361	8
0	15635	2760.90916135733	7
0	15640	2761.696217830174	6
0	15645	2762.562277769625	5
0	15651	2763.073729959508	6
0	15654	2764.330787920607	5
0	15663	2765.577847877837	4
0	15668	2766.153327366389	3
0	15674	2766.726488412072	2
0	15680	2767.941672046356	1
0	15685	2768.191949199823	0
0	15689	2769.167671472513	1
0	15693	2771.966348158412	0
0	15699	2772.08926556923	1
0	15703	2772.263560563939	2
0	15706	2773.140463166675	3
0	15707	2773.334227482824	2
0	15713	2775.689840326577	3
0	15715	2776.838051088214	4
0	15717	2777.10994048723	5
0	15719	2777.2855197386	6
0	15722	2778.024751163649	5
0	15728	2779.148030112537	6
0	15729	2779.213546151427	5
0	15735	2781.171604587183	6
0	15745	2783.302935903702	7
0	15746	2783.82643397895	6
0	15750	2784.094801744452	7
0	15756	2786.939747784	6
0	15761	2786.966401145707	5
0	15766	2787.049774604056	4
0	15771	2787.096511126435	3
0	15775	2787.11664359705	4
0	15777	2788.362907482104	5
0	15781	2789.202844524113	6
0	15783	2789.892300495492	5
0	15789	2790.476419848899	6
0	15790	2790.546772880628	5
0	15794	2791.218621019844	6
0	15796	2791.524227627667	7
0	15799	2792.124300215882	6
0	15807	2792.796836474182	7
0	15813	2794.826010941838	8
0	15815	2795.162447700832	9
0	15821	2797.33877729828	10
0	15822	2797.764136157901	9
0	15828	2800.717928638694	10
0	15829	2802.425099264233	9
0	15833	2803.460633955806	10
0	15838	2803.925567464186	9
0	15844	2804.309806864197	8
0	15849	2804.548208171032	7
0	15853	2804.567533974595	8
0	15856	2805.179284042154	7
0	15863	2809.649393767401	6
0	15869	2810.364551712342	7
0	15870	2810.750965390282	6
0	15874	2811.066623726594	7
0	15877	2813.36592819322	6
0	15882	2814.034832533704	5
0	15889	2815.115527490941	6
0	15890	2816.113924701984	5
0	15895	2816.720040538677	4
0	15899	2817.052763539916	5
0	15902	2817.362889785416	4
0	15906	2817.428518386068	5
0	15912	2818.302747281132	6
0	15915	2818.43652467818	5
0	15920	2819.485047680241	4
0	15924	2820.047832383416	5
0	15926	2822.38705570402	6
0	15929	2822.74973006587	5
0	15933	2822.80209161269	6
0	15936	2823.346534588235	5
0	15942	2825.806965954546	6
0	15944	2825.859051023684	7
0	15950	2827.146853125652	8
0	15952	2827.612405077087	9
0	15954	2827.679911420685	10
0	15956	2827.700375480924	11
0	15959	2828.840802198175	10
0	15963	2829.930000215071	11
0	15965	2830.481824638941	12
0	15970	2835.907703591037	11
0	15975	2837.951603381475	10
0	15980	2838.179299223802	9
0	15987	2838.781186001985	10
0	15993	2840.303493545904	9
0	15998	2840.366156165813	8
0	16003	2840.946951898753	7
0	16007	2840.961554007723	8
0	16009	2841.911915215723	9
0	16012	2842.106308275688	8
0	16016	2842.525548813228	9
0	16019	2843.364229689618	8
0	16023	2843.835014726248	9
0	16027	2845.97004809118	10
0	16029	2847.390375769148	11
0	16033	2849.343380184111	10
0	16039	2850.988507671034	11
0	16041	2851.203295209655	12
0	16042	2851.204212046004	11
0	16046	2851.34932343418	12
0	16049	2852.091400545001	11
0	16056	2854.854046768126	10
0	16062	2856.215880840666	11
0	16063	2856.224033505999	10
0	16070	2856.632359515361	9
0	16077	2857.583565971044	8
0	16084	2857.984542795444	9
0	16087	2859.509200615193	8
0	16092	2859.965212457374	7
0	16100	2860.96503506012	8
0	16102	2861.945356674628	9
0	16103	2863.329229587463	8
0	16109	2863.392660767118	9
0	16113	2863.880030713612	8
0	16119	2864.433884478141	9
0	16122	2865.168201887218	8
0	16132	2870.747547338668	7
0	16137	2871.094881954101	6
0	16142	2871.19838642538	5
0	16149	2871.267487197691	4
0	16154	2871.373073246803	3
0	16159	2871.490527114486	2
0	16164	2873.065521149498	1
0	16168	2873.369850875844	2
0	16172	2874.76909968543	3
0	16177	2876.262385619256	2
0	16182	2879.881089798857	1
0	16192	2882.041907036906	2
0	16193	2882.627559273813	1
0	16201	2883.569861619801	2
0	16202	2883.5949083462	1
0	16208	2885.91270573855	2
0	16211	2887.706052327852	1
0	16216	2888.02951419768	0
0	16224	2888.441514507273	1
0	16227	2889.675771789165	0
0	16261	2892.100631592277	1
0	16262	2892.574377634727	0
0	16285	2894.616010897751	1
0	16286	2894.809240220157	0
0	16325	2899.816588884955	1
0	16327	2901.169786639198	2
0	16332	2901.903734957724	1
0	16337	2902.423779045954	0
0	16344	2903.29348653468	1
0	16345	2903.986456022353	0
0	16354	2904.321218929596	1
0	16358	2904.578949264188	2
0	16366	2908.798900997641	1
0	16374	2908.913400593068	0
0	16382	2909.43315380895	1
0	16383	2909.786060941872	0
0	16397	2911.597262939811	1
0	16401	2914.292595094565	2
0	16402	2916.359093701063	1
0	16407	2916.384520997226	0
0	16413	2916.610393053904	1
0	16420	2917.608504761879	2
0	16423	2917.68694773895	3
0	16424	2918.114444214755	2
0	16432	2918.759756968385	1
0	16437	2919.431847069211	0
0	16489	2922.965274710949	1
0	16491	2923.195250127827	2
0	16493	2923.802004309415	1
0	16499	2924.090860540217	2
0	16501	2924.58886276304	3
0	16503	2925.85297037721	2
0	16509	2926.898709781066	3
0	16512	2927.319896580657	2
0	16517	2928.520607467178	1
0	16522	2928.55665445888	0
0	16536	2929.178787639109	1
0	16540	2930.021683854075	2
0	16543	2930.941682915804	1
0	16551	2931.084234923313	0
0	16555	2931.355484522561	1
0	16559	2932.272859134012	0
0	16604	2938.612843291788	1
0	16608	2942.1742823565	0
0	16615	2943.226874877626	1
0	16617	2943.79724327615	0
0	16625	2944.091311675243	1
0	16626	2944.681740929388	0
0	16632	2944.78039880179	1
0	16633	2944.90138705218	0
0	16639	2945.015129892172	1
0	16643	2947.1429131428	0
0	16660	2948.207927134314	1
0	16661	2948.240324968364	0
0	16668	2950.113913175759	1
0	16669	2950.130419640502	0
0	16715	2959.377187896367	1
0	16717	2959.859411263773	0
0	16724	2960.228665575624	1
0	16728	2961.15284182092	2
0	16730	2961.378712163798	1
0	16735	2961.97843564076	0
0	16762	2966.243799178317	1
0	16763	2966.7315198312	0
0	16770	2967.187233058382	1
0	16772	2967.472059352862	2
0	16773	2968.153315378754	1
0	16781	2969.822549678201	0
0	16789	2970.161627959931	1
0	16790	2971.658443689658	0
0	16844	2980.279779145358	1
0	16848	2980.903411551387	0
0	16864	2983.162731920541	1
0	16865	2983.602249291461	0
0	16872	2983.88022324521	1
0	16876	2986.686911989028	2
0	16878	2987.486430263943	3
0	16879	2987.868440415205	2
0	16885	2988.128181079554	3
0	16886	2988.215373782714	2
0	16893	2989.087970210471	1
0	16899	2989.453375688457	0
0	16939	2992.734811710103	1
0	16945	2993.851964982249	2
0	16947	2994.421941319211	3
0	16948	2994.663640527627	2
0	16954	2996.558644996903	1
0	16959	2996.711426552959	0
0	16965	2996.917349003898	1
0	16968	2997.466486032456	0
0	16991	3000.23747178683	1
0	16993	3000.611811770203	2
0	16996	3002.155065966172	1
0	17003	3002.367960798313	2
0	17009	3002.935872650115	3
0	17010	3003.940696660392	2
0	17016	3004.091253174354	1
0	17022	3005.246519779201	2
0	17023	3005.258678195826	1
0	17028	3005.423799992984	0
0	17053	3010.026182290235	1
0	17055	3010.299391921123	2
0	17057	3010.7504436137	3
0	17063	3015.78315883568	2
0	17070	3016.639790343831	1
0	17075	3017.228767851329	0
0	17104	3021.904893173168	1
0	17105	3021.913043618343	0
0	17121	3023.710630687724	1
0	17129	3025.803810632171	2
0	17134	3027.827242715493	1
0	17143	3029.405978642173	0
0	17157	3030.91768665276	1
0	17158	3031.162357911699	0
0	17169	3032.181714852768	1
0	17173	3032.460207019519	2
0	17175	3032.636366656437	3
0	17176	3033.264966328532	2
0	17182	3033.516060156183	3
0	17183	3034.365991111131	2
0	17188	3035.528507740161	1
0	17199	3037.667613246825	0
0	17211	3039.017644698282	1
0	17213	3039.229412715582	0
0	17235	3043.022064446404	1
0	17242	3043.662132424805	2
0	17244	3043.742066325065	3
0	17245	3044.396935273831	2
0	17252	3045.890159720098	1
0	17257	3045.979418978016	0
0	17275	3048.422764302813	1
0	17278	3048.861393331139	0
0	17286	3048.968420681379	1
0	17289	3050.612655199672	2
0	17290	3051.108276293271	1
0	17298	3052.000638477475	2
0	17301	3053.020069174551	3
0	17303	3053.331792743572	4
0	17305	3053.478086345583	3
0	17311	3053.660221211048	4
0	17313	3054.275946763443	3
0	17318	3054.580324160442	2
0	17324	3054.859622301182	3
0	17328	3055.740579293514	4
0	17330	3055.860199915613	5
0	17331	3056.077511081751	4
0	17337	3056.094522027719	5
0	17338	3056.662040049747	4
0	17343	3056.675125231383	3
0	17347	3056.707210076219	4
0	17349	3056.907781912472	5
0	17352	3057.457976752117	4
0	17357	3058.110703745082	3
0	17361	3058.907607457212	4
0	17363	3058.949878835742	5
0	17367	3060.473044435782	4
0	17374	3061.790530725726	3
0	17378	3062.109463218254	4
0	17381	3063.625240825702	3
0	17388	3066.088502088774	2
0	17393	3066.125063128545	1
0	17399	3066.95390571671	2
0	17401	3067.021359664533	3
0	17403	3068.379262095188	2
0	17408	3068.55230005828	1
0	17414	3071.534894528697	2
0	17417	3073.138658930049	1
0	17421	3073.249598415065	2
0	17424	3073.917931255897	1
0	17430	3074.791521600321	0
0	17453	3076.541339846142	1
0	17454	3076.65978972379	0
0	17472	3078.288613253139	1
0	17473	3078.670069812007	0
0	17490	3080.398385021631	1
0	17493	3081.325335032	2
0	17496	3081.819431042741	1
0	17502	3082.25497262569	2
0	17504	3082.772725487836	1
0	17512	3083.184182028811	2
0	17513	3083.262439585217	1
0	17518	3084.011636596673	0
0	17525	3084.4768594414	1
0	17528	3085.524887786758	2
0	17529	3085.762311946592	1
0	17534	3085.835142870168	0
0	17559	3093.4033370142	1
0	17562	3093.592757396345	2
0	17565	3094.515913361821	3
0	17568	3097.139291981979	2
0	17573	3097.628685579656	1
0	17578	3098.244922215407	0
0	17589	3099.07458325385	1
0	17591	3099.097324641694	2
0	17595	3099.326323914696	3
0	17596	3099.83182094306	2
0	17601	3101.444650001529	1
0	17608	3104.39587065772	0
0	17631	3107.019198613091	1
0	17632	3107.293677056615	0
0	17647	3108.472187402983	1
0	17655	3109.790389135736	0
0	17661	3109.821624971482	1
0	17663	3109.884237848626	2
0	17665	3110.717969362112	3
0	17669	3111.478885984221	4
0	17671	3113.035693040303	3
0	17676	3113.635654807263	2
0	17682	3113.847292234358	3
0	17686	3114.241127370077	2
0	17691	3114.248935205767	1
0	17697	3114.877089940696	0
0	17703	3115.991478883047	1
0	17710	3117.343532803666	0
0	17721	3118.420516966654	1
0	17722	3118.693665545903	0
0	17726	3118.748430577028	1
0	17729	3123.317928030283	0
0	17775	3131.761145138372	1
0	17777	3132.951441113352	0
0	17791	3134.854519022739	1
0	17794	3135.45524374569	0
0	17809	3136.908549792254	1
0	17814	3137.17551814043	2
0	17816	3137.809214974013	1
0	17821	3138.153956066209	0
0	17835	3138.868997726637	1
0	17838	3143.414135545421	0
0	17844	3143.794774352324	1
0	17845	3144.197781176152	0
0	17877	3147.931989514234	1
0	17879	3147.940545536509	2
0	17881	3148.475970693272	3
0	17887	3151.172118321913	2
0	17893	3152.074747406656	3
0	17894	3152.280742709971	2
0	17900	3153.492745719823	3
0	17902	3154.301957716149	2
0	17908	3154.533618216157	3
0	17913	3155.370412035755	4
0	17914	3155.380086290479	3
0	17919	3155.526485719237	2
0	17923	3155.909973064449	3
0	17925	3156.938308562146	4
0	17927	3157.778284696932	5
0	17929	3159.297245036593	6
0	17934	3159.907739164399	7
0	17938	3162.012790486919	6
0	17942	3162.01930761947	7
0	17944	3162.595245487966	8
0	17948	3163.290595886513	9
0	17952	3164.634668559585	8
0	17957	3164.80788517345	7
0	17962	3165.901434091047	6
0	17968	3168.086199438729	7
0	17970	3168.464292458967	8
0	17974	3168.725692025686	9
0	17975	3168.760572702877	8
0	17979	3169.153549478287	9
0	17983	3171.856782447982	10
0	17985	3172.053120797065	11
0	17992	3176.071839460833	10
0	17997	3177.843947465655	9
0	18001	3178.273991154632	10
0	18004	3178.605959745406	9
0	18008	3179.222592576425	10
0	18012	3179.623499613934	9
0	18018	3179.83602438384	10
0	18019	3180.060627760176	9
0	18025	3180.796809207232	8
0	18030	3181.351395007805	7
0	18038	3185.02955204682	6
0	18045	3185.397546379378	7
0	18047	3185.449174990415	8
0	18048	3186.188982781094	7
0	18053	3186.196154714837	6
0	18060	3186.478342369098	7
0	18061	3187.052685173963	6
0	18067	3187.620078559962	5
0	18072	3188.444872509213	4
0	18077	3188.491083831202	3
0	18081	3188.549154708869	4
0	18083	3189.015097219727	5
0	18085	3189.385935685508	6
0	18088	3191.35298902299	5
0	18095	3192.280246188562	6
0	18096	3192.453644035381	5
0	18101	3193.763080846461	4
0	18108	3194.545453351898	5
0	18109	3195.622940719626	4
0	18115	3196.414142992816	5
0	18118	3198.132379722395	4
0	18127	3199.510564199846	3
0	18133	3200.919323445615	4
0	18134	3202.739381382012	3
0	18138	3204.118561173203	4
0	18141	3204.162454884149	3
0	18147	3204.850665190777	4
0	18149	3205.35278522856	3
0	18154	3208.347123966722	2
0	18159	3209.77221626552	1
0	18164	3210.035427734928	0
0	18168	3210.645806150529	1
0	18170	3211.243251609011	2
0	18176	3211.753606642981	3
0	18177	3212.262443953119	2
0	18181	3214.806064706789	3
0	18188	3217.913871396406	2
0	18192	3218.891543859321	3
0	18200	3220.322118320883	4
0	18201	3220.441177240186	3
0	18206	3220.951559672736	2
0	18211	3222.296340785054	1
0	18220	3223.028043983239	2
0	18221	3223.237144024201	1
0	18226	3224.048040444047	0
0	18232	3225.517279598517	1
0	18239	3227.158634881499	2
0	18240	3227.440849040348	1
0	18245	3227.704239131898	0
0	18253	3228.153231889707	1
0	18254	3228.824742270508	0
0	18285	3231.746564677253	1
0	18286	3232.610320501953	0
0	18294	3234.689216398255	1
0	18297	3234.876993043023	2
0	18299	3235.076762891624	3
0	18303	3236.130668881768	4
0	18305	3236.160159109114	5
0	18311	3237.923340928528	4
0	18317	3238.456340556681	3
0	18324	3238.672390514197	2
0	18328	3238.988102209468	3
0	18330	3239.646042637436	4
0	18333	3242.856026198005	3
0	18338	3243.154614510203	2
0	18342	3243.232480030015	3
0	18344	3243.497767723822	4
0	18346	3243.587014930404	5
0	18351	3246.035761200437	4
0	18355	3246.701045443271	5
0	18360	3248.567342623008	6
0	18364	3249.009383653569	7
0	18365	3249.579501739741	6
0	18371	3249.598468179213	7
0	18372	3250.182249268082	6
0	18376	3251.14827114772	7
[...]
4	164280	28245.058559422764	130.31065984073
4	164356	28261.32827890226	141.37387235228
4	164366	28261.963014002833	140.76764130091
4	164378	28262.179032053073	138.88102174458
4	164384	28262.886582004676	131.18697149791
4	164391	28263.628906282846	130.53170570663
4	164410	28268.031799904571	134.24434319804
4	164486	28278.227500572927	139.4990222122
4	164503	28280.141166744371	131.3810164491
4	164536	28282.687180413005	130.77739930058
4	164543	28283.396564226558	131.36092787145
4	164628	28302.236270966518	123.33417145341
4	164634	28302.83646404242	118.97840527877
4	164641	28303.416650082546	119.24246325777
4	164652	28303.816586269953	118.02150862181
4	164657	28303.971249476969	115.29346937261
4	164666	28305.025118803595	103.16666841212
4	164680	28312.582069715098	108.92762102202
4	164705	28315.275642302261	106.73981851674
4	164726	28317.062447422833	103.04291086283
4	164784	28324.643218186651	108.20229089561
4	164789	28324.693916764643	103.03975441369
4	164794	28325.108581248583	97.749658368121
4	164805	28328.283295342065	93.683152786549
4	164813	28328.975899710776	88.677614424932
4	164835	28334.018420847769	89.856894939431
4	164851	28337.172359391192	92.054533362679
4	164862	28338.189001516322	90.798897387029
4	164870	28340.319001754646	90.355188218873
4	164876	28341.200037602942	88.475452495388
4	164881	28341.32395704124	86.148697908205
4	164897	28344.655292586948	86.704717625492
4	164958	28353.021366223762	92.718647056616
4	166431	28655.638781772909	394.08193791176
4	166439	28656.559017435231	394.57330037496
4	166456	28658.325601607458	395.13729017837
4	166480	28662.27811199306	389.79482507363
4	166486	28662.703278810611	386.2328476108
4	166493	28662.937583268898	386.29835669892
4	166512	28667.139313484716	387.88128448357
4	166517	28667.327462633933	375.84981976644
4	166538	28671.789481126429	367.62049945888
4	166798	28715.051832895453	410.42434359337
4	166808	28716.450207301718	407.99211320027
4	166840	28724.002590681399	402.40882975149
4	166848	28724.702897146703	399.35155957211
4	166857	28725.000162501804	395.41902164353
4	166872	28727.761830481565	392.26981476261
4	166880	28729.781152695963	391.5592971468
4	166890	28730.025474978376	383.31289375676
4	166899	28730.628533568237	379.87362083858
4	166932	28735.080471057793	384.08238757973
4	166950	28737.145433590316	382.71029584355
4	166955	28737.804161975674	381.82816989615
4	166960	28737.817997682458	381.03623644252
4	166965	28740.470314533256	382.69882487865
4	166972	28746.815122601403	384.39059748498
4	166987	28747.755645502624	378.40278186167
4	166998	28749.140787465309	378.50523159185
4	167003	28750.0134762813	376.17663719454
4	167011	28752.485317037067	376.61825706711
4	167022	28753.332023105545	373.53591305447
4	167027	28753.382727165046	371.60741419912
4	167043	28756.027309955869	372.88370320438
4	167084	28761.248900567056	377.64440739785
4	167092	28761.812484066775	373.30842566309
4	167102	28762.496361690839	373.80339611998
4	167109	28763.061406639292	370.17876221194
4	167115	28763.927560075429	368.54953854723
4	167123	28764.834062383263	366.40569926055
4	167128	28765.019846333338	364.86498681417
4	167136	28766.042296999681	359.31463930387
4	167231	28780.260477501877	367.76965042401
4	167242	28782.902803765551	352.26167828337
4	167261	28786.50966400601	355.65851362388
4	167268	28787.350735945951	354.24849457585
4	167325	28794.854433329351	356.96906796514
4	167346	28798.423531894772	352.38210190963
4	167446	28815.028583937252	368.40229698354
4	167455	28816.949954113099	357.5737152234
4	167460	28818.457918644965	357.88770670147
4	167465	28818.60030530301	357.77742271436
4	167472	28819.046274847579	352.5440421154
4	167498	28823.237376637883	352.44142778755
4	167552	28831.22501467191	355.10089429159
4	167570	28833.031763518686	352.17996400697
4	167577	28833.499094189934	348.48982962184
4	167586	28834.936509638923	347.35902686152
4	167591	28835.012525582338	344.11260001614
4	167599	28835.586692136718	337.9829498548
4	167604	28835.951707767128	335.4419655429
4	167614	28839.039194094518	329.23229158834
4	167640	28843.429682001014	326.47295233472
4	167660	28844.923163949926	326.14274080656
4	167676	28847.469405113874	322.18108952743
4	167750	28861.57051907399	334.40978677682
4	167756	28861.881276958357	324.5397404261
4	167763	28863.150770172749	320.75981003601
4	167773	28863.540592173245	320.41970718213
4	167779	28864.066334809542	316.68102366136
4	167785	28864.16922188132	316.01297239314
4	167791	28865.538808458583	309.88826658057
4	167796	28865.662233086427	309.04502682623
4	167802	28867.600688884712	307.53091699796
4	167809	28870.090288294417	309.02147067441
4	167821	28873.246927878064	309.04302099469
4	167826	28873.65252534009	307.88488029206
4	167836	28876.57930480518	308.2242730471
4	167844	28879.808401380328	305.97821567205
4	167851	28879.982950715219	302.58137920327
4	167870	28881.366309657869	303.5685065611
4	167947	28893.013860385198	312.85307996904
4	167958	28893.472800846801	312.63164569708
4	168029	28900.745687766014	317.7422976122
4	168034	28901.197946991505	316.78934420833
4	168039	28901.639871369841	316.00097039539
4	168045	28903.099067369689	308.30966981007
4	168051	28903.690951097667	302.59834241356
4	168060	28904.561143604169	294.74010305419
4	168117	28910.764359986902	298.47091176867
4	168129	28911.303362401717	298.32008956257
4	168138	28912.752726196174	294.88128104356
4	168149	28913.338202150561	294.21444010046
4	168159	28915.202146425803	292.5341565949
4	168190	28919.317879514803	295.30522306946
4	168227	28923.552580051383	296.04088316574
4	168234	28923.69200024638	288.6873116545
4	168265	28926.157140420017	287.86682172142
4	168275	28926.400443052627	282.89963432714
4	168282	28928.47221020084	284.7096227771
4	168298	28930.772653368657	282.24189531171
4	168305	28932.136919441428	283.15537093194
4	168332	28934.966156012655	277.83839323875
4	168341	28937.217493077823	278.98166634817
4	168347	28939.11665870102	273.76356295556
4	168352	28940.649946142581	273.13631990563
4	168359	28942.944751702529	271.93130311388
4	168373	28945.406401972805	270.96700136613
4	168380	28946.555821425872	264.26117452044
4	168386	28947.88975820035	265.42066583899
4	168393	28948.680812209372	264.76792487431
4	168409	28949.849529071021	263.59004417846
4	168748	29019.177284119293	332.87463406685
4	168753	29019.594749117673	331.61953679091
4	168758	29020.794523932185	326.42114354751
4	168767	29022.780945001573	327.84437782458
4	168799	29027.795000630177	330.71526359717
4	168810	29028.705642140056	330.51673800265
4	168815	29028.734757406863	325.25334263564
4	168826	29029.390028907004	322.79199812917
4	168840	29031.169254103192	322.62291938783
4	168850	29032.506855215847	317.13562491693
4	168855	29032.553427206065	314.94801444986
4	168863	29035.778535938349	316.77100988398
4	168874	29036.270457531972	314.86093046864
4	168880	29037.437718670176	312.88185853097
4	168887	29038.084943640251	313.34354105987
4	168893	29039.050528853847	308.79545173846
4	168901	29040.995514936564	283.10958406414
4	168908	29042.147356068021	284.00285691878
4	168919	29042.582141998103	278.02228266136
4	168932	29044.605252783837	275.59620174765
4	168949	29045.819038546891	260.28362397911
4	168958	29047.264625951671	258.33853055853
4	168988	29050.448099262078	253.30607011535
4	169007	29054.286750459629	250.04414389479
4	169017	29056.409587305127	249.48822557916
4	169044	29062.725222105483	254.04716064427
4	169049	29063.290840424062	254.26792720592
4	169062	29068.392645050126	243.92948493885
4	169077	29071.58754890582	246.40566267554
4	169094	29072.928770789292	239.66832292803
4	169103	29074.417234148245	240.61831485536
4	169108	29074.426926879501	234.17066904109
4	169113	29074.906634879321	231.06324645212
4	169121	29076.333746216542	229.7688049856
4	169138	29078.501191277033	230.59668526336
4	169148	29079.527977464037	230.31995375969
4	169153	29079.708084353317	229.19901532527
4	169158	29079.721006253489	227.30303455917
4	169170	29082.761879574846	227.89822802429
4	169180	29082.984260196179	209.81149170852
4	169203	29086.75298175617	212.76720343022
4	169324	29105.567609584727	229.52399816938
4	169341	29107.321461229272	224.48799936565
4	169353	29108.077641512657	223.42938144906
4	169366	29111.120360303263	218.0250475592
4	169385	29114.080977082161	219.56880840809
4	169390	29114.157109494479	209.42222422943
4	169400	29117.243503227552	212.3483267238
4	169412	29118.777410434051	210.28721169909
4	169425	29123.218241926961	211.9421200013
4	169448	29127.300309692	212.28193949589
4	169453	29127.522924327033	212.00656248075
4	169462	29129.38528794139	209.22562279451
4	169468	29130.425392644923	210.0103808092
4	169473	29130.506507514497	207.02596550419
4	169478	29130.534086230634	206.48945080416
4	169485	29131.132034737679	205.90604150898
4	169490	29134.961293658862	206.40285761997
4	169497	29136.2161993509	201.03130747151
4	169502	29136.789801566439	192.6921864644
4	169511	29139.574756528475	193.18924153436
4	169540	29143.031131998813	192.97205973431
4	169556	29143.683119198674	184.7325502295
4	169565	29147.360365890425	186.51734039749
4	169572	29148.596855598091	183.5352141589
4	169584	29150.549418068715	182.06723016424
4	169589	29150.822619416771	179.8328620075
4	169594	29151.843021385374	176.30259033466
4	169601	29154.059654292847	173.7384818861
4	169614	29155.04404713052	168.55042419234
4	169623	29156.896344426031	166.83894659392
4	169636	29158.928298771995	165.459955541
4	169648	29159.214947649016	161.0216142943
4	169663	29162.377260930451	157.54869711022
4	169681	29165.843177370053	157.43838855933
4	169705	29168.926770728095	150.95373453053
4	169727	29172.141005785978	147.65512273193
4	169732	29172.271998117902	146.39698517358
4	169737	29172.591350954787	145.86990405226
4	169742	29172.662593078921	145.11723677475
4	169747	29172.687123945259	143.42583482188
4	169758	29176.925158012651	139.01870033031
4	169782	29180.374293509496	136.56844975015
4	169808	29184.085389758356	139.7588038575
4	169819	29186.37983293654	140.02920180523
4	169824	29186.60498378409	125.07320517079
4	169835	29188.380416582464	126.52978842411
4	170027	29228.648903661419	162.22510792441
4	170037	29228.703248700243	159.68313022848
4	170045	29229.364279782187	156.0170612758
4	170060	29230.894468320361	152.70533142444
4	170076	29232.707386289739	150.42728484248
4	170087	29234.016603677988	151.58561613356
4	170094	29234.658611133023	149.12332972303
4	170101	29236.17716600404	150.42501043699
4	170132	29239.71168365952	153.03999552439
4	170142	29240.074945625754	141.25847028212
4	170147	29240.23140422211	137.60162819386
4	170171	29243.786261247411	141.15271364249
4	170215	29246.586623524849	140.13120817344
4	170224	29249.339238297119	132.07521401313
4	170234	29250.713393908382	132.63793984565
4	170249	29252.359084506638	127.67989210777
4	170259	29254.56157168559	126.69331593398
4	170267	29254.991492692252	125.95806307325
4	170272	29255.037239249476	124.41695130143
4	170279	29255.910055610967	113.9445670476
4	170284	29256.557918033264	102.28005834318
4	170291	29257.407086062007	101.32918494571
4	170301	29257.801702342376	96.220594983947
4	170311	29260.97683389341	96.429271296011
4	170334	29265.553468401231	99.154228098276
4	170345	29266.956586214922	99.321938424441
4	170376	29271.883299785724	101.09463524665
4	170392	29273.683526537223	100.44416872756
4	170397	29273.983801581912	95.669806208049
4	170405	29275.434859397658	87.860691843322
4	170414	29283.395449806882	89.864519086361
4	170439	29287.574392589951	90.561869690168
4	170451	29289.882129462394	83.999713901646
4	170510	29298.169887863685	91.530022031864
4	170519	29299.073356295516	84.461098797867
4	170529	29299.812724020068	83.558796206509
4	170542	29302.388451795704	84.24040840346
4	170557	29305.715963079772	77.247526496007
4	170584	29307.029680028371	78.447586955445
4	170687	29327.158497357675	98.144134850287
4	170696	29328.340532005605	98.68877384658
4	170707	29328.905355065525	98.782798711615
4	170712	29329.001748559425	98.698427521855
4	170721	29329.572770272157	97.818228624413
4	170799	29344.377388548064	106.06194648845
4	170804	29344.406006698592	102.93216778236
4	170809	29344.902507165143	102.89838287745
4	170820	29346.904201312566	104.34151307222
4	170832	29348.739579007464	101.98175164997
4	170865	29352.30510638187	103.04373173456
4	170957	29373.41495451355	123.35084102894
4	170967	29373.870836546784	121.533076087
4	170972	29374.199658662196	119.218150357
4	170984	29375.891979696537	114.70092513961
4	171019	29382.595856747828	120.76855215807
4	171028	29384.155135681977	109.93350247033
4	171072	29392.934581914585	107.97914865725
4	171132	29404.323977737654	117.66693640576
4	171142	29405.835201105091	113.39904195244
4	171173	29409.589290170686	113.63211656457
4	171193	29412.321371406766	113.31638066004
4	171198	29412.445123345351	110.13832831467
4	171218	29416.44344371877	105.98184560041
4	171324	29432.606781404509	120.19966621696
4	171333	29433.729591350248	121.0462415233
4	171349	29436.837909377761	123.6602209075
4	171361	29439.666226535018	122.27517325221
4	171366	29439.681214697407	120.1162629543
4	171374	29442.923454299303	123.18846214041
4	171385	29444.191515721355	124.15072977111
4	171401	29448.102619188318	125.13900359341
4	171426	29449.83286180337	123.00516581563
4	171438	29453.138587185276	126.0342168393
4	171448	29453.974186090977	123.61652025529
4	171456	29456.066620369971	122.16540814428
4	171481	29458.629166203806	123.59614350145
4	171496	29458.899655948576	123.53386320437
4	171512	29461.140245095422	115.97315091213
4	171553	29470.016973840481	124.53695333267
4	171635	29487.11699018385	140.88754528296
4	171645	29489.439928513393	137.70214972288
4	171651	29489.889017647041	131.26027444781
4	171660	29492.104664191281	121.35122867708
4	171679	29493.135016036876	114.24961412427
4	171741	29503.764618275102	120.04681538838
4	171750	29504.275712915212	119.82289194048
4	171765	29505.645137455846	116.06836766312
4	171785	29508.260348245062	116.99173431618
4	171793	29508.683671361477	114.51269739995
4	171803	29509.138693885053	112.79532827871
4	171812	29511.568461543212	113.9845516566
4	171822	29511.917493549131	109.55548081955
4	171834	29514.96702640548	109.97683481839
4	171852	29517.305333391843	109.33710081491
4	171857	29518.002777296719	104.70936009745
4	171862	29520.863374187047	104.88095396794
4	171869	29521.363338240659	105.25645123131
4	171880	29522.591071965054	104.89578601653
4	171891	29525.359341519196	94.880589839652
4	171908	29527.689762664252	96.524673030804
4	171918	29529.879975465244	83.557922700846
4	171925	29533.815757582619	86.119717625519
4	171945	29538.960808016942	90.678605993692
4	172101	29561.725698982339	111.25798628207
4	172109	29562.03088824002	111.17555635761
4	172123	29564.374788940862	104.46338380977
4	172342	29611.692915975566	151.48775220814
4	172352	29612.991750715353	151.58284177267
4	172358	29613.535931923416	148.98181713568
4	172363	29613.922190501373	134.52108150546
4	172370	29615.545791768671	126.96939221946
4	172384	29617.329751037413	114.38056075486
4	172389	29617.641464542589	110.43823315148
4	172394	29617.843594496254	104.99238616258
4	172405	29622.582916136247	99.132049655683
4	172438	29627.290594946048	96.519540955793
4	172458	29632.000632019108	97.730511837395
4	172467	29633.731950223271	96.853637092406
4	172488	29638.540199289811	95.537605589855
4	172506	29639.610755708677	94.531004039104
4	172545	29644.097283813922	98.281337589223
4	172550	29644.907951059863	95.681590580931
4	172555	29645.422492829618	93.509028585284
4	172561	29646.405095235064	89.746367869384
4	172566	29646.76855354553	88.353513396182
4	172583	29655.474769870865	95.755039997869
4	172627	29663.939858732214	100.49230452626
4	172638	29666.225481376674	97.531192494926
4	172643	29667.261036355113	95.205568346723
4	172650	29668.305230973738	89.305624161644
4	172660	29668.618907845187	88.22475680321
4	172671	29672.62576756855	91.330434850309
4	172685	29674.98705807192	86.828999255632
4	172695	29676.298275445914	88.111329541479
4	172706	29679.174897896562	87.239329437323
4	172746	29688.634272700408	86.397278622903
4	172751	29689.383314331265	83.449605201007
4	172756	29689.664214150224	81.636543947478
4	172761	29691.723891304668	83.409389615251
4	172767	29692.222132355094	82.626528564383
4	172774	29694.374838008674	83.968971357118
4	172786	29695.59723471627	79.899283275839
4	172837	29702.594540988369	86.714633665715
4	172849	29703.784546081847	87.154741096398
4	172857	29705.045266915476	80.716406977551
4	172877	29707.136083214676	77.080113938452
4	172882	29707.241102994799	74.084658569068
4	172891	29709.45300620784	73.827578961148
4	172902	29709.979879236198	74.279755276192
4	172907	29710.597340099839	72.269754359072
4	172928	29717.08336608214	76.073816633277
4	173024	29734.957647661512	86.14714442539
4	173034	29736.327149573685	86.467069599599
4	173045	29736.701491711578	85.1820552522
4	173054	29738.829440451539	82.972825532359
4	173060	29739.143343947316	76.532148586634
4	173065	29739.22158097137	66.882168052445
4	173072	29741.19700159912	67.818926362784
4	173078	29742.143482445775	64.818773119827
4	173083	29742.828124792659	57.165139862728
4	173088	29743.723064393834	44.592951935779
4	173093	29744.501521305229	44.409629055458
4	173102	29749.852993070409	46.681959622943
4	173119	29753.798181209398	38.19111044231
4	173166	29758.403854829978	34.561173008802
4	173172	29759.482700243139	29.023302513606
4	173186	29764.783649760924	33.329299012503
4	173197	29765.28485202268	33.282061677196
4	173206	29767.200967927525	33.785101663261
4	173225	29769.133322076916	34.679632172939
4	173253	29775.388201112376	40.067194083302
4	173277	29778.192754465404	40.582685885691
4	173283	29778.915651148818	21.76210626318
4	173288	29779.189241338117	18.663275510224
4	173298	29780.092425452743	17.855138341049
4	173309	29780.384256524399	14.521336543461
4	173318	29784.724263068032	16.243979092938
4	173338	29787.111268133578	18.078943953828
4	173362	29793.267026009732	23.038514838098
4	173367	29793.47639306304	13.458632799488
4	173371	29793.657806947214	2.697123831558
4	173386	29794.333348755772	0.164037939432
4	173405	29798.952297690772	0.68553881292
4	173415	29801.911942285813	2.080149839764
4	173422	29803.042443705431	2.74306604174
4	173451	29806.961359566049	1.630641777976
4	173473	29808.320976620335	0.740977385257
4	173491	29811.175847235749	2.756994219489
4	173497	29811.523346749959	3.103036054469
4	173501	29811.556917441118	1.091803425833
4	173514	29818.628517512404	2.736193152086
4	173575	29830.35981143195	3.03427438069
4	173659	29845.44913525459	7.896567921242
4	173663	29845.643047777498	2.891268470122
4	173696	29852.222754847245	0.489989179444
4	173714	29853.882823985494	0.634133438186
4	173718	29853.899465625522	0.136244921516
4	173761	29863.734434774916	0.108701811814
4	173777	29868.2351348313	0.066013363573
4	173821	29874.196334790568	4.790399072974
4	173856	29880.428208761822	7.927353085248
4	173915	29889.503337808053	0.816226272933
4	173948	29893.328137827863	0.927930849705
4	173980	29897.100836898843	4.526904836653
4	173984	29897.577164560874	2.604017343512
4	174011	29902.026076448532	4.220567666902
4	174052	29909.274232141208	8.937374327146
4	174071	29911.440810076384	5.032132732821
4	174076	29911.617444359605	4.944754532564
4	174081	29911.832665358377	2.824475846913
4	174105	29917.007495122565	1.482794385632
4	174116	29918.369828249792	1.922725555406
4	174123	29918.7927301759	1.997364226443
4	174134	29919.837262158179	1.423865384912
4	174175	29929.159153685452	1.283738668904
4	174239	29942.290657252651	0.309832070699
4	174249	29944.097781199022	0.828315565958
4	174320	29959.739745220493	7.994818805773
4	174327	29960.228792913185	5.599710261366
4	174332	29960.347188331279	4.775570312645
4	174338	29960.760752010658	3.762815398813
4	174346	29961.290224560646	3.222633052163
4	174351	29961.419005371186	1.382967718752
4	174358	29961.670546063946	0.432247798303
4	174365	29967.299000905816	5.665544922647
4	174379	29970.094227527412	5.832317495879
4	174436	29982.391427019376	0.375458890528
4	174462	29985.946331474432	1.989503208509
4	174491	29995.905395238575	1.94765339748

