version 2
run First-n4-3-20191016-17:03:21-800
attr configname First-n4
attr datetime 20191016-17:03:21
attr experiment First-n4
attr inifile omnetpp.ini
attr iterationvars ""
attr iterationvarsf ""
attr measurement ""
attr network org.omnetpp.queueing.Pizza
attr processid 800
attr repetition 3
attr replication ""
attr resultdir results
attr runnumber 3
attr seedset 3
param **.PS.maxInventoriedPS 4
param **.U1.interArrivalTime exponential(2s)
param **.U2.interArrivalTime exponential(4s)
param **.PS.serviceTimeForInventoryU1 exponential(0.8s)
param **.PS.serviceTimeForInventoryU2 exponential(1.0s)
param **.PS.serviceTimeDirectU1 exponential(1.2s)
param **.PS.serviceTimeDirectU2 exponential(1.4s)
param **.PS.probabilityProducing 0.5
param **.CS.serviceTimeU1 exponential(0.8s)
param **.CS.serviceTimeU2 exponential(1.0s)

vector 0 Pizza.EntryQueueU1 queueLength:vector ETV
attr interpolationmode sample-hold
attr title "queue length, vector"
vector 1 Pizza.CS queueLength:vector ETV
attr interpolationmode sample-hold
attr title "queue length, vector"
vector 2 Pizza.EntryQueueU2 queueLength:vector ETV
attr interpolationmode sample-hold
attr title "queue length, vector"
vector 3 Pizza.sink lifeTime:vector ETV
attr interpolationmode none
attr title "lifetime of arrived jobs, vector"
attr unit s
vector 4 Pizza.sink lifeTimeU2:vector ETV
attr interpolationmode none
attr title "lifetime of arrived jobs, vector"
attr unit s
vector 5 Pizza.sink lifeTimeU1:vector ETV
attr interpolationmode none
attr title "lifetime of arrived jobs, vector"
attr unit s
0	0	0	0
0	5	1.600564781785	1
0	7	2.288095598378	2
0	9	2.54678412136	3
0	12	3.43315566706	2
0	16	3.976864716075	3
0	18	4.014716680362	4
0	20	4.283117778383	5
0	22	4.366076235853	6
0	24	4.830553000791	7
0	28	5.400293863054	8
0	32	5.596735977928	9
0	36	6.640850610252	8
0	42	6.99029768227	7
0	47	7.009716986619	6
0	53	7.970466970357	7
0	57	9.180801071354	6
0	62	9.887511426961	5
0	70	11.069266314761	4
0	75	11.30754414352	3
0	83	12.62259038886	2
0	87	15.242909753639	3
0	90	15.800037452771	2
0	98	17.311169449402	1
0	104	17.515139511956	0
0	111	18.553132227287	1
0	112	18.618300420454	0
0	118	19.243169297665	1
0	120	20.4670620962	0
0	140	21.416652938257	1
0	141	21.923973126332	0
0	155	22.738344149705	1
0	157	23.458648510352	0
0	175	26.04264078775	1
0	176	26.309714233606	0
0	182	26.350340712659	1
0	183	26.532084911998	0
0	214	31.456675411738	1
0	216	31.667628332224	2
0	217	31.720774415107	1
0	222	32.36542897553	0
0	231	34.02716857456	1
0	233	36.218150550083	2
0	236	37.140370966691	1
0	241	37.385467919974	0
0	247	38.507118205711	1
0	248	38.756332716788	0
0	260	43.023555493303	1
0	263	45.76334114217	0
0	267	45.9868649925	1
0	272	47.995282219346	2
0	274	48.432541173906	3
0	278	49.321001137185	2
0	288	50.84389489225	1
0	293	51.380805032475	0
0	304	51.953319969524	1
0	306	52.555114277011	0
0	349	56.312252647186	1
0	350	56.725631350358	0
0	371	59.038165192153	1
0	372	59.998823077906	0
0	410	71.772663645508	1
0	412	72.073070569033	2
0	413	72.154014722972	1
0	418	72.589221168653	0
0	431	73.619459676287	1
0	433	75.017156015337	0
0	463	79.46200507237	1
0	464	79.604911793181	0
0	470	80.36421583004	1
0	471	81.113612652883	0
0	486	83.107870527569	1
0	487	84.169957437299	0
0	491	84.638166258567	1
0	494	84.834734260544	0
0	498	87.621189970848	1
0	500	88.777268345653	2
0	507	91.558092459849	3
0	508	91.657890274205	2
0	513	92.411127988788	1
0	519	92.668215824996	0
0	531	93.969452855589	1
0	533	94.53765212104	0
0	621	106.838370831438	1
0	623	106.995998867462	2
0	630	109.271756153753	3
0	631	111.3425094123	2
0	639	111.645102593714	3
0	644	112.043810967191	4
0	645	112.106512740063	3
0	650	112.221810603294	2
0	657	112.953589180554	3
0	658	113.026571756605	2
0	666	113.567524277838	3
0	667	113.878251024573	2
0	671	113.881510278357	3
0	676	114.134530753452	2
0	682	115.585308717149	1
0	688	115.811767382985	0
0	694	116.302968938097	1
0	696	116.43000056079	2
0	698	116.57593728596	3
0	699	117.103312606603	2
0	703	117.274182903344	3
0	710	122.132735802355	2
0	717	124.536591654461	1
0	723	126.138760509887	2
0	725	126.952241266595	3
0	728	127.245636506212	2
0	732	127.330977714964	3
0	734	128.3736631351	4
0	736	128.459623278303	5
0	739	130.633954432688	4
0	745	132.344111252866	5
0	747	132.991633557416	4
0	754	134.202947461439	3
0	762	134.570975874289	4
0	767	135.844343476367	3
0	774	136.076550776344	2
0	779	139.054366329511	1
0	785	139.820121095051	2
0	786	140.128525795646	1
0	791	141.834106051784	0
0	809	144.599852731029	1
0	810	144.726654609888	0
0	818	146.809843442466	1
0	819	146.851766065605	0
0	823	147.385711490769	1
0	828	150.393837280662	0
0	843	152.432689037717	1
0	844	152.806676556036	0
0	861	154.022287165058	1
0	864	155.379920155566	0
0	868	156.004542844675	1
0	871	157.254252153935	0
0	875	157.923543364866	1
0	878	158.826497480944	0
0	886	160.398993565045	1
0	887	160.481738546365	0
0	895	161.601995964005	1
0	896	161.679605104508	0
0	904	162.797084324552	1
0	906	162.801339970516	2
0	909	164.514596693843	1
0	915	164.779199841846	2
0	916	164.876422681603	1
0	921	165.624279234941	0
0	929	166.468108792826	1
0	930	167.400748600539	0
0	936	167.473363402747	1
0	937	168.492723918201	0
0	943	169.693515540089	1
0	944	170.240469286079	0
0	965	171.983456838257	1
0	966	172.021604786393	0
0	978	173.341358973315	1
0	982	174.317766821275	2
0	983	174.511884927103	1
0	992	175.130686106792	0
0	1028	179.924802429824	1
0	1031	180.92151617589	2
0	1032	182.606117420672	1
0	1037	183.286633511563	0
0	1101	193.104111154911	1
0	1103	193.321476348004	2
0	1105	194.012824215979	3
0	1108	194.808429532303	2
0	1114	195.248510419863	3
0	1115	195.267549420686	2
0	1120	195.692893034577	1
0	1125	195.828574722675	0
0	1147	199.64161251348	1
0	1149	199.827556573235	2
0	1151	200.139854868271	1
0	1157	200.770531036487	0
0	1176	202.563411459407	1
0	1179	203.291418887512	2
0	1180	203.313191511799	1
0	1186	203.479144758403	2
0	1188	203.912055591175	1
0	1193	203.9803195605	0
0	1197	205.294906176015	1
0	1201	205.649561581736	0
0	1205	205.983501904016	1
0	1210	208.419871536556	0
0	1249	212.383322843189	1
0	1251	212.878852165999	0
0	1266	216.468408597857	1
0	1267	216.661667613008	0
0	1273	217.137539183502	1
0	1274	217.155770114841	0
0	1292	222.509960099833	1
0	1294	222.778182805787	2
0	1296	222.923580148937	3
0	1298	223.475923156041	2
0	1303	223.566247559946	1
0	1310	223.864896856916	0
0	1331	226.06338275887	1
0	1334	226.181273653674	2
0	1338	228.023281057061	3
0	1339	228.329519340038	2
0	1345	229.225383504275	3
0	1346	229.484004566891	2
0	1350	229.705760141598	3
0	1357	232.417711233095	2
0	1361	233.399328650935	3
0	1363	234.17975797899	4
0	1367	234.75005392143	5
0	1368	235.124949797638	4
0	1373	235.861324164389	3
0	1377	236.206027069285	4
0	1379	236.906351650057	5
0	1382	237.764482083335	4
0	1389	238.902039172287	3
0	1397	239.945506172308	2
0	1405	241.186119420306	3
0	1406	241.431556357619	2
0	1411	242.267470304416	1
0	1416	243.332022571101	0
0	1430	245.847044698156	1
0	1431	246.85480004238	0
0	1437	247.366993249802	1
0	1438	248.937855342644	0
0	1459	251.772561813262	1
0	1463	252.773842275809	0
0	1496	255.993330076158	1
0	1497	256.932767464169	0
0	1511	258.148924289304	1
0	1513	258.489887157672	2
0	1515	258.533273879431	3
0	1516	258.603164566665	2
0	1523	259.193754423897	3
0	1527	260.086499022261	2
0	1533	261.292665424856	3
0	1534	261.731270251703	2
0	1542	263.570866691994	1
0	1548	263.921390734919	0
0	1580	268.614887927279	1
0	1583	271.238378346865	0
0	1597	272.241849476044	1
0	1598	272.816435180889	0
0	1629	279.10075279834	1
0	1634	280.373260720407	2
0	1635	280.592186449342	1
0	1640	280.65731268606	0
0	1696	294.349811851678	1
0	1697	296.094495862872	0
0	1703	296.268187134137	1
0	1706	296.759107777261	0
0	1721	297.673140353657	1
0	1722	299.026538641348	0
0	1728	299.551513740172	1
0	1730	300.123531467747	2
0	1733	300.799009658137	1
0	1738	301.289555598058	0
0	1750	302.623585174913	1
0	1751	303.255981748034	0
0	1784	311.51514997688	1
0	1785	312.004997420535	0
0	1822	315.932295974715	1
0	1823	316.25467015624	0
0	1866	327.446693212025	1
0	1872	329.502702724189	2
0	1874	330.304343097568	3
0	1877	331.842113007178	2
0	1882	331.920180200804	1
0	1887	332.198191478765	0
0	1901	333.09473602837	1
0	1904	333.680218577762	0
0	1917	335.189419697125	1
0	1922	337.308146452407	0
0	1933	338.488462745536	1
0	1938	339.315267328402	0
0	1954	342.317629449199	1
0	1962	343.490553581628	2
0	1964	343.509181875413	3
0	1966	343.61118784297	4
0	1969	343.997524376989	5
0	1974	345.206573480892	4
0	1980	345.595135547548	3
0	1986	346.032787120832	2
0	1992	346.361881096738	1
0	1999	347.850175907917	0
0	2005	348.801321826947	1
0	2008	348.874898019528	0
0	2023	350.955509966775	1
0	2025	350.992936348317	2
0	2028	351.258520521298	3
0	2030	351.286385914046	4
0	2032	352.420986457982	3
0	2039	352.849032482011	4
0	2040	352.960125869635	3
0	2045	353.257001584867	2
0	2052	353.768731983264	1
0	2057	354.100619804805	0
0	2103	360.496943176008	1
0	2105	361.104490925706	2
0	2106	361.167971758834	1
0	2113	362.390204547779	0
0	2147	371.564145584941	1
0	2148	371.587554239354	0
0	2154	371.915535153096	1
0	2155	372.579743789547	0
0	2176	375.875813067874	1
0	2178	377.637906222919	2
0	2181	379.165009547613	1
0	2185	379.275512857048	2
0	2190	381.23416520383	1
0	2195	382.402657714638	0
0	2199	384.423600140082	1
0	2203	386.025826509856	0
0	2242	390.987397568431	1
0	2243	392.309096792366	0
0	2247	392.438149420174	1
0	2249	392.481314079368	2
0	2254	395.177578692341	1
0	2258	395.4167584688	2
0	2262	397.440866825398	1
0	2268	398.12006726192	2
0	2270	398.459404022276	3
0	2271	398.750313344945	2
0	2275	399.221063766857	3
0	2278	399.255479475011	2
0	2285	400.445249300093	1
0	2291	400.906568823488	2
0	2294	401.152883301926	1
0	2300	403.500943034349	2
0	2304	404.222727679737	3
0	2306	404.654131538342	4
0	2309	405.493833887046	3
0	2315	408.444494901958	2
0	2319	409.007263256528	3
0	2325	410.09126496182	4
0	2326	410.093671422627	3
0	2330	410.791870092345	4
0	2332	410.930776154954	5
0	2336	412.053680546336	4
0	2344	412.616656596598	5
0	2348	414.848761675247	4
0	2353	415.582298531235	3
0	2360	416.563556737044	2
0	2367	418.813594171955	1
0	2372	419.945154531075	0
0	2410	425.684358589266	1
0	2413	426.381236224045	2
0	2416	428.441452364986	3
0	2420	429.881931827593	4
0	2421	430.152855294935	3
0	2426	430.194510540209	2
0	2431	430.286098200119	1
0	2437	431.75154721187	0
0	2483	434.91992406194	1
0	2485	435.429888394353	0
0	2491	435.529933970064	1
0	2492	435.976973143028	0
0	2519	439.554461782615	1
0	2521	439.581155144043	0
0	2528	441.153381845988	1
0	2530	441.750374324714	2
0	2534	443.057535880914	3
0	2535	443.192573430224	2
0	2541	443.549366088908	3
0	2543	443.934393970303	2
0	2550	444.88429405811	1
0	2556	447.839378346267	2
0	2557	447.847485129392	1
0	2563	449.277890959618	2
0	2566	450.48334496581	1
0	2571	450.710450441808	0
0	2582	452.648495656664	1
0	2584	452.900126531286	2
0	2588	454.623029250011	1
0	2593	454.984565186729	0
0	2597	455.075367938353	1
0	2601	458.980431956197	2
0	2603	459.406658488722	3
0	2606	461.717083489171	2
0	2611	462.057459999891	1
0	2615	462.635504992602	2
0	2619	462.680690599385	3
0	2621	464.469773371486	2
0	2626	464.825352557197	1
0	2630	465.359041552362	2
0	2632	466.151961230204	3
0	2636	466.381016987408	2
0	2641	466.512656459624	1
0	2645	466.69544595768	2
0	2650	468.409406432166	1
0	2655	469.604636029225	0
0	2666	471.08097972164	1
0	2667	471.980007494398	0
0	2673	473.375651037418	1
0	2674	473.478578429335	0
0	2681	474.599177272558	1
0	2683	474.684045121971	2
0	2684	476.266268809817	1
0	2690	476.8687302701	2
0	2691	476.894220152561	1
0	2696	477.331004754685	0
0	2700	477.472679110099	1
0	2703	478.041862381345	0
0	2719	479.422410836391	1
0	2723	479.726327619665	0
0	2732	480.887107802795	1
0	2733	481.52902336865	0
0	2740	483.127447226289	1
0	2741	483.300884943887	0
0	2753	485.446525538198	1
0	2754	485.474667027911	0
0	2774	488.086873457791	1
0	2776	488.217403665076	2
0	2781	489.963670247067	1
0	2785	490.306847689201	2
0	2790	490.596351536216	1
0	2803	492.621287482405	0
0	2822	494.692819468626	1
0	2827	497.779973153344	0
0	2841	499.456999744075	1
0	2846	501.938322470211	0
0	2856	503.746034599693	1
0	2857	504.372191729107	0
0	2885	506.726601839168	1
0	2886	507.55717825711	0
0	2898	509.210517977946	1
0	2900	509.34525383508	2
0	2903	509.832365555945	1
0	2908	510.446863570986	0
0	2923	513.071523675254	1
0	2927	513.900922996882	0
0	2934	514.169082312237	1
0	2936	514.745840227325	2
0	2938	515.554558283148	3
0	2939	515.980582563971	2
0	2944	516.810912114255	1
0	2950	516.986442932131	2
0	2951	517.181559690452	1
0	2959	518.201206866126	0
0	2965	518.327307342169	1
0	2966	518.723643149622	0
0	2975	520.383474297841	1
0	2977	521.305499364195	2
0	2979	521.978906728315	1
0	2987	523.775205532831	0
0	2998	524.996153797809	1
0	2999	525.097296188101	0
0	3019	526.509897272305	1
0	3025	529.763337387014	0
0	3056	535.210668167998	1
0	3058	535.834415315899	2
0	3059	537.289895561431	1
0	3066	537.867365773063	2
0	3067	538.141443944147	1
0	3073	538.582940312119	2
0	3074	538.823755915502	1
0	3079	539.112078907812	0
0	3091	540.905164305637	1
0	3094	541.549651887199	0
0	3103	542.476421784238	1
0	3106	544.398696969995	0
0	3112	544.403855028335	1
0	3114	544.743990800069	0
0	3120	545.928590170325	1
0	3122	546.088278653046	2
0	3125	547.841321049265	1
0	3129	549.007687929894	2
0	3132	549.675082664418	1
0	3138	550.44466418785	2
0	3139	550.630281899085	1
0	3149	552.671603004523	0
0	3155	552.718272845117	1
0	3157	553.638846325872	2
0	3158	553.899492087523	1
0	3162	554.330662035548	2
0	3168	555.580790539028	1
0	3174	555.663517581666	2
0	3175	556.46042812934	1
0	3183	557.154134708676	0
0	3194	557.645424406304	1
0	3196	557.860001140507	2
0	3197	558.111879811503	1
0	3202	558.272363557006	0
0	3206	559.984077386439	1
0	3208	560.28505629125	2
0	3211	560.676903640235	1
0	3217	562.802038781121	0
0	3228	564.262163171881	1
0	3229	565.342133535063	0
0	3259	570.786943581995	1
0	3260	571.232869371106	0
0	3292	575.708672939375	1
0	3299	577.480208962361	2
0	3303	577.969498828822	1
0	3309	578.621689552631	2
0	3311	578.766718799822	1
0	3317	579.133615170104	0
0	3336	581.387267093034	1
0	3338	582.380007353053	2
0	3340	582.614155044396	3
0	3344	583.868026041994	2
0	3350	584.145632518517	3
0	3357	585.776495455372	4
0	3361	586.416719680587	3
0	3367	587.398398630496	4
0	3368	587.455488041734	3
0	3373	588.150662243477	2
0	3379	589.039702791544	3
0	3384	590.144198838495	2
0	3389	590.951857098044	1
0	3393	592.110190184765	2
0	3396	593.341353272594	1
0	3401	593.447402286712	0
0	3417	594.730931868089	1
0	3420	596.670662534388	0
0	3435	599.701077053374	1
0	3437	602.172304499891	0
0	3475	609.701301743684	1
0	3476	611.089050833573	0
0	3482	611.294846362999	1
0	3485	611.732020872468	2
0	3489	612.494849774503	3
0	3490	612.565155789777	2
0	3496	612.819310232542	3
0	3499	614.1427969434	2
0	3504	614.373914603031	1
0	3511	616.227470808804	0
0	3518	616.351075616226	1
0	3521	616.635936750924	2
0	3524	617.460848332626	1
0	3530	617.898840233291	0
0	3536	618.953947142956	1
0	3537	619.376035716772	0
0	3555	620.385186496799	1
0	3556	620.762476840037	0
0	3636	641.371031879398	1
0	3640	641.579526707726	2
0	3643	642.669287627476	3
0	3644	643.928428397023	2
0	3649	643.931466958205	1
0	3654	644.554227833027	0
0	3723	660.580083150266	1
0	3727	660.92833309407	2
0	3731	661.529683280668	1
0	3736	661.763071890886	0
0	3770	665.28216531782	1
0	3771	665.65299325686	0
0	3777	665.927146420719	1
0	3778	666.307625775357	0
0	3784	666.609253962335	1
0	3788	667.84397240316	2
0	3790	668.379664970082	1
0	3795	669.557358341726	0
0	3802	670.576029360099	1
0	3804	670.794442337745	0
0	3837	681.096711759942	1
0	3838	681.207418864282	0
0	3853	682.934164233024	1
0	3855	683.144952678433	2
0	3857	684.367551016705	3
0	3858	684.485605087941	2
0	3864	684.57697750308	3
0	3866	685.116448254149	4
0	3867	685.827383151908	3
0	3872	685.925749181022	2
0	3877	686.098334434975	1
0	3881	686.654996425689	2
0	3883	686.962612661555	3
0	3886	687.850800273366	2
0	3892	689.693933446411	3
0	3894	690.677444460873	4
0	3895	690.723242781853	3
0	3903	691.704265998876	2
0	3909	692.429421684359	3
0	3913	692.723688291076	4
0	3914	692.733875814517	3
0	3919	694.477352309478	2
0	3927	695.543993755187	3
0	3931	697.194652986088	4
0	3932	698.325062016068	3
0	3937	699.651417811161	2
0	3946	700.124558737267	3
0	3950	701.190919071443	2
0	3956	701.622550520323	3
0	3958	701.755790713755	4
0	3959	701.907453724945	3
0	3968	703.589235271978	2
0	3974	705.430394462438	3
0	3979	708.774209046901	2
0	3986	711.888887357918	1
0	3990	712.660688782375	2
0	3994	714.630697354869	3
0	4001	715.46219016959	4
0	4003	715.942555384887	3
0	4008	716.462459913131	2
0	4014	716.56788190433	3
0	4015	717.147753303994	2
0	4021	717.488273550101	3
0	4022	717.580693274936	2
0	4031	721.581725911191	1
0	4038	722.963319837486	0
0	4046	725.058703907748	1
0	4048	725.629802363008	2
0	4049	725.986761246611	1
0	4054	726.150377649978	0
0	4114	731.037547350621	1
0	4122	732.510462976565	2
0	4124	732.871124353378	1
0	4129	733.144347113815	0
0	4141	733.474862122943	1
0	4143	734.457212200974	0
0	4201	745.421567439595	1
0	4204	747.347051901029	0
0	4220	749.127977005899	1
0	4225	750.072356124001	2
0	4226	750.592250989	1
0	4231	750.780386566125	0
0	4239	752.551642284894	1
0	4240	752.614763202347	0
0	4249	752.702904701119	1
0	4253	753.016530717312	2
0	4257	753.843789210038	1
0	4262	754.06056692368	0
0	4290	756.566148917662	1
0	4291	757.816633311565	0
0	4297	758.022686416803	1
0	4298	758.585557977223	0
0	4315	760.273449258265	1
0	4316	760.33309285063	0
0	4325	760.673306364529	1
0	4329	760.974198733638	2
0	4330	761.006201351257	1
0	4335	761.233033162395	0
0	4341	762.806634099631	1
0	4344	763.746573662049	0
0	4348	763.855327620381	1
0	4350	763.98139270898	2
0	4352	764.214842907022	3
0	4356	766.380474584728	4
0	4357	766.701916648606	3
0	4366	768.461543633701	2
0	4372	769.136029845056	1
0	4377	769.332398659859	0
0	4398	772.988477897936	1
0	4401	773.36669032765	2
0	4403	773.738923964639	3
0	4404	773.990763800555	2
0	4409	774.279221654194	1
0	4415	774.309107426146	2
0	4416	774.645354438726	1
0	4423	775.574668238546	0
0	4440	777.870929919968	1
0	4443	778.810018970106	0
0	4454	780.340322377247	1
0	4459	781.858866334176	0
0	4499	788.151208948138	1
0	4500	788.276412873125	0
0	4531	792.55996441323	1
0	4535	793.237475785678	2
0	4537	793.714787332494	1
0	4544	794.096025424162	0
0	4565	795.773699852428	1
0	4567	795.792055065612	2
0	4572	796.779729940181	1
0	4579	796.886112343877	0
0	4601	797.894593717525	1
0	4603	799.175020595096	0
0	4620	802.106567512759	1
0	4621	802.471359488703	0
0	4668	808.701113176009	1
0	4669	809.233451429282	0
0	4677	809.37993758002	1
0	4678	809.885914860536	0
0	4707	814.655124773541	1
0	4708	814.841940374662	0
0	4722	817.811872954054	1
0	4725	818.11722086849	0
0	4729	818.133108659498	1
0	4731	818.170682997969	2
0	4734	818.419188608438	1
0	4740	820.181324775633	2
0	4741	820.214873958004	1
0	4750	821.730128911826	0
0	4762	825.833558958776	1
0	4763	825.931302353101	0
0	4780	828.924687845494	1
0	4783	829.833578619383	0
0	4789	831.035110674889	1
0	4790	831.420310442057	0
0	4810	833.23284999572	1
0	4812	833.397477688724	2
0	4816	833.827845474111	3
0	4818	834.19409649472	4
0	4820	835.141819783987	3
0	4829	836.08988888661	4
0	4833	836.291683187418	5
0	4834	836.352540583252	4
0	4839	836.926503229995	3
0	4843	837.423258016386	4
0	4846	839.584942986893	3
0	4850	839.966135995478	4
0	4854	842.250091933964	3
0	4859	842.31618450815	2
0	4867	844.292234468656	3
0	4868	844.437761190577	2
0	4874	845.810403341068	3
0	4877	847.240409478113	2
0	4881	848.476794821615	3
0	4885	849.234513200796	4
0	4888	849.578854159688	5
0	4889	849.674951477772	4
0	4894	850.170288383238	3
0	4900	850.276982680278	4
0	4901	850.345734107068	3
0	4906	850.75124355483	2
0	4911	851.140686402181	1
0	4916	851.707395860561	0
0	4936	855.611774040732	1
0	4938	855.879400169206	2
0	4939	856.187192254265	1
0	4944	856.293337609755	0
0	4965	860.620964869691	1
0	4967	861.235307350386	0
0	4989	862.52127579155	1
0	4991	862.642946363122	2
0	4993	862.725465031608	3
0	4997	864.502794957963	2
0	5003	865.392060331281	3
0	5007	866.65575035011	2
0	5013	867.556088388709	1
0	5018	867.675163624139	0
0	5029	868.377997658801	1
0	5030	869.04585645147	0
0	5039	869.221305648815	1
0	5041	869.340733486289	2
0	5044	870.554958127059	1
0	5049	871.783049680632	0
0	5055	872.009780264252	1
0	5060	873.751739327314	2
0	5061	873.876120490523	1
0	5066	874.129780451641	0
0	5070	874.851820374804	1
0	5073	875.269888831118	0
0	5077	875.319085867724	1
0	5082	875.730420172909	2
0	5084	876.267066310578	1
0	5088	877.373583184195	2
0	5092	879.738746563491	3
0	5095	879.97379970535	4
0	5097	880.01381537527	5
0	5103	880.754896307347	6
0	5104	880.788318003813	5
0	5109	883.397609181109	4
0	5118	885.025105652928	3
0	5123	885.291496117354	2
0	5128	885.312215088169	1
0	5134	885.96453677075	2
0	5136	886.001549022855	3
0	5138	886.156257705622	4
0	5143	886.49057545654	3
0	5147	887.175445442992	4
0	5149	887.267746930322	5
0	5151	887.402538534521	6
0	5154	887.485379349204	5
0	5158	889.797168171978	6
0	5165	891.426175296836	5
0	5172	893.030486651471	4
0	5177	894.696628825642	3
0	5184	895.694171269125	2
0	5192	897.785889272601	3
0	5193	897.825465839671	2
0	5197	897.917191693357	3
0	5199	897.968420785298	4
0	5202	898.744135097636	3
0	5207	899.320832472926	2
0	5213	899.651968641015	3
0	5215	899.916701535537	4
0	5218	901.863953607661	3
0	5223	903.547286462822	2
0	5227	904.04326857338	3
0	5230	904.498887917539	2
0	5234	905.388585905042	3
0	5236	905.479615469995	4
0	5239	907.249155406793	3
0	5245	907.998486059965	4
0	5249	909.704839189862	3
0	5255	910.039618492001	4
0	5256	910.598221649187	3
0	5261	911.913176345338	2
0	5268	912.806846626397	3
0	5271	913.598600378612	2
0	5277	914.017334680722	3
0	5279	915.159431087541	4
0	5280	917.546145953132	3
0	5287	918.444971028795	2
0	5292	918.466584001636	1
0	5296	920.356177081594	2
0	5300	920.898098074154	3
0	5304	925.834414741406	2
0	5309	926.219636032901	1
0	5313	926.742911354775	2
0	5319	927.123871582683	3
0	5320	927.389746526082	2
0	5326	927.457010974031	3
0	5327	927.508078005418	2
0	5333	927.925581235816	3
0	5334	928.056956744176	2
0	5342	928.80305766203	3
0	5344	929.53666216242	2
0	5351	931.632642671914	1
0	5356	932.294095400104	0
0	5388	936.586786102526	1
0	5393	937.341477458193	0
0	5422	939.512135095543	1
0	5426	941.070195967341	2
0	5427	941.790191569859	1
0	5432	941.878650408595	0
0	5451	945.147111464422	1
0	5454	945.891168880391	0
0	5466	948.536293926489	1
0	5467	948.751455101984	0
0	5482	951.480363057136	1
0	5486	952.465180189827	2
0	5488	953.682862168835	1
0	5493	953.757635589818	0
0	5504	954.342819469619	1
0	5505	954.730596436643	0
0	5509	957.481882553025	1
0	5513	958.510414639385	2
0	5515	959.03009298824	3
0	5518	959.650930147446	2
0	5524	961.70354953384	3
0	5526	962.093030921289	4
0	5527	962.6020386478	3
0	5531	962.969785029098	4
0	5535	964.04663261419	5
0	5536	964.187268275837	4
0	5540	964.306745195217	5
0	5542	964.380743974746	6
0	5546	967.831233581934	7
0	5549	968.273928904764	6
0	5553	968.53982997187	7
0	5555	968.654300430341	8
0	5560	969.737162972299	7
0	5566	970.346238251653	8
0	5572	971.894720632265	7
0	5577	972.532653466225	6
0	5581	972.635003666189	7
0	5585	974.598312728303	8
0	5586	974.763403575856	7
0	5591	974.945863432863	6
0	5597	975.539959938694	7
0	5602	976.683803541394	6
0	5609	977.236480920743	5
0	5613	978.255226277685	6
0	5616	979.703014421229	5
0	5621	980.186240802481	4
0	5626	980.511383697969	3
0	5630	980.738490391216	4
0	5632	981.262839670382	5
0	5636	981.46811152342	6
0	5640	983.853208006924	7
0	5641	984.025554311075	6
0	5647	986.904462874969	7
0	5649	987.00961596636	8
0	5650	987.196912863137	7
0	5657	990.642571438746	6
0	5664	991.104052764222	5
0	5669	991.210386967592	4
0	5674	991.556264256577	3
0	5679	992.024556304965	2
0	5685	994.592386387595	3
0	5689	996.780131635145	4
0	5690	996.81278596097	3
0	5694	998.178271452914	4
0	5697	998.807898139436	3
0	5703	1001.45709696201	2
0	5709	1001.775085513345	1
0	5715	1002.047774912036	2
0	5716	1002.061797498829	1
0	5721	1002.633441612276	0
0	5725	1002.661387153237	1
0	5727	1002.789792747173	2
0	5731	1007.265633052382	3
0	5733	1007.543192636672	4
0	5739	1008.287906069383	5
0	5740	1008.409608743103	4
0	5745	1010.316269074613	3
0	5751	1012.562872321199	4
0	5754	1013.082363608485	3
0	5759	1014.162298957102	2
0	5763	1014.686846467813	3
0	5767	1017.639047549949	4
0	5772	1018.48152811634	3
0	5777	1019.465119786786	2
0	5785	1021.114981468709	3
0	5786	1022.065245886588	2
0	5794	1025.052607443439	3
0	5796	1025.148108210655	4
0	5799	1025.981688202497	3
0	5803	1027.152063289755	4
0	5805	1027.542281294924	5
0	5808	1028.603722522094	4
0	5819	1030.758876050764	3
0	5824	1030.834348624945	2
0	5829	1030.925190204649	1
0	5834	1031.719101727688	0
0	5838	1031.886720658182	1
0	5843	1033.277645829764	0
0	5857	1035.271017911481	1
0	5860	1035.608864880552	2
0	5864	1035.903045228015	3
0	5866	1036.567171764293	4
0	5868	1036.802515302462	5
0	5871	1037.208712386272	4
0	5879	1038.767933626285	5
0	5880	1039.362459256453	4
0	5888	1040.19015188107	5
0	5890	1040.734612239547	4
0	5895	1040.74104545111	3
0	5902	1041.647229016191	2
0	5906	1042.812636969638	3
0	5909	1044.305681566034	2
0	5914	1046.093436305831	1
0	5919	1047.176742816436	0
0	5923	1047.848762866276	1
0	5926	1048.80976492841	0
0	5940	1052.013563168706	1
0	5941	1052.144881733053	0
0	5973	1055.686944220054	1
0	5976	1057.276159806934	0
0	5991	1061.555893357262	1
0	5993	1061.902175994693	2
0	5994	1062.452308828434	1
0	6000	1062.623680246493	2
0	6001	1062.869553837541	1
0	6006	1063.004959059515	0
0	6018	1063.377478339429	1
0	6021	1063.430980456305	0
0	6034	1065.205592308915	1
0	6041	1067.774016787555	0
0	6048	1068.342094188125	1
0	6050	1068.48901985184	2
0	6052	1069.401232285215	1
0	6057	1069.448635363587	0
0	6116	1075.257041384308	1
0	6121	1078.496678463727	2
0	6124	1079.111987938159	1
0	6131	1079.368006248877	2
0	6132	1080.344009922487	1
0	6137	1080.413102158652	0
0	6150	1081.239747256146	1
0	6152	1081.536494144172	2
0	6155	1082.001489098841	3
0	6157	1082.043672497989	4
0	6158	1082.326442413142	3
0	6164	1082.750835119907	2
0	6170	1083.076395838546	3
0	6172	1083.498404485262	4
0	6175	1084.206617688436	3
0	6183	1085.487732705299	4
0	6187	1088.060546302365	5
0	6188	1088.08203376908	4
0	6196	1089.192694335505	3
0	6203	1089.862403889051	4
0	6208	1090.652249456047	5
0	6210	1091.009543790891	6
0	6212	1091.201092113904	7
0	6213	1092.149368980547	6
0	6219	1092.176196480927	7
0	6222	1093.388995638403	6
0	6227	1093.605725372351	5
0	6233	1094.100181415571	6
0	6234	1094.318007691605	5
0	6241	1094.901741556941	4
0	6248	1096.255403852583	3
0	6254	1097.631630583809	2
0	6261	1098.511832926944	1
0	6268	1099.0885937443	0
0	6279	1099.51485524526	1
0	6280	1099.636063394775	0
0	6284	1100.336815053246	1
0	6288	1101.56506161545	0
0	6328	1109.123917882682	1
0	6329	1109.129184919	0
0	6335	1109.490511437623	1
0	6343	1111.117724310882	2
0	6345	1112.107898551287	1
0	6352	1113.253858412895	2
0	6353	1113.51748820252	1
0	6358	1113.69205846135	0
0	6375	1114.227725762992	1
0	6377	1115.30010705461	2
0	6379	1116.288597091689	3
0	6380	1116.394780602205	2
0	6387	1116.915140249494	1
0	6394	1117.100045217783	2
0	6399	1117.257119900949	1
0	6404	1118.343505566012	0
0	6430	1119.708025066442	1
0	6434	1120.820797911205	2
0	6435	1120.873387328657	1
0	6444	1122.099323706921	0
0	6457	1124.07926583438	1
0	6458	1124.95565061274	0
0	6472	1125.897912959421	1
0	6476	1126.72771514036	2
0	6480	1128.17878909492	1
0	6487	1129.207483781203	2
0	6488	1129.330270191775	1
0	6496	1129.781543697048	2
0	6498	1130.277837259282	3
0	6499	1130.305328754347	2
0	6505	1130.659243082917	1
0	6511	1131.231021255967	2
0	6514	1132.134793370296	1
0	6522	1132.548617095831	0
0	6535	1134.813387742891	1
0	6538	1136.401293921237	0
0	6544	1136.855224496475	1
0	6546	1137.306423762699	2
0	6549	1139.413119843915	1
0	6554	1139.609085318739	0
0	6586	1142.87498983034	1
0	6592	1145.269462632435	0
0	6618	1149.092381906141	1
0	6619	1149.243072245165	0
0	6644	1151.930257281725	1
0	6645	1152.367739791151	0
0	6651	1152.641362064316	1
0	6652	1153.359105153352	0
0	6664	1154.564161022565	1
0	6668	1156.124363034131	0
0	6674	1158.097574658926	1
0	6678	1159.174728342095	2
0	6679	1159.288172169712	1
0	6684	1159.345940936244	0
0	6690	1160.314642182184	1
0	6693	1161.485176002219	0
0	6701	1163.305976697565	1
0	6704	1163.729013627961	0
0	6708	1164.256708724572	1
0	6710	1164.292745072002	2
0	6713	1164.637988861236	1
0	6719	1165.342148372732	2
0	6720	1165.781474617188	1
0	6727	1166.639265417481	2
0	6731	1168.269310555497	3
0	6732	1168.474500749601	2
0	6738	1169.101072688578	1
0	6744	1169.303536573671	2
0	6745	1169.411789529904	1
0	6752	1170.720057003069	0
0	6776	1173.745534694037	1
0	6778	1174.356548859532	0
0	6794	1174.790785034467	1
0	6795	1175.081792848361	0
0	6810	1175.816994158669	1
0	6811	1176.690855997648	0
0	6848	1182.255979840339	1
0	6850	1183.35540386067	2
0	6856	1184.904582407805	3
0	6859	1185.706995583851	2
0	6864	1185.890884982559	1
0	6869	1186.037067445622	0
0	6903	1193.661041513289	1
0	6911	1195.784303316881	0
0	6923	1197.931484477075	1
0	6925	1198.796439929101	0
0	6943	1199.867309519502	1
0	6944	1200.174741019707	0
0	6955	1201.205924976569	1
0	6959	1201.408473403401	2
0	6961	1201.571133001176	3
0	6964	1201.845048124404	4
0	6966	1202.250408698646	3
0	6971	1202.386085245951	2
0	6977	1203.632039025697	1
0	6983	1203.700823487096	2
0	6984	1203.81992337671	1
0	6991	1206.373252870189	0
0	7015	1209.567439732951	1
0	7018	1210.594002065951	2
0	7021	1210.857943662873	3
0	7022	1211.371205004183	2
0	7030	1211.797416338407	3
0	7031	1211.979754247029	2
0	7036	1212.393768948808	1
0	7042	1212.745019804976	0
0	7065	1213.954280445872	1
0	7068	1214.401066929276	0
0	7074	1214.450879826383	1
0	7076	1214.474175190256	2
0	7077	1214.886198886705	1
0	7082	1215.080879298662	0
0	7124	1220.482847642532	1
0	7129	1224.417158689223	0
0	7157	1231.392762458214	1
0	7164	1233.08385116484	0
0	7187	1234.58850317944	1
0	7189	1235.435492454622	0
0	7195	1235.547338242458	1
0	7201	1237.134894677838	0
0	7213	1238.939082404969	1
0	7214	1239.014649337751	0
0	7274	1246.663544513044	1
0	7276	1248.308711876959	0
0	7290	1249.27473081506	1
0	7291	1250.968697490044	0
0	7312	1255.327677449356	1
0	7314	1255.601115151816	2
0	7322	1259.16756886797	3
0	7323	1259.374077740917	2
0	7329	1259.753701976871	1
0	7334	1259.825970282222	0
0	7348	1261.748028040583	1
0	7349	1261.888131215575	0
0	7374	1264.431781249357	1
0	7375	1264.957863706495	0
0	7387	1266.342397529735	1
0	7390	1270.075342747509	0
0	7406	1272.255556748189	1
0	7407	1272.262046595664	0
0	7418	1274.537169658829	1
0	7422	1275.227573149382	2
0	7425	1275.396042620138	1
0	7430	1275.735786877435	0
0	7441	1276.443646540045	1
0	7442	1277.012231215605	0
0	7446	1277.098260671412	1
0	7456	1282.153705720051	0
0	7460	1283.218817479906	1
0	7463	1284.124616538535	0
0	7479	1285.5662145314	1
0	7483	1288.415088080746	2
0	7488	1289.49294536092	3
0	7489	1289.67702636819	2
0	7495	1290.201342190247	1
0	7499	1290.601987210136	2
0	7503	1293.982650205213	3
0	7509	1296.436539968079	2
0	7515	1297.519236513961	1
0	7521	1297.647058552681	2
0	7528	1299.085646445381	3
0	7529	1299.700081399621	2
0	7533	1299.886859812297	3
0	7538	1304.382579787374	2
0	7543	1305.008549135953	1
0	7548	1305.921773673484	0
0	7579	1309.842094634187	1
0	7581	1309.926933242619	0
0	7598	1313.752945454553	1
0	7603	1314.616279462897	2
0	7606	1314.836631550336	1
0	7612	1316.103251009814	0
0	7671	1323.479053762375	1
0	7676	1324.782392876868	2
0	7678	1324.8961472883	3
0	7680	1326.636529497584	4
0	7682	1326.710980578092	5
0	7683	1327.471019294446	4
0	7688	1328.111566336307	3
0	7695	1329.367322547854	4
0	7698	1330.816495590599	3
0	7705	1331.691673607741	4
0	7707	1332.797845484078	5
0	7708	1332.845482202051	4
0	7715	1333.873686083805	3
0	7721	1335.481587231726	2
0	7726	1335.856315971852	1
0	7734	1337.25590399972	0
0	7740	1337.370091746477	1
0	7741	1337.543554052538	0
0	7748	1339.029184941293	1
0	7750	1339.190533050797	2
0	7752	1339.294682055368	1
0	7758	1339.467777903158	2
0	7760	1341.358859338144	1
0	7768	1342.729139826651	0
0	7785	1343.57844695312	1
0	7790	1345.295984150066	2
0	7791	1345.564468131708	1
0	7796	1346.869040853591	0
0	7812	1347.821532560494	1
0	7814	1347.893562294941	2
0	7819	1348.778483347441	1
0	7825	1349.059676065958	2
0	7827	1349.598181164442	1
0	7831	1350.375157039074	2
0	7833	1350.598146489198	3
0	7837	1351.36830605415	4
0	7842	1351.736898513915	3
0	7852	1355.413262085033	2
0	7860	1356.606866642426	1
0	7865	1357.026079283594	0
0	7873	1357.919697648075	1
0	7874	1358.082127068818	0
0	7880	1359.098108473809	1
0	7881	1359.800558441851	0
0	7885	1360.730325593261	1
0	7889	1361.114132880589	0
0	7907	1362.290946236888	1
0	7909	1362.513241739503	2
0	7910	1362.765485898946	1
0	7920	1366.758525293262	2
0	7921	1366.760247210027	1
0	7929	1369.187721680348	0
0	7933	1369.304406290706	1
0	7939	1369.714574368256	0
0	7964	1372.561087630633	1
0	7965	1373.942382614924	0
0	7972	1374.171435323741	1
0	7973	1374.600243501742	0
0	7980	1375.677242610047	1
0	7981	1376.240345935793	0
0	7987	1377.025956378959	1
0	7988	1377.147241603043	0
0	7998	1379.243990694318	1
0	7999	1380.445040047777	0
0	8003	1381.744403947453	1
0	8008	1382.533207697161	0
0	8012	1382.714402744414	1
0	8015	1383.591643849662	0
0	8019	1384.448661680643	1
0	8025	1385.868542142739	2
0	8026	1386.834772067461	1
0	8030	1387.646078622713	2
0	8035	1388.879342377576	1
0	8039	1388.951439251227	2
0	8043	1390.322097704931	1
0	8048	1390.387772872479	0
0	8052	1390.827782026778	1
0	8054	1392.350310677566	2
0	8057	1392.925955635421	1
0	8069	1395.169798276129	0
0	8098	1397.168113999678	1
0	8100	1398.259651037425	2
0	8102	1398.710022190769	3
0	8110	1400.265115027485	2
0	8115	1401.519754652808	1
0	8125	1405.099434643066	0
0	8151	1408.981621242303	1
0	8152	1409.094829795754	0
0	8158	1409.3172426543	1
0	8160	1409.398039227267	2
0	8164	1411.133322735577	3
0	8166	1411.552028761395	4
0	8167	1414.73568793643	3
0	8172	1414.997628952912	2
0	8177	1415.107956701565	1
0	8185	1416.748174084613	0
0	8215	1420.179492258651	1
0	8216	1420.946039694311	0
0	8222	1420.948638042941	1
0	8224	1421.383708443071	2
0	8225	1421.639970828846	1
0	8233	1424.250386287983	0
0	8244	1424.355498282884	1
0	8247	1424.805902198573	2
0	8249	1425.305455073893	3
0	8251	1425.624233126022	4
0	8253	1425.844837260967	5
0	8256	1427.079462111282	4
0	8261	1427.244101140194	3
0	8270	1428.401561575794	4
0	8271	1428.415195972663	3
0	8277	1429.880079325087	2
0	8282	1430.062667650597	1
0	8287	1430.155697148527	0
0	8304	1431.054513615513	1
0	8308	1431.72392892482	0
0	8325	1432.741809107857	1
0	8329	1435.211990944547	0
0	8345	1435.565799027782	1
0	8346	1435.758729349948	0
0	8361	1437.662887260306	1
0	8363	1437.737596315834	2
0	8368	1439.815456169232	3
0	8371	1440.512526544497	4
0	8372	1440.630966760998	3
0	8377	1441.210575385101	2
0	8383	1441.38581902931	1
0	8387	1442.400535849707	2
0	8389	1442.404268607736	3
0	8391	1443.096314813318	4
0	8395	1445.748896340439	5
0	8398	1446.814386498788	4
0	8403	1448.312489238869	3
0	8408	1448.441470597769	2
0	8414	1448.809339784268	3
0	8417	1449.64578216704	2
0	8422	1450.904331979348	1
0	8428	1451.427098526875	2
0	8429	1451.762871550217	1
0	8434	1452.70814421998	0
0	8441	1453.796205628988	1
0	8442	1454.064043442456	0
0	8470	1456.253190699274	1
0	8471	1456.739095907978	0
0	8483	1459.86155107768	1
0	8485	1460.407640755419	2
0	8487	1461.077327126974	3
0	8489	1461.507773126386	2
0	8495	1461.608809534862	1
0	8500	1461.803170673568	0
0	8504	1461.977255571941	1
0	8508	1462.561241555847	2
0	8509	1462.564634421683	1
0	8514	1462.650949478248	0
0	8527	1465.029674759783	1
0	8528	1465.327054476946	0
0	8536	1466.380404203515	1
0	8538	1466.388067222438	2
0	8540	1466.484143388254	3
0	8543	1466.731409719981	2
0	8548	1467.163991683296	1
0	8553	1467.6531122566	0
0	8557	1468.746173035814	1
0	8561	1471.492134137672	2
0	8567	1473.823946601705	1
0	8572	1473.915780681276	0
0	8576	1474.765382725106	1
0	8581	1477.429163597949	0
0	8585	1477.785595378855	1
0	8587	1478.495959295947	2
0	8590	1478.881444600838	1
0	8595	1479.16538707573	0
0	8599	1479.778771579555	1
0	8603	1482.171487225526	2
0	8611	1485.581364666137	1
0	8616	1485.635671257661	0
0	8620	1488.14706015874	1
0	8623	1490.041019849239	0
0	8645	1494.623813153381	1
0	8646	1494.62949832063	0
0	8658	1495.650301351937	1
0	8660	1496.282070430992	2
0	8661	1496.747656542398	1
0	8669	1497.118542313218	0
0	8701	1501.983968505126	1
0	8702	1502.603233209017	0
0	8726	1507.615108754272	1
0	8727	1507.779757968843	0
0	8733	1508.037762690798	1
0	8735	1508.280685816774	2
0	8736	1508.492654345466	1
0	8742	1508.86243779382	0
0	8772	1514.69268012807	1
0	8776	1515.055852588802	2
0	8777	1515.14944813146	1
0	8782	1515.25531380019	0
0	8804	1519.230671916629	1
0	8805	1519.512162169841	0
0	8844	1527.171422212464	1
0	8848	1528.30046364498	2
0	8849	1528.424102692269	1
0	8854	1529.039157952011	0
0	8867	1531.274413556279	1
0	8869	1532.701307610634	0
0	8885	1534.758931004338	1
0	8887	1534.978254963815	2
0	8892	1537.454455295961	3
0	8895	1539.279144648049	4
0	8897	1539.794573448989	5
0	8899	1539.961740430237	4
0	8905	1540.173072584391	5
0	8909	1541.293623923865	4
0	8914	1541.3494660146	3
0	8921	1542.46145715266	2
0	8926	1542.656344789513	1
0	8932	1543.209977908052	0
0	8951	1544.378586067586	1
0	8954	1544.58885871742	0
0	8981	1549.454110911667	1
0	8983	1550.280346354224	2
0	8985	1550.370084380948	3
0	8990	1551.202059743938	2
0	8996	1551.53838557761	1
0	9003	1552.128921216467	0
0	9007	1552.173781634159	1
0	9009	1553.592393897702	2
0	9012	1554.283258841777	1
0	9016	1554.60282360013	2
0	9021	1555.943722729715	3
0	9023	1556.442524698982	2
0	9030	1557.02337962368	3
0	9031	1557.40235596599	2
0	9037	1558.409708227961	3
0	9038	1559.217365920901	2
0	9042	1559.380581574445	3
0	9045	1562.498245904071	2
0	9049	1562.874634194132	3
0	9057	1566.00933004371	4
0	9058	1566.824684284028	3
0	9064	1566.915410852448	4
0	9065	1567.068632097723	3
0	9072	1568.294888085307	2
0	9076	1568.595282165342	3
0	9078	1569.515166382479	4
0	9080	1569.679070307605	5
0	9082	1570.493188375335	6
0	9085	1571.642733976088	5
0	9090	1576.256717139635	4
0	9096	1577.12791972824	3
0	9102	1577.655616862728	4
0	9104	1578.708497751093	5
0	9105	1579.458783240525	4
0	9109	1580.785988439774	5
0	9112	1581.528140015138	4
0	9117	1584.07102920075	3
0	9127	1585.493174474258	4
0	9128	1585.879589022146	3
0	9133	1586.663657183807	2
0	9138	1587.038005583561	1
0	9143	1587.816698575337	0
0	9149	1587.996415579545	1
0	9150	1589.66200308638	0
0	9185	1596.020642142222	1
0	9187	1596.471507842203	0
0	9210	1598.202530598862	1
0	9211	1598.604964872366	0
0	9223	1604.613510465835	1
0	9228	1609.627737524699	0
0	9234	1609.833206574506	1
0	9236	1609.85974963557	0
0	9259	1612.094185116297	1
0	9261	1612.14230633055	2
0	9262	1612.251780956749	1
0	9268	1612.816667218877	2
0	9269	1613.348723083746	1
0	9275	1613.546772052395	0
0	9286	1615.067978748068	1
0	9287	1615.274478302043	0
0	9291	1615.360424250081	1
0	9293	1616.147707788108	2
0	9296	1617.459574981005	1
0	9300	1617.544792779351	2
0	9304	1618.438341523977	3
0	9305	1618.851264686228	2
0	9313	1620.066279419826	3
0	9319	1620.875015174087	4
0	9321	1621.306561834546	3
0	9326	1621.566367471197	2
0	9331	1621.605539522245	1
0	9340	1623.156193570145	0
0	9346	1623.975276433966	1
0	9347	1626.017755926334	0
0	9361	1627.498109136757	1
0	9363	1627.640314355962	0
0	9390	1630.292694562899	1
0	9393	1631.297862200119	0
0	9401	1633.507101346313	1
0	9404	1634.40011909033	2
0	9410	1635.739017476432	3
0	9411	1636.113900183505	2
0	9417	1637.057271611853	1
0	9422	1637.778945513971	0
0	9430	1639.732317931848	1
0	9432	1640.053860539882	2
0	9433	1640.188044016726	1
0	9438	1640.384284681906	0
0	9457	1643.541425210343	1
0	9458	1643.567575319278	0
0	9482	1646.36333070876	1
0	9486	1646.873303407963	2
0	9487	1646.992556946924	1
0	9495	1647.581057364625	2
0	9497	1648.292276721145	1
0	9503	1648.714553836014	0
0	9510	1648.797939901545	1
0	9512	1649.33076385179	0
0	9523	1649.783151336382	1
0	9530	1651.074074066187	2
0	9532	1651.559222450568	3
0	9533	1651.614053275831	2
0	9539	1651.65609772018	3
0	9541	1652.456368136455	2
0	9547	1652.504324252535	3
0	9548	1652.83495378934	2
0	9554	1654.042072039309	1
0	9559	1655.033776809832	0
0	9563	1655.570593364377	1
0	9565	1655.764308016184	2
0	9567	1655.769876903883	3
0	9569	1656.693579118724	4
0	9571	1657.086970716164	5
0	9578	1658.226740099793	6
0	9580	1658.368640219308	7
0	9581	1658.52544288806	6
0	9586	1658.749657598957	5
0	9594	1662.195375605184	6
0	9596	1662.52399045831	7
0	9597	1662.973123112458	6
0	9601	1663.172860174561	7
0	9603	1664.383848999622	8
0	9606	1665.55296144416	7
0	9611	1665.726449593886	6
0	9617	1668.421764838285	7
0	9620	1670.103827087571	6
0	9625	1670.935945935293	5
0	9631	1672.613321925871	6
0	9634	1672.889690817665	5
0	9639	1673.844050799619	4
0	9643	1674.40473889041	5
0	9645	1674.673901392624	6
0	9649	1675.42190208282	7
0	9651	1675.848839396893	8
0	9652	1676.120730768691	7
0	9662	1680.575442116168	8
0	9664	1681.327476965515	9
0	9666	1681.705048018043	10
0	9668	1682.197159331851	11
0	9670	1682.762970054772	12
0	9671	1683.260241123115	11
0	9676	1683.820945073262	10
0	9681	1684.395789216411	9
0	9686	1685.645326902926	8
0	9691	1686.345349833686	7
0	9699	1688.131117045432	8
0	9701	1688.441524958681	9
0	9703	1688.56719257701	10
0	9704	1689.141497192584	9
0	9708	1689.744356243337	10
0	9712	1691.167365286668	9
0	9720	1692.320216138992	10
0	9722	1692.415733481848	11
0	9724	1692.548178611447	12
0	9727	1694.052699807997	11
0	9731	1694.389911136078	12
0	9733	1694.947691241099	13
0	9736	1697.248884792896	12
0	9742	1697.576408252665	13
0	9743	1697.965696664388	12
0	9749	1698.567049264099	13
0	9754	1699.441287129742	12
0	9760	1700.016252834873	11
0	9765	1700.228092759684	10
0	9770	1701.411197708348	9
0	9775	1703.756757038338	8
0	9786	1705.418540088187	9
0	9789	1706.021537759854	8
0	9794	1706.443474970303	7
0	9800	1707.045087814043	8
0	9801	1707.235861322833	7
0	9805	1707.764417343868	8
0	9807	1707.875896464783	9
0	9811	1708.359724326927	10
0	9812	1708.425494234077	9
0	9817	1708.886806698457	8
0	9825	1710.852913076607	7
0	9830	1711.68645718004	6
0	9834	1711.890490900638	7
0	9838	1713.414566721709	8
0	9841	1713.880115620168	7
0	9846	1714.177553785283	6
0	9855	1715.286743967074	5
0	9860	1715.486740478254	4
0	9864	1715.589636132263	5
0	9866	1716.269842553387	6
0	9870	1716.783661539837	7
0	9877	1720.316260966017	8
0	9879	1720.439069897215	9
0	9880	1721.233006373592	8
0	9885	1721.353460440697	7
0	9892	1723.755407223234	6
0	9896	1724.419106861472	7
0	9898	1725.498971772114	8
0	9900	1726.155695728715	9
0	9905	1728.720632186472	8
0	9909	1729.110164752316	9
0	9914	1729.418525360668	8
0	9920	1730.16873058339	7
0	9926	1730.199431976877	8
0	9927	1730.559241785909	7
0	9931	1730.81375858156	8
0	9934	1730.913205627055	7
0	9942	1733.302148523914	8
0	9943	1735.129112327343	7
0	9947	1736.54196984405	8
0	9951	1737.687847802804	9
0	9954	1741.729308678833	8
0	9959	1744.712656333568	7
0	9963	1745.431733084741	8
0	9966	1746.414480463747	7
0	9973	1748.503169864282	8
0	9976	1748.955052113658	7
0	9983	1749.153708548521	8
0	9984	1749.443324193068	7
0	9989	1749.53587195714	6
0	9997	1750.294351302383	7
0	10001	1750.878224805978	8
0	10003	1751.348026304209	7
0	10011	1751.626775863441	8
0	10012	1751.636564494392	7
0	10016	1752.320665750073	8
0	10024	1754.854762966739	9
0	10029	1755.483011300034	8
0	10033	1755.53792212505	9
0	10036	1757.478151302166	8
0	10043	1760.51110351223	7
0	10050	1764.54914364473	6
0	10054	1765.160485401562	7
0	10057	1766.481036077325	6
0	10062	1766.74364326644	5
0	10067	1768.292466503932	4
0	10071	1768.533436726232	5
0	10074	1769.723161776139	4
0	10078	1769.905217336494	5
0	10082	1772.149350399118	6
0	10083	1772.569934769281	5
0	10091	1772.948629342272	6
0	10092	1773.262630700804	5
0	10096	1773.691624973359	6
0	10102	1774.645719355811	7
0	10103	1775.112087281644	6
0	10107	1775.41155000933	7
0	10109	1775.462813624716	8
0	10112	1775.857498724608	7
0	10117	1777.637814433513	6
0	10121	1778.100709547373	7
0	10125	1778.345652526145	8
0	10126	1778.66555151977	7
0	10130	1779.175246147328	8
0	10134	1780.077818869359	9
0	10136	1780.191435404051	10
0	10137	1781.196908527217	9
0	10142	1781.782921845603	8
0	10148	1782.703468628799	9
0	10152	1784.759887808055	8
0	10157	1785.2464103864	7
0	10161	1785.901993531567	8
0	10163	1788.758627438183	9
0	10166	1788.875352402055	8
0	10170	1789.263129633376	9
0	10172	1789.906995803714	10
0	10174	1790.288645685243	11
0	10182	1791.855975031043	12
0	10184	1791.984439317701	13
0	10185	1792.342774435224	12
0	10189	1792.34444941141	13
0	10192	1793.341987654715	12
0	10196	1794.710056568652	13
0	10201	1795.877675289014	12
0	10205	1796.450924181412	13
0	10207	1796.907848561796	14
0	10211	1798.633059988888	15
0	10212	1798.768390694439	14
0	10220	1800.842175987377	15
0	10222	1801.848969759581	16
0	10223	1801.97040523206	15
0	10232	1802.83887254418	14
0	10238	1804.566366212517	13
0	10243	1804.606309150921	12
0	10249	1805.430957228168	13
0	10251	1805.876488945478	14
0	10252	1806.088876298755	13
0	10256	1806.351200811042	14
0	10259	1806.525539492934	13
0	10265	1807.108588267416	14
0	10268	1807.50953155058	15
0	10269	1808.853362187983	14
0	10277	1810.430155006871	15
0	10280	1810.739647897633	16
0	10281	1810.95539545667	15
0	10286	1811.514711396457	14
0	10291	1811.656888946719	13
0	10296	1812.457119691893	12
0	10302	1812.888417876456	11
0	10307	1814.225588528044	10
0	10317	1817.285305016098	11
0	10319	1817.611574120381	12
0	10323	1818.292916248219	13
0	10326	1818.779215854006	12
0	10331	1819.059035574704	11
0	10336	1819.331133955153	10
0	10340	1820.535741178305	11
0	10344	1822.04321928496	10
0	10350	1822.660974499622	9
0	10358	1823.996940469991	10
0	10359	1824.040263037293	9
0	10363	1824.484152002062	10
0	10365	1825.185701024229	11
0	10369	1826.182969887621	12
0	10376	1828.27218129064	11
0	10381	1829.629571960429	10
0	10385	1829.711328895207	11
0	10387	1830.783567495416	12
0	10392	1832.25888692847	13
0	10393	1832.935484491432	12
0	10398	1832.998712974804	11
0	10402	1833.213879546668	12
0	10406	1834.274682888628	13
0	10411	1835.478627116884	12
0	10415	1836.504679572397	13
0	10418	1837.08387261486	12
0	10422	1838.4051291988	13
0	10427	1840.122002153255	12
0	10431	1840.474922880901	13
0	10433	1841.391567801505	14
0	10436	1842.539893723425	13
0	10441	1844.76026572088	12
0	10446	1845.089667650521	11
0	10450	1845.143092280638	12
0	10452	1847.411899991187	13
0	10458	1848.475796703275	14
0	10460	1849.185333893364	15
0	10462	1853.067844288313	16
0	10465	1853.753887794516	15
0	10469	1853.754095365487	16
0	10471	1854.046384986647	17
0	10476	1855.365361024937	16
0	10481	1856.330900766201	15
0	10485	1856.347982822484	16
0	10489	1856.88829279485	15
0	10495	1856.906412772605	16
0	10496	1857.232496837244	15
0	10502	1858.554166054332	14
0	10509	1859.862521131108	13
0	10514	1861.122427243643	12
0	10520	1861.44045804741	13
0	10521	1861.610251165066	12
0	10525	1861.994331789888	13
0	10527	1862.584845381822	14
0	10530	1864.471992017847	13
0	10534	1864.603139598151	14
0	10536	1865.058463865151	15
0	10538	1865.299200756703	16
0	10540	1867.92196867996	17
0	10542	1868.768115633636	18
0	10544	1869.386737434587	19
0	10546	1869.517615109539	20
0	10552	1870.107205575811	21
0	10555	1870.212004754755	22
0	10556	1870.525639989801	21
0	10561	1870.926962322441	20
0	10565	1871.209060301945	21
0	10569	1872.590904667483	22
0	10577	1873.260833880315	23
0	10579	1874.326485436709	24
0	10580	1874.463457898771	23
0	10586	1874.926278794101	22
0	10591	1875.056079308823	21
0	10595	1875.170619131699	22
0	10599	1876.444914141811	23
0	10600	1876.70110662397	22
0	10606	1877.680356642124	23
0	10608	1877.979779666807	22
0	10613	1878.267578789087	21
0	10621	1879.70865645618	22
0	10623	1879.922433118852	23
0	10624	1880.902489911518	22
0	10632	1881.639671404039	21
0	10637	1882.276796612215	20
0	10643	1882.596912834797	21
0	10644	1883.054898782779	20
0	10648	1883.192752190586	21
0	10650	1883.543311789189	22
0	10654	1885.175673427722	23
0	10655	1885.247592115957	22
0	10662	1886.705086343248	21
0	10667	1887.494660605338	20
0	10672	1889.90824572552	19
0	10679	1892.325524832631	18
0	10683	1892.564781243381	19
0	10689	1894.113311818301	18
0	10694	1897.466261139116	17
0	10699	1899.523208524129	16
0	10704	1900.465512969495	15
0	10709	1901.077152429728	14
0	10713	1901.415808943707	15
0	10718	1902.483569835775	14
0	10724	1902.846552129657	15
0	10725	1903.587753787908	14
0	10730	1905.276001501783	13
0	10735	1905.893509209113	12
0	10739	1906.146037348924	13
0	10741	1907.940522448281	14
0	10744	1908.675631879196	13
0	10749	1909.580841649135	12
0	10757	1910.744627134012	13
0	10762	1911.573876737412	12
0	10769	1911.62799185507	13
0	10770	1911.737735502942	12
0	10775	1912.683765240591	11
0	10781	1913.024560916191	12
0	10782	1913.181401365663	11
0	10786	1913.211125245726	12
0	10789	1914.527101078901	11
0	10796	1916.299931467025	10
0	10802	1916.676040262143	11
0	10803	1917.908400470623	10
0	10807	1919.226128023328	11
0	10811	1919.777530526411	12
0	10813	1919.915721849086	13
0	10815	1920.118511646315	14
0	10817	1920.989573177807	15
0	10819	1921.199550367359	16
0	10820	1921.926424739082	15
0	10824	1924.479117841623	16
0	10826	1925.635126456932	17
0	10829	1926.838172576335	16
0	10834	1928.10601344986	15
0	10844	1930.721192708099	16
0	10845	1930.732777824269	15
0	10854	1933.083522105772	14
0	10859	1933.710217834449	13
0	10865	1934.520530989303	12
0	10870	1934.726990456681	11
0	10876	1935.31587775806	12
0	10877	1935.784377218996	11
0	10882	1938.035177656799	10
0	10886	1939.385269042439	11
0	10888	1940.931534687805	12
0	10895	1942.590086594934	13
0	10896	1942.734345952108	12
0	10901	1943.869080619588	11
0	10907	1944.352235672951	12
0	10910	1946.078453798524	11
0	10916	1948.068340519238	10
0	10921	1948.695607142308	9
0	10927	1950.39154869882	10
0	10928	1950.90160364735	9
0	10932	1953.716484509837	10
0	10936	1954.51327660704	9
0	10942	1954.582348523015	10
0	10944	1955.138208502905	11
0	10945	1955.217703609687	10
0	10952	1956.120859019131	9
0	10956	1956.866902206746	10
0	10960	1957.505562969619	9
0	10966	1958.045353368469	10
0	10967	1958.176737034121	9
0	10974	1958.523073091931	8
0	10981	1959.866946733768	9
0	10983	1960.540225244432	10
0	10985	1961.418105540437	11
0	10987	1961.596618498014	12
0	10988	1961.682461215263	11
0	10993	1962.254047287835	10
0	10999	1962.809929019484	11
0	11000	1963.131963652215	10
0	11010	1965.676892724905	11
0	11011	1966.02612751313	10
0	11016	1968.455014026991	9
0	11022	1969.456562488006	10
0	11025	1970.216317104351	9
0	11031	1970.911631123553	10
0	11035	1971.64057430267	11
0	11037	1973.469091617884	10
0	11042	1973.624638773244	9
0	11047	1973.867004599849	8
0	11055	1975.898338699963	9
0	11056	1976.804896245668	8
0	11060	1977.180670710624	9
0	11062	1977.477614908191	10
0	11066	1978.286724238181	11
0	11071	1978.69498741833	10
0	11076	1979.935285369258	9
0	11080	1980.668052659333	10
0	11084	1982.617980764109	9
0	11091	1984.059752141491	8
0	11097	1985.085773732885	9
0	11098	1985.136960168893	8
0	11103	1985.550528618693	7
0	11107	1986.184771443537	8
0	11111	1989.556963519042	9
0	11113	1989.927047389664	10
0	11114	1990.269805888976	9
0	11122	1991.646342575149	10
0	11124	1993.149290186222	11
0	11127	1993.651998521216	10
0	11133	1994.759709722078	11
0	11134	1995.34635481893	10
0	11139	1996.324970739727	9
0	11144	1996.978015610392	8
0	11148	1996.999653676281	9
0	11152	1997.967136743432	10
0	11154	1998.761422502561	11
0	11157	1999.020321314368	10
0	11167	2000.591643045965	11
0	11169	2001.334078389211	10
0	11174	2001.969984065561	9
0	11180	2002.320814623843	10
0	11182	2002.706203515122	11
0	11186	2004.274445954895	12
0	11188	2004.361662091892	13
0	11189	2005.232462399879	12
0	11194	2006.258998065503	11
0	11198	2007.937587541918	12
0	11200	2008.114939946325	13
0	11205	2009.921309443114	12
0	11213	2011.300072707034	13
0	11215	2011.779479195316	14
0	11216	2012.491907688729	13
0	11222	2014.147845193744	14
0	11225	2014.313888209558	13
0	11230	2014.902477411672	12
0	11235	2016.591616330511	11
0	11242	2017.577876627498	10
0	11248	2019.573065031816	9
0	11254	2020.199021793118	10
0	11255	2020.225432673205	9
0	11260	2021.693928815818	8
0	11264	2021.959137725557	9
0	11266	2023.283623632947	10
0	11268	2023.776892669485	11
0	11270	2025.132136986067	12
0	11275	2026.943822980612	11
0	11283	2030.267709980068	12
0	11287	2030.824745275822	11
0	11293	2030.974957161729	12
0	11295	2031.514714001102	13
0	11300	2033.334144449939	12
0	11306	2035.214789228228	13
0	11308	2035.226606595822	14
0	11310	2035.449542460764	15
0	11312	2036.074587904656	16
0	11313	2036.468358497992	15
0	11318	2037.24419594481	14
0	11326	2039.746326130592	13
0	11332	2039.993366292409	14
0	11333	2040.065268128489	13
0	11337	2040.102470786937	14
0	11340	2040.528236812645	13
0	11346	2041.113429402816	12
0	11352	2041.314975891867	11
0	11359	2042.501130627053	10
0	11364	2042.766663458964	9
0	11369	2043.162762558651	8
0	11376	2043.242554146906	7
0	11380	2043.384115040941	8
0	11382	2044.033112772832	9
0	11386	2044.786215847301	10
0	11388	2044.979240856028	9
0	11393	2045.635712643205	8
0	11399	2046.347013168309	9
0	11400	2048.209298126289	8
0	11404	2049.155127430146	9
0	11407	2051.317421968718	8
0	11417	2054.749015015504	9
0	11418	2055.128044655647	8
0	11424	2056.948543996342	9
0	11430	2058.785370655922	8
0	11436	2059.10142375931	7
0	11441	2059.10313117647	6
0	11447	2060.410170330959	7
0	11449	2061.035777739857	6
0	11454	2061.312420057727	5
0	11459	2062.302847633507	4
0	11463	2062.692850665734	5
0	11467	2063.35362193832	6
0	11471	2064.164589340893	5
0	11476	2064.336000128217	4
0	11480	2065.96372969399	5
0	11482	2067.646009763876	6
0	11484	2067.794566683266	7
0	11487	2069.4514329136	6
0	11492	2070.040383747097	5
0	11500	2073.681827558955	4
0	11510	2075.218072839605	5
0	11511	2075.390084054479	4
0	11515	2075.520212978302	5
0	11517	2075.914574496216	6
0	11520	2076.15582537596	5
0	11527	2079.775162961016	4
0	11531	2080.361229907306	5
0	11534	2081.366650286164	4
0	11539	2081.832652364034	3
0	11543	2082.82027544627	4
0	11546	2083.384300665492	3
0	11552	2084.636314548421	4
0	11554	2084.829319173005	5
0	11558	2085.466016823113	6
0	11561	2087.076151738782	5
0	11566	2088.215374260771	4
0	11571	2089.978987150699	3
0	11578	2091.418125837765	2
0	11585	2093.058371019372	1
0	11589	2093.159306099862	2
0	11592	2095.755924488544	1
0	11597	2096.863202150696	0
0	11627	2101.219446499017	1
0	11629	2101.70191385841	2
0	11630	2102.060747243552	1
0	11635	2102.289433361888	0
0	11656	2104.215293959805	1
0	11661	2106.301960761835	0
0	11676	2107.684508721241	1
0	11678	2108.309233460789	2
0	11680	2108.429813582195	3
0	11682	2109.00866375464	4
0	11685	2110.648288970608	3
0	11690	2111.019040042554	2
0	11695	2111.481372000322	1
0	11700	2111.707028966091	0
0	11710	2114.375535181167	1
0	11711	2114.471586852911	0
0	11720	2115.10506835833	1
0	11722	2115.259788304298	2
0	11725	2115.89896338674	1
0	11732	2116.240366665118	0
0	11745	2117.451149251808	1
0	11747	2118.17600036109	2
0	11748	2118.597965575362	1
0	11753	2119.008993785054	0
0	11757	2119.417965056514	1
0	11761	2121.541008182021	0
0	11775	2125.630442348149	1
0	11776	2126.865077021407	0
0	11795	2128.932919867024	1
0	11796	2129.235277668712	0
0	11822	2131.020790031176	1
0	11824	2131.020819501233	2
0	11827	2131.961887697924	1
0	11836	2133.787860360157	0
0	11848	2134.088419531508	1
0	11849	2134.168762043193	0
0	11879	2137.795378028966	1
0	11880	2139.5497666402	0
0	11889	2140.006543695914	1
0	11890	2140.047135853696	0
0	11906	2143.058159688467	1
0	11909	2143.97186148998	2
0	11912	2144.047713335987	3
0	11914	2144.411839510727	4
0	11917	2146.164463708103	3
0	11923	2146.688112441484	2
0	11929	2146.718373039952	3
0	11931	2146.791067868187	4
0	11932	2147.377615661682	3
0	11937	2147.70480077278	2
0	11942	2148.079287311114	1
0	11947	2148.590897315827	0
0	11958	2148.917796563963	1
0	11960	2149.038067236846	2
0	11962	2149.618789151118	1
0	11969	2150.99423407079	0
0	11975	2151.115880635612	1
0	11976	2151.259217023528	0
0	12006	2154.842701791261	1
0	12010	2157.205515792026	0
0	12022	2158.7254165866	1
0	12023	2158.890881069094	0
0	12040	2161.33258957258	1
0	12041	2161.525418992808	0
0	12067	2164.560447844568	1
0	12072	2166.454630002304	0
0	12078	2167.408932917385	1
0	12079	2167.814627305792	0
0	12091	2169.072792251169	1
0	12092	2169.531535026175	0
0	12110	2172.723577328565	1
0	12115	2173.51629624623	2
0	12116	2173.592078785307	1
0	12121	2173.607818917941	0
0	12133	2174.325663807391	1
0	12136	2175.481874303853	2
0	12137	2175.715790091653	1
0	12142	2175.73850127096	0
0	12150	2178.118503772621	1
0	12152	2178.421365500419	2
0	12153	2178.991515463509	1
0	12159	2179.028259318691	2
0	12162	2180.516148677945	1
0	12167	2181.22893838626	0
0	12173	2182.560415394979	1
0	12175	2183.839450760003	0
0	12183	2184.496443616302	1
0	12184	2184.855158836208	0
0	12221	2187.889174985542	1
0	12222	2188.674497618717	0
0	12228	2188.827552633915	1
0	12231	2189.137761419345	2
0	12232	2189.157821345844	1
0	12238	2189.879442650927	2
0	12240	2190.079770598628	3
0	12241	2190.597463513875	2
0	12247	2193.273837720574	1
0	12252	2194.893729846067	0
0	12256	2195.728807087541	1
0	12264	2197.766166675355	2
0	12265	2198.213127421408	1
0	12270	2198.290599361337	0
0	12278	2199.761811621014	1
0	12279	2200.02415046936	0
0	12285	2200.416215019592	1
0	12288	2200.630075957663	0
0	12300	2201.758403338668	1
0	12304	2204.335013074558	0
0	12321	2205.873378611681	1
0	12323	2205.931383701892	2
0	12326	2206.549951864659	1
0	12332	2206.993770633915	2
0	12333	2207.090601418136	1
0	12343	2209.104239064333	2
0	12350	2209.824676024137	1
0	12355	2209.993324393314	0
0	12378	2212.542593093298	1
0	12380	2212.550817875364	2
0	12381	2212.684615826644	1
0	12389	2218.574594466152	0
0	12393	2219.554106445302	1
0	12395	2219.809559155643	2
0	12398	2220.45580953327	1
0	12403	2222.370878913566	0
0	12407	2222.663495716708	1
0	12410	2224.071936513986	0
0	12426	2226.742442080096	1
0	12427	2227.01558011051	0
0	12433	2227.034499970694	1
0	12436	2227.530321495562	0
0	12442	2227.607257053717	1
0	12445	2228.283788485788	0
0	12458	2229.919331606887	1
0	12460	2230.1244557493	2
0	12462	2230.591033542712	3
0	12464	2231.980553323617	4
0	12467	2232.801743202068	5
0	12468	2232.816457070767	4
0	12473	2233.289388839036	3
0	12482	2236.349038956316	2
0	12488	2237.781156225147	1
0	12494	2238.557423316559	0
0	12523	2243.157922155623	1
0	12524	2243.235256522802	0
0	12535	2244.065234535192	1
0	12537	2244.168020540954	2
0	12539	2244.562371665558	1
0	12544	2244.670759041911	0
0	12554	2245.977174454519	1
0	12556	2247.20917058327	2
0	12562	2249.468090978529	1
0	12568	2249.980326301731	0
0	12586	2250.962372288251	1
0	12589	2251.549503074689	2
0	12590	2251.717585459729	1
0	12595	2251.83296734437	0
0	12618	2253.311205909358	1
0	12623	2254.745437346875	0
0	12638	2256.912479209488	1
0	12643	2257.907847373676	2
0	12646	2258.266170883115	3
0	12648	2258.927321622044	2
0	12655	2259.18690196668	1
0	12661	2259.309328635303	2
0	12665	2259.846764496767	3
0	12666	2260.038780179092	2
0	12671	2260.112309199506	1
0	12675	2260.347472188665	2
0	12680	2261.264111113409	1
0	12685	2261.339880360364	0
0	12733	2274.552614334156	1
0	12737	2275.19776553916	2
0	12741	2278.03978028137	3
0	12743	2279.795516003088	4
0	12750	2280.861424022665	5
0	12754	2284.402367330136	4
0	12761	2286.016686376721	5
0	12762	2287.162143479076	4
0	12769	2287.918657498616	5
0	12770	2288.791933685442	4
0	12776	2289.298945703843	5
0	12781	2290.70340266674	4
0	12787	2291.114452552123	3
0	12793	2291.356814929689	4
0	12794	2291.689147888486	3
0	12800	2291.789304107073	4
0	12804	2292.387393663712	5
0	12805	2293.002329860923	4
0	12810	2293.061949812703	3
0	12816	2294.37986509499	4
0	12818	2294.473938910657	5
0	12819	2294.56888467131	4
0	12826	2295.497345186288	5
0	12828	2295.560708352693	4
0	12834	2295.798564593559	5
0	12835	2295.853053458579	4
0	12840	2296.19246467024	3
0	12844	2296.2711912954	4
0	12846	2297.304546469545	5
0	12849	2297.796786696401	4
0	12853	2298.133502956827	5
0	12856	2300.023740654853	4
0	12861	2300.459999797009	3
0	12865	2300.973441509376	4
0	12869	2302.280595755444	5
0	12870	2302.607985217283	4
0	12876	2303.960362089975	3
0	12881	2304.123826514571	2
0	12891	2308.198659821874	1
0	12897	2308.537962596262	0
0	12908	2309.042670123491	1
0	12912	2312.030967531169	0
0	12924	2313.400662846495	1
0	12933	2315.252526376103	2
0	12936	2316.641158081139	1
0	12941	2316.834960930863	0
0	12958	2317.654357085797	1
0	12960	2318.760591439107	0
0	12986	2322.020641208909	1
0	12988	2322.188868972772	2
0	12991	2322.926562206603	1
0	12998	2323.564137027154	2
0	13004	2324.650303252282	3
0	13005	2325.60952372994	2
0	13011	2325.782139847591	3
0	13014	2326.902849781858	2
0	13020	2327.571691974399	3
0	13023	2328.121829929085	2
0	13031	2329.250351548685	3
0	13034	2329.623937410425	2
0	13039	2329.848642821775	1
0	13043	2330.069273717264	2
0	13047	2330.247058158191	3
0	13048	2330.311693117284	2
0	13052	2330.760089966891	3
0	13056	2332.103539393571	2
0	13061	2332.402895193293	1
0	13065	2332.462795008028	2
0	13068	2334.443682059033	1
0	13072	2334.722473456296	2
0	13075	2336.769782466814	1
0	13080	2337.275778755123	0
0	13084	2337.851345107251	1
0	13090	2339.040081080587	2
0	13092	2339.146680023965	1
0	13097	2339.360703940124	0
0	13112	2341.725700377626	1
0	13113	2341.7586892314	0
0	13138	2345.675726533356	1
0	13140	2346.241160765962	0
0	13146	2347.448965454647	1
0	13149	2347.920956163702	0
0	13155	2348.640198897075	1
0	13157	2348.850828811625	2
0	13165	2351.564159011171	3
0	13166	2351.766291704141	2
0	13171	2351.808051423018	1
0	13175	2351.931926328236	2
0	13179	2353.705371236705	3
0	13180	2354.395011048108	2
0	13187	2354.642301524144	1
0	13193	2355.052459889443	2
0	13195	2357.223652740961	1
0	13201	2357.56396868196	2
0	13202	2359.982112487836	1
0	13212	2361.723969016213	2
0	13213	2362.175707276453	1
0	13220	2364.286577721866	0
0	13238	2365.52846654228	1
0	13242	2366.583949948573	2
0	13244	2367.468468026053	3
0	13245	2367.478288959196	2
0	13250	2368.301426357267	1
0	13256	2370.191374207206	0
0	13288	2374.151664857766	1
0	13290	2374.840433317962	0
0	13303	2376.495576116375	1
0	13305	2377.311127595022	0
0	13311	2377.693813917584	1
0	13312	2378.115060080312	0
0	13334	2379.224615879262	1
0	13341	2379.654584774715	2
0	13348	2381.008518012431	3
0	13352	2382.20559484715	4
0	13353	2382.947782078665	3
0	13358	2382.992905391982	2
0	13364	2383.350511211793	1
0	13370	2383.653299885167	0
0	13399	2385.341637803789	1
0	13400	2385.96299505932	0
0	13408	2387.450567995233	1
0	13412	2388.312338090071	2
0	13413	2388.905504331809	1
0	13418	2392.102010921476	0
0	13422	2393.800453608031	1
0	13424	2395.244836978175	2
0	13427	2396.402688154805	1
0	13433	2397.025464077586	0
0	13458	2400.50185883658	1
0	13460	2400.837594048143	0
0	13482	2402.669604102872	1
0	13484	2403.48565018467	0
0	13498	2404.879996531498	1
0	13505	2406.434289089521	2
0	13508	2407.366500561047	1
0	13513	2407.933359585076	0
0	13543	2414.12535498502	1
0	13544	2414.210793818028	0
0	13558	2416.083157335814	1
0	13559	2416.084976202894	0
0	13565	2416.81117323564	1
0	13568	2417.387159513852	2
0	13569	2417.663045240307	1
0	13574	2418.645733101583	0
0	13609	2423.54512496288	1
0	13612	2425.815709584412	0
0	13635	2428.493496675365	1
0	13636	2430.463425207701	0
0	13642	2430.501115967811	1
0	13644	2431.092496663648	0
0	13662	2433.058393633764	1
0	13663	2433.572893250666	0
0	13675	2436.649117895123	1
0	13676	2437.101989185801	0
0	13683	2437.404532228287	1
0	13684	2437.805306622718	0
0	13690	2437.850451030127	1
0	13691	2438.127703382487	0
0	13709	2440.343292674605	1
0	13711	2440.496728792167	0
0	13725	2442.204592348101	1
0	13727	2442.796719911913	2
0	13729	2443.251595988948	3
0	13731	2443.323050981756	4
0	13735	2445.969116203967	5
0	13737	2446.077300898692	6
0	13739	2446.347791480248	7
0	13740	2446.78555791305	6
0	13746	2447.217873295128	5
0	13752	2447.225925163083	6
0	13753	2447.445348674488	5
0	13758	2447.44684659101	4
0	13763	2447.777026551081	3
0	13769	2448.599768424693	2
0	13778	2449.97899716314	3
0	13781	2450.668081501442	2
0	13786	2451.157898721006	1
0	13793	2455.422670123463	0
0	13811	2457.296188026238	1
0	13814	2458.86830258198	0
0	13826	2459.530012971761	1
0	13829	2460.752218059229	0
0	13836	2461.796814508341	1
0	13837	2461.852524167813	0
0	13844	2462.548831000992	1
0	13850	2464.369625934281	2
0	13851	2464.432204267434	1
0	13856	2464.503249638491	0
0	13912	2469.603880420555	1
0	13916	2470.455371533239	2
0	13918	2471.101789716445	3
0	13923	2472.29121766685	2
0	13930	2473.928807181595	3
0	13934	2474.526429546005	4
0	13935	2474.603377773357	3
0	13940	2474.63442370048	2
0	13945	2474.781803479315	1
0	13950	2474.871938174435	0
0	13976	2477.345356330148	1
0	13978	2477.682964891346	2
0	13980	2477.963943494672	3
0	13987	2480.011854852863	2
0	13993	2480.557963458003	1
0	13998	2480.965298644561	0
0	14021	2483.911125753697	1
0	14023	2485.577787298855	0
0	14044	2487.722912970465	1
0	14045	2488.125497589329	0
0	14065	2491.174229888968	1
0	14071	2491.926359054888	2
0	14073	2491.978944320473	3
0	14075	2492.215691481116	4
0	14078	2492.686355489332	3
0	14085	2494.514693289232	2
0	14092	2494.833322161783	1
0	14099	2495.837940361121	0
0	14120	2497.363224055133	1
0	14125	2500.206520694025	2
0	14127	2500.429156621111	3
0	14129	2500.450246750763	4
0	14131	2500.656827762338	5
0	14132	2501.258443288411	4
0	14137	2502.018107231653	3
0	14142	2502.138470005686	2
0	14147	2502.191759128462	1
0	14152	2503.389405551539	0
0	14156	2507.049584385585	1
0	14160	2507.489542262613	2
0	14162	2508.728495834261	3
0	14163	2508.772903198384	2
0	14167	2508.976143949003	3
0	14169	2510.049261943143	4
0	14171	2510.973700958201	5
0	14174	2511.581238569865	4
0	14181	2512.852176863615	3
0	14185	2514.966057693156	4
0	14190	2517.339978123432	3
0	14195	2518.451914031954	2
0	14201	2518.779809384778	3
0	14202	2518.93867427947	2
0	14207	2519.046226302823	1
0	14214	2519.659394208162	0
0	14218	2520.206914699533	1
0	14220	2520.75809874554	2
0	14223	2520.923459602944	1
0	14227	2521.467896441394	2
0	14230	2522.310723042697	1
0	14235	2522.742967571977	0
0	14241	2523.292568931109	1
0	14242	2523.568068987168	0
0	14253	2524.656586951345	1
0	14256	2525.192202769689	0
0	14276	2526.433706022715	1
0	14278	2526.498525838918	2
0	14279	2527.202433201882	1
0	14284	2527.913324253562	0
0	14300	2529.645412722064	1
0	14302	2529.848787136907	2
0	14304	2529.951713107442	3
0	14308	2530.59609936342	2
0	14315	2531.247527797309	1
0	14319	2532.70040705236	2
0	14322	2533.214901575416	1
0	14326	2533.492468075098	2
0	14330	2534.444460211288	3
0	14331	2534.728144006125	2
0	14335	2535.343773526073	3
0	14337	2535.404786908013	4
0	14342	2538.813016073538	3
0	14348	2540.368828568742	2
0	14354	2541.017635052735	1
0	14358	2542.25827381814	2
0	14360	2542.640167053577	3
0	14362	2542.935115937483	4
0	14366	2544.348252328187	3
0	14372	2544.531480923633	4
0	14374	2544.556282281953	5
0	14379	2545.134386431011	6
0	14380	2545.229447822628	5
0	14385	2545.523148938705	4
0	14391	2546.878515495608	5
0	14394	2547.273614278501	4
0	14400	2549.287794954214	5
0	14401	2549.305529010559	4
0	14407	2549.977703427652	3
0	14414	2550.458807348871	4
0	14417	2553.413989290009	3
0	14423	2553.430577656909	4
0	14425	2554.691368684372	3
0	14432	2554.948921765267	4
0	14433	2555.103547033634	3
0	14438	2555.178961874761	2
0	14445	2556.769686592127	1
0	14452	2557.846753293022	0
0	14470	2560.498050278503	1
0	14472	2560.708663893791	0
0	14484	2561.385825288023	1
0	14486	2561.446705042495	2
0	14489	2563.111816566418	3
0	14490	2563.510813440958	2
0	14495	2563.726050756357	1
0	14500	2564.322380183894	0
0	14512	2564.68410352051	1
0	14514	2564.909973689665	0
0	14520	2565.585589452583	1
0	14523	2566.368456821748	2
0	14524	2567.068260954187	1
0	14529	2568.598272129582	0
0	14541	2569.272500579654	1
0	14546	2570.419736933681	0
0	14552	2571.699595713417	1
0	14554	2571.728298326599	2
0	14555	2572.117970888961	1
0	14562	2572.812249576177	2
0	14563	2572.931638647295	1
0	14569	2572.937225882755	2
0	14570	2573.045279877569	1
0	14574	2573.345023420282	2
0	14577	2573.867520397528	1
0	14585	2576.305899092183	2
0	14586	2576.517267786554	1
0	14590	2577.598836829928	2
0	14593	2577.972330277404	1
0	14597	2579.174085606064	2
0	14600	2581.887851506113	1
0	14606	2585.564401626926	2
0	14608	2585.893516436239	3
0	14612	2587.552164518185	4
0	14613	2587.827945701636	3
0	14618	2588.504527652024	2
0	14623	2588.699300900592	1
0	14632	2589.922389456535	2
0	14635	2590.577350071466	3
0	14636	2590.614635397817	2
0	14642	2590.855750040085	1
0	14647	2591.219667163626	0
0	14678	2592.477269835105	1
0	14679	2592.869060943327	0
0	14700	2596.237457182221	1
0	14702	2596.362032966913	2
0	14709	2600.144428839049	1
0	14714	2600.153331826749	0
0	14718	2601.44877295945	1
0	14723	2602.968086868371	0
0	14727	2603.464559556345	1
0	14731	2604.407281772306	0
0	14762	2608.810587706564	1
0	14764	2609.354891113803	2
0	14768	2610.047113602078	1
0	14774	2610.088047117701	2
0	14775	2610.345765760454	1
0	14780	2611.197484031939	0
0	14784	2611.239825580913	1
0	14786	2612.963797272452	2
0	14790	2616.856526485565	1
0	14801	2618.976927271912	0
0	14815	2620.064831749014	1
0	14820	2622.787402178332	0
0	14847	2629.744036958393	1
0	14849	2630.115578673667	2
0	14853	2631.631971171526	3
0	14855	2632.202919972361	4
0	14857	2632.805004895844	5
0	14858	2633.388977783301	4
0	14863	2633.462848436504	3
0	14869	2634.394531881178	4
0	14870	2634.451635988884	3
0	14875	2634.923650754441	2
0	14884	2635.616826980381	3
0	14887	2636.471102523361	2
0	14892	2636.50365705676	1
0	14896	2637.230750402355	2
0	14905	2641.291389054087	1
0	14909	2641.642865078012	2
0	14911	2641.770190143252	3
0	14913	2642.24238423438	4
0	14915	2643.396386510683	5
0	14919	2644.30437457552	4
0	14924	2644.74622464721	3
0	14930	2646.681602621097	4
0	14933	2647.27191683703	3
0	14938	2648.244353501464	2
0	14946	2650.575423335213	3
0	14949	2651.645279833244	2
0	14956	2653.086245148134	3
0	14958	2653.412640594196	2
0	14963	2653.449073755668	1
0	14969	2653.528631426216	2
0	14971	2653.616630028739	3
0	14973	2654.843670929703	2
0	14978	2656.365145719378	1
0	14982	2657.189200083196	2
0	14986	2658.150346983253	3
0	14987	2658.587199430316	2
0	14993	2659.054481717784	3
0	14995	2659.386252553428	4
0	14998	2661.360938069162	3
0	15003	2662.711948294906	2
0	15009	2663.849396851341	3
0	15011	2664.102381684922	4
0	15022	2665.065898201252	3
0	15027	2665.308744567865	2
0	15031	2665.412962204706	3
0	15033	2666.138140911293	4
0	15036	2667.157376717286	3
0	15043	2668.470784540884	4
0	15044	2668.574562427512	3
0	15049	2668.580170998427	2
0	15057	2670.509562062486	1
0	15065	2671.08492118606	2
0	15066	2671.873099712366	1
0	15071	2672.97817248256	0
0	15075	2673.046381258197	1
0	15078	2673.497430469532	0
0	15086	2674.335447133373	1
0	15087	2674.917730362807	0
0	15091	2674.945137362581	1
0	15093	2675.00584053414	2
0	15095	2676.848842878746	3
0	15099	2678.948775686395	4
0	15100	2679.12967817955	3
0	15104	2680.704430423083	4
0	15107	2681.286688654804	3
0	15113	2681.96729685608	4
0	15114	2682.154715952972	3
0	15119	2682.317528764538	2
0	15123	2682.418383059156	3
0	15125	2682.862796388056	4
0	15129	2683.576708108793	5
0	15130	2684.259318491165	4
0	15139	2686.521371733575	5
0	15142	2687.345522598504	4
0	15149	2687.661929744983	3
0	15154	2688.442997372395	2
0	15161	2690.532574738411	1
0	15167	2691.052753935684	2
0	15168	2691.528228280836	1
0	15177	2693.7872985082	0
0	15181	2693.815602443447	1
0	15186	2696.193744044478	0
0	15197	2696.920459111748	1
0	15198	2697.137426815004	0
0	15202	2698.684622292388	1
0	15205	2699.79525843364	0
0	15209	2700.234422122794	1
0	15211	2700.504108366431	2
0	15217	2701.537485387608	1
0	15223	2703.220140651132	0
0	15235	2704.01560899301	1
0	15239	2704.64487929241	0
0	15253	2706.429890654367	1
0	15255	2706.956236184239	0
0	15265	2707.547614703704	1
0	15268	2708.294376190184	2
0	15272	2709.603676069659	1
0	15278	2710.085365342647	2
0	15279	2710.219319752198	1
0	15284	2710.714371360043	0
0	15304	2711.33828457075	1
0	15305	2712.090261306682	0
0	15346	2715.70402565748	1
0	15350	2716.117052897837	2
0	15352	2716.667708482046	3
0	15354	2717.048356342797	4
0	15355	2718.011966566061	3
0	15362	2718.822922104693	2
0	15367	2719.186052065454	1
0	15375	2719.526127470639	2
0	15377	2719.707333659101	1
0	15383	2720.148870601294	0
0	15420	2725.474603502728	1
0	15426	2727.070329502798	2
0	15427	2727.474881377584	1
0	15432	2727.934837843771	0
0	15452	2729.401779301909	1
0	15454	2729.474770729397	2
0	15464	2730.624754148117	1
0	15469	2731.02367253711	0
0	15492	2732.102076335875	1
0	15496	2733.036976144982	2
0	15498	2734.455022181019	1
0	15503	2734.587075773866	0
0	15528	2738.464439513369	1
0	15529	2739.218862834495	0
0	15546	2741.091189691907	1
0	15548	2741.404995530912	2
0	15553	2742.685115632187	1
0	15559	2743.55163351819	2
0	15563	2744.074665279087	1
0	15569	2744.97444252582	0
0	15584	2746.193240968689	1
0	15585	2746.280793129086	0
0	15591	2746.788343419054	1
0	15592	2747.879146562362	0
0	15604	2750.292889162017	1
0	15606	2750.687144446542	2
0	15608	2751.336356825617	3
0	15610	2751.655875762269	4
0	15611	2752.979288502331	3
0	15616	2753.267392434076	2
0	15621	2754.322062888217	1
0	15627	2755.823899582411	0
0	15642	2757.849443122616	1
0	15644	2758.158817308496	0
0	15653	2758.915867383199	1
0	15655	2759.09418336121	2
0	15656	2760.279116166792	1
0	15661	2760.734685346809	0
0	15673	2761.656556189475	1
0	15674	2761.78364487692	0
0	15685	2762.33568151702	1
0	15688	2765.369496143067	0
0	15705	2767.081225589678	1
0	15706	2767.338087410845	0
0	15714	2768.350368797949	1
0	15720	2769.145248302101	2
0	15721	2769.803108717169	1
0	15726	2770.243620850536	0
0	15730	2770.719402949644	1
0	15734	2771.815182797425	2
0	15735	2771.928109798667	1
0	15739	2774.122678816526	2
0	15743	2774.303797061468	3
0	15744	2774.624133173202	2
0	15749	2778.005517758966	1
0	15755	2780.75406354746	2
0	15756	2781.651326009396	1
0	15766	2783.303533475929	2
0	15767	2783.332594949803	1
0	15772	2783.358594145848	0
0	15778	2783.559732210605	1
0	15780	2784.399100989404	0
0	15797	2785.183003346174	1
0	15798	2785.381045622914	0
0	15802	2786.059192674379	1
0	15805	2786.185973116141	0
0	15809	2786.213542988851	1
0	15811	2786.218114276871	2
0	15814	2787.001118877732	1
0	15819	2787.435792077739	0
0	15827	2787.930077937818	1
0	15830	2787.983189469647	2
0	15833	2788.769241862619	1
0	15838	2788.818895952065	0
0	15856	2790.949743801373	1
0	15857	2791.606716498069	0
0	15880	2794.973091492077	1
0	15883	2796.050654407128	2
0	15884	2796.05304507718	1
0	15889	2796.326142651224	0
0	15907	2797.42273940863	1
0	15909	2797.9179392807	0
0	15916	2798.815521549615	1
0	15918	2798.836286249789	2
0	15919	2799.162725565208	1
0	15926	2799.749137073718	0
0	15938	2800.274701519267	1
0	15942	2801.116481056287	0
0	15957	2803.424880993359	1
0	15958	2803.499634923102	0
0	15974	2803.955615926987	1
0	15976	2804.561458888449	2
0	15980	2805.474655183015	1
0	15987	2805.762865617352	0
0	16035	2811.068857989865	1
0	16037	2811.174757148783	2
0	16041	2811.93097699566	3
0	16042	2812.708873079149	2
0	16048	2812.969791315854	3
0	16049	2812.975993284103	2
0	16054	2813.499817071523	1
0	16062	2813.89115806006	2
0	16064	2813.985973750836	1
0	16070	2814.838086556827	0
0	16090	2817.132934296819	1
0	16094	2817.953660126826	2
0	16099	2819.093219296159	1
0	16106	2819.43830407749	2
0	16107	2819.91921179087	1
0	16113	2820.73425127848	0
0	16132	2825.49942100399	1
0	16134	2825.570118909996	2
0	16136	2826.309000389028	3
0	16138	2826.367585423107	4
0	16140	2826.804156759296	5
0	16141	2827.293556474522	4
0	16146	2827.92071870419	3
0	16151	2828.138012085948	2
0	16157	2828.646747749654	1
0	16162	2829.530194288804	0
0	16201	2833.121552054682	1
0	16206	2833.71005228824	2
0	16209	2834.51988431686	3
0	16211	2834.832248214147	4
0	16213	2835.309193842129	3
0	16218	2835.587175568724	2
0	16223	2835.875446119305	1
0	16229	2836.680354330042	0
0	16235	2836.978550076101	1
0	16236	2837.075533513338	0
0	16247	2838.007330888884	1
0	16249	2838.855549058452	0
0	16266	2839.976940328537	1
0	16267	2840.324354011613	0
0	16273	2840.640637572781	1
0	16274	2840.814454034753	0
0	16286	2846.093527979428	1
0	16291	2846.502696578298	2
0	16292	2846.898812989682	1
0	16297	2847.218604265339	0
0	16311	2848.316330753468	1
0	16313	2848.833549322766	2
0	16314	2848.886608844301	1
0	16319	2849.358577210151	0
0	16353	2855.475198288964	1
0	16354	2855.642036757195	0
0	16371	2857.692841551642	1
0	16374	2858.681178676806	0
0	16383	2860.498099637573	1
0	16385	2860.569705204997	2
0	16390	2860.998336381573	1
0	16397	2861.648694509125	2
0	16398	2861.755404231331	1
0	16409	2864.387917521961	0
0	16415	2864.574722410554	1
0	16416	2864.962733837643	0
0	16427	2865.756987636379	1
0	16428	2865.942598331264	0
0	16513	2882.885820247883	1
0	16514	2882.959262023885	0
0	16521	2883.259408609127	1
0	16522	2883.323585493698	0
0	16548	2885.869209847346	1
0	16554	2887.181490317914	2
0	16559	2890.780331302584	1
0	16567	2892.809968548845	0
0	16584	2893.355365022257	1
0	16588	2895.017222940789	0
0	16602	2897.073590954913	1
0	16605	2897.221050773995	2
0	16607	2897.94322114713	1
0	16614	2899.131839676561	0
0	16622	2899.657811065071	1
0	16623	2900.082670233075	0
0	16648	2902.421176683579	1
0	16653	2904.110658498549	2
0	16656	2905.138151816203	1
0	16662	2905.30589607472	2
0	16664	2906.219854789195	1
0	16669	2906.809834332388	0
0	16697	2910.202105181002	1
0	16698	2910.236302053205	0
0	16730	2911.939632092294	1
0	16738	2916.14739889296	2
0	16740	2916.640248201795	3
0	16742	2916.87113434101	4
0	16743	2918.453560905771	3
0	16751	2919.000046642052	2
0	16757	2919.534890095835	1
0	16763	2919.997764576672	0
0	16769	2920.73078988792	1
0	16772	2921.436850352883	0
0	16778	2921.690603281028	1
0	16780	2923.405666658488	0
0	16800	2925.572027271065	1
0	16802	2925.772224036972	2
0	16803	2926.197643205127	1
0	16808	2926.552576029812	0
0	16825	2928.530454193618	1
0	16826	2928.655726448945	0
0	16852	2935.394095535038	1
0	16853	2935.518580414628	0
0	16874	2940.043979700016	1
0	16875	2940.508951636917	0
0	16886	2941.536997198672	1
0	16889	2942.002215186874	0
0	16902	2944.953928777932	1
0	16903	2945.432476103965	0
0	16930	2950.036502976253	1
0	16935	2952.627047815079	2
0	16938	2954.089336125221	1
0	16944	2954.311802352995	2
0	16945	2954.382188691973	1
0	16952	2954.831151378513	2
0	16954	2955.451195127048	1
0	16961	2956.50492927149	2
0	16965	2956.992669133266	3
0	16966	2957.856490406575	2
0	16972	2958.110060978553	3
0	16976	2958.767981069091	4
0	16979	2959.857486992709	3
0	16984	2960.146031809241	2
0	16991	2960.235049314821	1
0	16996	2960.848177957162	0
0	17030	2966.397985461155	1
0	17032	2967.934994193119	2
0	17034	2968.535460568085	3
0	17038	2969.324387347171	4
0	17041	2971.288651586715	3
0	17047	2971.369368978474	4
0	17048	2971.579914744561	3
0	17053	2971.924006856189	2
0	17058	2972.035256807071	1
0	17064	2972.357228268485	0
0	17070	2973.291451842189	1
0	17075	2973.950276601263	2
0	17076	2974.086262256821	1
0	17080	2974.706064564999	2
0	17082	2974.763783940401	3
0	17086	2976.692781324812	4
0	17088	2977.209205595636	3
0	17093	2978.060018993509	2
0	17098	2978.498123102692	1
0	17105	2980.052357141389	2
0	17109	2980.748996365873	3
0	17111	2981.00389005491	2
0	17117	2981.27111929475	3
0	17119	2981.477639165863	4
0	17122	2981.647891478079	3
0	17127	2981.994712227451	2
0	17131	2982.041607815943	3
0	17133	2982.542673996013	4
0	17135	2983.387083401656	5
0	17138	2984.866949624557	4
0	17143	2985.349291908851	3
0	17148	2985.98371234391	2
0	17154	2987.750371480152	3
0	17160	2988.970341806931	4
0	17163	2989.829494000494	3
0	17168	2990.449075453126	2
0	17177	2992.108565930294	1
0	17184	2993.058824153339	0
0	17200	2994.167588091971	1
0	17203	2994.698595106138	0
0	17225	2996.679096402252	1
0	17227	2996.866031452261	2
0	17232	3000.347830753797	1
0	17239	3001.069238430285	0
0	17245	3001.163037350825	1
0	17246	3001.246625182298	0
0	17258	3002.154778085719	1
0	17261	3002.972139074969	2
0	17263	3003.778181147777	1
0	17270	3005.223213943277	0
0	17298	3005.877208327771	1
0	17299	3006.436165876763	0
0	17305	3006.532053003272	1
0	17307	3006.939741702073	2
0	17310	3008.874537198805	1
0	17317	3009.404981941477	2
0	17318	3009.912054317805	1
0	17323	3010.227778153184	0
[...]
5	165414	29041.910817436124	4.02566344015
5	165424	29043.368964302658	2.070943175846
5	165458	29048.755734507289	0.688147097429
5	165473	29052.23129513962	2.239354226177
5	165482	29054.56027058524	4.199354929956
5	165512	29056.430689453019	1.158869398242
5	165519	29056.945652152524	0.919654294643
5	165539	29062.276773121273	2.821457874275
5	165544	29062.398357567893	1.095753750275
5	165573	29071.578823639582	2.764881816502
5	165594	29073.581888488215	1.049177937958
5	165628	29081.716920584289	4.762159942968
5	165633	29081.899025079609	1.001729426803
5	165647	29082.675801972255	0.553400254651
5	165653	29083.121780808605	0.872505984273
5	165671	29086.655152143704	3.077032765376
5	165676	29086.704949179292	1.878727159779
5	165684	29087.50905265112	2.396855896264
5	165701	29092.795236539072	4.029871379602
5	165716	29096.292307538402	4.282601063725
5	165722	29096.654587591839	3.43452470302
5	165730	29097.36191609564	2.139920502953
5	165739	29097.651885520645	2.315786006159
5	165748	29098.505384679332	1.301617072145
5	165753	29098.646748357093	0.998700500068
5	165758	29098.734836206208	1.004746306657
5	165802	29105.122093335753	2.038633630883
5	165807	29105.192739591054	1.781993798429
5	165816	29106.099359961082	1.951608749282
5	165826	29109.313330527741	3.77967262311
5	165836	29110.824256773207	2.121128953956
5	165843	29111.352865182261	0.921624545839
5	165850	29115.051319195852	4.195336724227
5	165858	29116.282192243001	1.702024006906
5	165865	29117.409973638687	1.324592800798
5	165870	29118.843415287008	2.536319680889
5	165885	29120.740078589682	0.792399579782
5	165960	29131.279200085347	1.969153875191
5	165966	29132.8968068515	2.371880542674
5	165974	29133.9867581741	3.371931964364
5	165990	29135.068559465936	0.888150030879
5	165997	29135.416318943281	0.77978258185
5	166026	29138.462785051829	1.822860744447
5	166036	29139.345813571234	1.806820737899
5	166042	29142.219185497717	3.910205383503
5	166049	29143.178928956353	4.318320877694
5	166056	29144.494943523658	1.750028563764
5	166070	29146.65578760346	2.058903225967
5	166121	29154.011971325011	1.371602190862
5	166153	29161.579946186714	4.482714963662
5	166158	29162.631943960437	2.891454621391
5	166175	29165.406166271315	0.915908785962
5	166194	29172.293481289281	4.773762595975
5	166204	29174.046861736167	4.221059447427
5	166209	29175.109626436885	3.62134743089
5	166229	29179.231695391818	3.693417289794
5	166237	29180.532067622299	3.752930244266
5	166248	29183.22223999529	5.877472791151
5	166253	29183.240161996198	3.953297622026
5	166265	29184.204566140078	2.671504735657
5	166271	29184.666500332463	0.602738944848
5	166305	29191.05881717437	2.287771253832
5	166315	29192.64656853071	2.172304717256
5	166322	29193.960389338442	1.688576988063
5	166361	29203.776990378501	3.001603622983
5	166367	29204.937046360573	2.137075462502
5	166390	29209.585699733421	0.548458612439
5	166414	29213.827566637072	4.04369089675
5	166421	29214.585667249802	3.838207040527
5	166428	29215.683106780558	4.901437962901
5	166435	29216.611077765105	3.853513611629
5	166440	29216.822135350132	2.357905586794
5	166476	29221.008514791858	3.093170944158
5	166481	29221.186283897799	1.861401244183
5	166500	29224.135955688074	0.476374636424
5	166517	29225.301573346937	0.648714429004
5	166564	29234.139021838679	3.880847642848
5	166569	29234.776574151369	3.029663799887
5	166576	29236.316162476243	2.679021865244
5	166603	29244.333191718484	7.257924876709
5	166612	29245.712252138864	7.615263438072
5	166617	29245.721407849631	3.519930083538
5	166623	29246.834721031788	4.366559698203
5	166629	29248.330659509874	5.703145267714
5	166645	29250.633735612943	2.091174309506
5	166650	29251.212662209425	2.640467075818
5	166693	29258.208286382357	1.473456603952
5	166716	29266.4656429288	3.192222421461
5	166725	29267.727114943304	1.568890724912
5	166737	29268.268732532831	0.354634124606
5	166756	29270.226468832678	1.380031712945
5	166803	29275.512157819104	1.14636525452
5	166826	29279.081262639252	1.489673418823
5	166856	29282.467906523433	1.780551746096
5	166870	29283.850722934331	0.741291477521
5	166893	29286.937978886215	1.741277292575
5	166913	29290.947257821856	3.243288561693
5	166918	29290.953837059774	2.917319947662
5	166924	29292.312560728342	3.556998928678
5	166953	29294.791682301651	0.590908506094
5	166961	29296.775321674898	2.132993473146
5	166976	29300.917449656531	6.173768554895
5	166982	29301.726844246997	6.868734465068
5	166987	29301.804262628052	4.681606264231
5	166992	29302.433263648235	2.424178705639
5	167016	29304.555682213719	1.693357917806
5	167023	29305.756153346437	2.672428351228
5	167029	29306.109380823032	0.728010482509
5	167049	29309.357681831982	2.571079725493
5	167072	29311.986803549198	2.378005178143
5	167077	29312.119463103768	0.552721089814
5	167105	29315.724601570174	2.459376942321
5	167118	29316.48154430131	0.383896867665
5	167134	29319.298710458021	2.342946467413
5	167139	29320.042786257202	1.562432018547
5	167153	29321.129808676008	1.058321220888
5	167160	29321.537823079063	1.314059952867
5	167175	29324.051831727117	0.804467488474
5	167190	29325.742926581749	0.908398671486
5	167197	29326.438723900466	1.419710616655
5	167207	29328.657408841958	2.311617925236
5	167238	29333.580959676592	1.736690002791
5	167249	29335.42127717864	3.568359347674
5	167254	29335.76158062782	1.787005850842
5	167263	29337.395810915029	2.461004259163
5	167271	29338.585552690408	2.365419532723
5	167276	29340.900520374059	3.312844703614
5	167290	29343.106365883374	1.138578808252
5	167307	29343.70074143542	0.536488633961
5	167329	29347.345411782318	1.651980491573
5	167364	29356.577524238985	4.750975057147
5	167369	29357.202112742793	5.029161125843
5	167376	29358.255753175263	4.998268285657
5	167381	29358.259071477445	4.749015548648
5	167387	29360.207178472021	6.626435279776
5	167394	29360.41342825969	4.237913061784
5	167421	29362.606812378752	1.984164463748
5	167426	29362.888344852997	2.215858313909
5	167436	29365.573815150231	4.401557718096
5	167447	29367.653362466803	6.216500848023
5	167464	29372.971320591249	10.84854721
5	167471	29373.305872386272	8.697919400017
5	167479	29375.200816694117	8.989425235455
5	167484	29376.309804012734	9.304269120958
5	167489	29376.311138317209	9.134644376789
5	167494	29376.630583368208	8.37417131023
5	167505	29379.193316769796	10.794899190057
5	167512	29381.175344602845	11.112351523776
5	167520	29382.655225310758	8.909595779747
5	167525	29382.814780277435	6.070426330315
5	167532	29384.270801479436	6.544617907878
5	167539	29385.317054120042	6.155366552227
5	167553	29387.045622445092	6.338039326743
5	167558	29387.060929375547	4.721766652966
5	167570	29390.490436233639	7.611598842829
5	167577	29391.332534601854	5.162870176159
5	167582	29392.135343830968	5.442681179698
5	167593	29395.774413386624	6.353748457179
5	167611	29401.394917968331	11.676207029018
5	167619	29403.355566257014	12.427179807429
5	167629	29404.320485504831	12.048969966568
5	167634	29404.36403384705	9.263593677479
5	167642	29405.149894030923	8.201363845993
5	167651	29407.011833741964	9.33160949041
5	167656	29407.558523862089	8.960278384114
5	167661	29407.645733638156	7.774053865349
5	167666	29407.990041795484	7.679063323134
5	167679	29411.369028225215	8.235437169642
5	167686	29414.03318988964	9.395990964594
5	167695	29417.645889334906	11.020266990396
5	167701	29418.432390683802	10.066978580702
5	167714	29422.160667270023	11.774994266803
5	167722	29424.158369239849	13.240032893318
5	167731	29425.008883496046	13.654481964977
5	167740	29425.92630496734	12.910529779862
5	167746	29426.699878587975	12.660615007067
5	167752	29426.954711394027	11.988520691384
5	167765	29429.057951049901	8.763543765406
5	167774	29431.285683349242	10.672418665662
5	167785	29432.411209350477	11.569415697021
5	167794	29434.414280862804	10.177415620754
5	167799	29434.462348416569	9.246862212646
5	167808	29436.632308304742	7.826819903805
5	167821	29439.97447978992	10.861726675542
5	167827	29441.086336726749	11.45772165844
5	167836	29444.356659177423	13.06232676028
5	167844	29446.158911370321	14.706161284528
5	167849	29446.234784208695	14.152485950153
5	167864	29449.366271302869	16.867098991938
5	167875	29451.477589556942	18.331868265041
5	167893	29456.179781855066	20.52336070372
5	167898	29456.647892163101	18.65271649727
5	167907	29457.951794484814	18.474659078425
5	167917	29459.622376628717	14.851660868354
5	167922	29459.637333975967	12.636023411069
5	167941	29462.972642980067	14.52833280818
5	167951	29464.358352254593	15.649962986717
5	167956	29465.05653299959	15.800206081067
5	167963	29465.440619184175	14.978339588777
5	167972	29468.296096708229	16.655873902418
5	167981	29471.964087932713	18.66900866202
5	167986	29474.260603329315	19.657106422691
5	167991	29475.234711268427	19.272809670478
5	167996	29476.793018418854	17.323049673829
5	168009	29480.798936946838	20.028078179745
5	168014	29483.276723373342	22.033118797444
5	168019	29483.759809643957	22.275302342932
5	168026	29484.946281900499	21.594560465795
5	168031	29487.349988303682	23.931036722251
5	168039	29489.905963923353	24.037664857771
5	168053	29493.362071542782	14.823368689623
5	168058	29493.780834818772	15.006053872305
5	168071	29496.754521237037	17.486375116215
5	168080	29499.310147509927	11.223375951379
5	168091	29501.403879046049	10.970153102407
5	168096	29501.417988767041	8.853314796936
5	168101	29501.561675041683	6.880653857744
5	168108	29502.607614780947	7.262183720436
5	168113	29503.602137992409	4.675719157269
5	168120	29504.404212292126	5.110441463262
5	168125	29504.664794223657	0.900078346464
5	168143	29507.84508796424	2.697701658097
5	168152	29508.32567418071	1.007533216519
5	168157	29509.823889728678	1.833466955392
5	168186	29512.733215622509	2.425498912685
5	168191	29513.09258825037	0.458443139327
5	168220	29519.633949889189	2.530340549382
5	168228	29521.208959467482	3.263200014266
5	168238	29523.492245510234	3.250811633081
5	168243	29523.631168724179	1.249421808762
5	168292	29529.91984671098	2.977884295897
5	168297	29530.525032984544	3.10316687179
5	168309	29532.797255480834	3.594575956196
5	168314	29532.808126056154	1.027114469155
5	168332	29535.02031332576	1.768367864926
5	168337	29535.257668148112	0.763113676344
5	168357	29538.000746275571	2.607173546067
5	168364	29538.454989442938	2.519241578258
5	168380	29540.265586757785	0.998865110746
5	168385	29540.361114720133	0.180830416998
5	168401	29542.519884449646	1.026547437564
5	168417	29546.028850661598	0.437942376488
5	168424	29546.881076702119	1.255034196531
5	168433	29548.670991190329	2.127738609391
5	168442	29549.698700780844	2.002862165851
5	168459	29556.272053111113	8.068302085575
5	168464	29556.927068909828	7.577947758286
5	168475	29558.895999195684	7.7958511139
5	168480	29559.26134710805	7.889880908244
5	168487	29561.18501441803	7.317904395029
5	168500	29562.147561967093	7.109879925007
5	168507	29562.522653463933	0.954387750544
5	168518	29565.160183978553	3.245353186365
5	168523	29568.018463559643	5.772394749433
5	168528	29568.490172851119	5.415738497516
5	168540	29570.205654616654	0.461910543487
5	168553	29572.166453897173	1.687026685383
5	168572	29574.659045503216	1.151274102769
5	168586	29576.895560004641	2.006189002775
5	168599	29581.872931296274	5.371471885643
5	168607	29582.659906310055	2.611653756022
5	168613	29583.315595286234	2.270119811891
5	168618	29583.906811103263	2.284405414021
5	168623	29584.153042308842	2.064538212576
5	168656	29592.656701409469	4.049963123634
5	168663	29593.634069568904	1.458487037671
5	168677	29596.070671297627	2.193497563035
5	168682	29597.477791905897	2.928459476836
5	168702	29601.206406024089	0.475426326646
5	168728	29605.643506336398	3.332176057555
5	168733	29606.596557793643	3.70430103939
5	168740	29609.897406859794	6.846143956867
5	168750	29612.237425266614	8.433884904055
5	168757	29614.164539238422	9.78974232771
5	168764	29615.168795087065	9.812920059641
5	168772	29616.402422205779	9.094666196875
5	168779	29616.513893009309	5.64972110997
5	168788	29618.883987597332	2.717284703321
5	168803	29622.864759322294	6.453963955093
5	168809	29623.486788760728	5.928065061186
5	168820	29627.60661857542	5.536195515548
5	168833	29629.135941898132	6.986177220128
5	168844	29630.797769143976	6.698342260008
5	168857	29633.101151538227	4.410881746815
5	168876	29640.175288257281	9.721415566873
5	168886	29641.352663706793	10.397364575594
5	168891	29641.738545192462	10.766443269189
5	168904	29642.826134894267	11.653708364336
5	168909	29643.549158723117	11.244304508467
5	168914	29643.723468066757	10.248202456675
5	168925	29647.694719749986	13.468761882508
5	168932	29649.442605161076	14.58161964446
5	168937	29651.171900968445	15.755902469179
5	168946	29656.043427080386	20.06756842463
5	168958	29658.374096787617	18.809140800718
5	168963	29658.607888211029	15.818895375614
5	168974	29660.922460687713	14.937942169759
5	168979	29661.370501212305	13.929563627885
5	168986	29663.531550173063	11.824936362888
5	168991	29664.221688296247	8.155059886143
5	168998	29664.68052473847	8.303938283411
5	169006	29665.496891943145	8.001850033872
5	169011	29665.701985947445	6.836245269998
5	169024	29668.766836690185	7.937451165683
5	169031	29670.075085966255	2.843675041847
5	169081	29674.615623247529	0.680154173836
5	169108	29683.236215848775	3.776859326481
5	169123	29684.546672773186	0.402590129184
5	169148	29688.407291572546	2.707995333007
5	169154	29690.03229187278	3.439709873245
5	169160	29691.425131251051	4.646102007057
5	169165	29692.237056077578	5.272486501856
5	169170	29692.4195767641	4.529103963951
5	169189	29694.877305936482	2.249275569179
5	169194	29695.43743742049	1.219688576833
5	169217	29700.576101474549	3.160801801458
5	169294	29718.213769451436	2.352357852363
5	169299	29718.28704049967	1.998743018139
5	169330	29723.689769339674	0.869816175191
5	169348	29725.98859489277	1.610860588478
5	169355	29726.834803310367	1.768410891751
5	169367	29727.837742935896	0.928961415089
5	169387	29732.266155159264	1.026691082055
5	169401	29734.303157407276	1.480344480357
5	169406	29735.028095418486	0.821583990369
5	169426	29738.354797625166	2.082643159117
5	169433	29739.118831291328	1.813031658904
5	169455	29744.761370468955	5.117710333213
5	169460	29746.866133108669	3.397030216913
5	169486	29750.615429124599	2.9582997027
5	169493	29750.763635113809	1.815461165744
5	169500	29750.936884915778	0.564568889124
5	169505	29750.965036799866	0.313898988975
5	169515	29753.348103497019	2.488989204143
5	169523	29753.800873175618	2.701895697708
5	169528	29753.805783127517	2.598126543844
5	169534	29754.825301886731	1.081868830384
5	169562	29756.816884321003	0.778859956209
5	169609	29762.091183223653	2.422929140259
5	169617	29763.120168784335	2.450980714151
5	169624	29764.707091126402	3.919819296669
5	169629	29764.98048826895	2.040829936869
5	169634	29765.780518319423	2.545400045433
5	169655	29769.490921670374	0.411770363585
5	169694	29775.675079455367	1.958886886043
5	169712	29779.181006832254	1.824543487288
5	169717	29779.252467915677	1.21830234525
5	169723	29779.783077734106	1.294782589678
5	169741	29781.67960434531	1.708298477304
5	169746	29782.070324822185	1.505864551966
5	169751	29782.479109335773	1.234366440906
5	169773	29784.463661080601	1.672052203825
5	169778	29784.658796360563	1.345882326421
5	169783	29784.766047958654	1.354665699221
5	169798	29785.992655034189	0.987969564286
5	169807	29788.30923164053	2.698501867469
5	169862	29796.357279890696	0.157790260299
5	169884	29801.348698548565	4.801859159983
5	169890	29803.113555795969	5.817611910951
5	169898	29804.164277784219	5.447525748562
5	169905	29804.731268684977	4.987605923335
5	169910	29804.905991500049	3.774783629841
5	169927	29807.669612106652	3.911687648292
5	169935	29808.919318799499	3.792641533616
5	169940	29810.188966296296	4.42693048504
5	169949	29812.959782246685	7.130586042989
5	169955	29813.852605702293	7.414454367915
5	169960	29814.586249663632	8.07166479233
5	169965	29815.321840359465	7.854271300213
5	169974	29816.11978879425	7.584218106667
5	169981	29818.257307800938	5.808128135453
5	169992	29821.149394981259	5.617507075746
5	170001	29821.813637624166	5.980600598103
5	170008	29822.220193713287	1.8070137745
5	170026	29827.078230259237	6.460380944746
5	170033	29828.110622068399	6.341181686235
5	170042	29829.540792109809	7.345896280099
5	170049	29830.927237682036	8.057536368498
5	170054	29831.002849691379	7.112586715562
5	170067	29832.759510391398	8.496914947947
5	170074	29833.476894376358	7.373211012603
5	170081	29836.745309418992	10.516305432982
5	170089	29838.716348766009	8.156019393556
5	170094	29838.876734583561	7.408495151728
5	170101	29839.269371568716	7.352104071543
5	170110	29840.627835776942	8.704458693124
5	170119	29842.12041375597	9.05946433039
5	170124	29842.804256045103	6.533093124249
5	170135	29846.457315209361	6.695035914913
5	170144	29847.289232527282	5.812792963175
5	170149	29847.746785139875	6.172858277778
5	170159	29848.777793669178	3.865657594685
5	170167	29850.153947074927	4.494139657598
5	170172	29851.159714531898	4.032370148334
5	170177	29851.608112116935	3.582549561079
5	170190	29855.513261087932	5.901150742986
5	170201	29860.437352476912	8.317028877949
5	170210	29863.541292724773	10.39028258635
5	170215	29864.236255173926	5.187913132604
5	170220	29865.020692579098	1.57135779522
5	170241	29869.932799148153	4.624911173364
5	170251	29871.836219530699	6.284629250912
5	170261	29872.202868770226	5.847423803928
5	170266	29872.240747004198	5.142483079426
5	170272	29873.229939516771	5.63434528638
5	170277	29874.646916235682	4.25875548992
5	170285	29876.177324163222	5.239648542517
5	170292	29877.820097286057	5.717113367254
5	170299	29878.764159678395	3.823460012804
5	170309	29881.880388786355	4.864523119662
5	170316	29883.286729730732	4.727886320535
5	170333	29888.023577854217	8.903090706008
5	170340	29889.343679146956	7.298227838531
5	170347	29889.861113931441	5.559749667791
5	170356	29893.961444679368	8.592020290418
5	170361	29894.833270737777	8.916080373285
5	170366	29894.998116787696	7.632354287148
5	170371	29895.597530038595	5.758062118733
5	170410	29901.092937717484	0.305800665116
5	170438	29909.50717970065	6.18981245093
5	170449	29911.530706576424	2.454069699881
5	170455	29911.792550730562	1.448026234521
5	170462	29912.359794511976	0.897659536923
5	170476	29913.180782046535	0.799686674286
5	170497	29916.05364959308	0.708664240258
5	170504	29917.180790043685	1.66449094162
5	170549	29921.898573836044	3.135198406715
5	170556	29922.471316143259	3.181424808573
5	170567	29924.270734797659	2.659081232169
5	170574	29924.947161922206	3.24477474794
5	170579	29925.108809372973	3.30564571829
5	170586	29926.679430529875	4.027521536447
5	170591	29926.796376214155	2.005613292642
5	170609	29929.804525170758	2.010659272298
5	170615	29930.765352680823	1.647354123339
5	170679	29940.525492494075	5.757600333595
5	170685	29942.284807807933	6.308507123616
5	170690	29942.610015834839	3.213535167872
5	170695	29943.055061481946	2.779150435339
5	170710	29945.478981506963	1.811430927207
5	170728	29948.139173881521	1.753386847745
5	170762	29956.204543478162	6.191578228138
5	170767	29957.032301472307	6.353575680944
5	170779	29959.216773010373	6.715350411082
5	170791	29962.228054237311	8.738927720971
5	170811	29966.773320041559	10.657637968449
5	170816	29966.854350946247	8.289174876008
5	170823	29969.480558349682	9.136759424398
5	170833	29973.364661606086	11.750562462339
5	170842	29975.375862157582	12.829479581865
5	170851	29978.863921466281	15.721861492023
5	170856	29979.642921284396	13.203702462651
5	170862	29982.125233858469	14.894825928554
5	170870	29982.359827300923	9.934107192771
5	170875	29982.389476410499	9.573632593711
5	170880	29982.916255507125	8.971820297131
5	170891	29987.112824590951	10.488644661616
5	170901	29988.528862650225	9.808311066065
5	170906	29989.181412405628	5.012559006039
5	170913	29992.491676092002	8.313693966131
5	170922	29993.676691178177	7.929725397401
5	170927	29993.827793732818	6.528772844225
5	170936	29997.95297660392	9.770534164945
5	170941	29997.956594103734	4.705442727549
5	170948	29998.864868015567	5.339109221686

