version 2
run First-n2-18-20191016-14:53:11-7612
attr configname First-n2
attr datetime 20191016-14:53:11
attr experiment First-n2
attr inifile omnetpp.ini
attr iterationvars ""
attr iterationvarsf ""
attr measurement ""
attr network org.omnetpp.queueing.Pizza
attr processid 7612
attr repetition 18
attr replication ""
attr resultdir results
attr runnumber 18
attr seedset 18
param **.PS.maxInventoriedPS 2
param **.U1.interArrivalTime exponential(2s)
param **.U2.interArrivalTime exponential(4s)
param **.PS.serviceTimeForInventoryU1 exponential(0.8s)
param **.PS.serviceTimeForInventoryU2 exponential(1.0s)
param **.PS.serviceTimeDirectU1 exponential(1.2s)
param **.PS.serviceTimeDirectU2 exponential(1.4s)
param **.PS.probabilityProducing 0.5
param **.CS.serviceTimeU1 exponential(0.8s)
param **.CS.serviceTimeU2 exponential(1.0s)

vector 0 Pizza.EntryQueueU1 queueLength:vector ETV
attr interpolationmode sample-hold
attr title "queue length, vector"
vector 1 Pizza.CS queueLength:vector ETV
attr interpolationmode sample-hold
attr title "queue length, vector"
vector 2 Pizza.EntryQueueU2 queueLength:vector ETV
attr interpolationmode sample-hold
attr title "queue length, vector"
vector 3 Pizza.sink lifeTime:vector ETV
attr interpolationmode none
attr title "lifetime of arrived jobs, vector"
attr unit s
vector 4 Pizza.sink lifeTimeU2:vector ETV
attr interpolationmode none
attr title "lifetime of arrived jobs, vector"
attr unit s
0	0	0	0
0	13	2.558026770941	1
0	15	2.581173658892	2
0	20	4.003604927843	1
0	24	4.775011115572	2
0	26	4.832439629344	3
0	31	6.92441673768	2
0	37	8.795808639043	1
0	44	9.488702830233	0
0	61	12.560094858392	1
0	64	14.74027603251	0
0	71	15.924627577483	1
0	73	16.346304006661	2
0	75	16.821073051732	3
0	78	17.569571998835	2
0	85	18.369502568848	3
0	86	18.760597659505	2
0	92	19.088340470974	3
0	93	20.16829206018	2
0	97	20.669649910845	3
0	101	21.56598672754	4
0	102	22.135406141258	3
0	109	23.970445629105	2
0	114	25.000212542526	1
0	119	26.827449067852	0
0	123	27.366402707268	1
0	126	27.756416457592	0
0	132	28.636922280792	1
0	136	30.256537750154	2
0	142	30.498100489707	3
0	144	31.334069142308	4
0	146	32.602935681327	5
0	149	33.344741648245	4
0	157	35.526588851171	3
0	164	35.905519681713	4
0	165	36.64648759175	3
0	171	36.712067869973	4
0	172	37.825224816199	3
0	178	38.145636533435	2
0	184	38.161938024748	3
0	186	39.277654717095	4
0	187	39.34654993345	3
0	192	39.810040565455	2
0	196	40.568906379195	3
0	199	42.63024203301	2
0	205	43.432979248616	3
0	207	44.247840833356	2
0	212	44.743748416169	1
0	217	46.680221627063	0
0	239	49.204811788006	1
0	242	50.686304781284	2
0	243	51.860956360424	1
0	250	52.654960770504	0
0	256	53.037184762961	1
0	257	53.268523488492	0
0	266	53.989794924998	1
0	268	54.322887695964	2
0	273	55.461605642878	1
0	279	55.96401615589	0
0	292	59.260570319696	1
0	295	60.346010417485	0
0	301	60.969135248355	1
0	303	61.398674756888	0
0	310	62.261763485267	1
0	311	62.3437101348	0
0	317	62.598786989574	1
0	318	63.153824726617	0
0	348	69.342598353539	1
0	354	70.694638371943	0
0	360	71.136606685039	1
0	361	71.503422293285	0
0	372	71.727612988431	1
0	375	73.069016310009	0
0	388	73.319843335776	1
0	389	73.640916637972	0
0	397	73.931514563392	1
0	400	75.049390253106	0
0	408	76.085494279042	1
0	409	76.2212500791	0
0	423	78.528309605415	1
0	429	80.982698048561	0
0	444	84.903438989274	1
0	446	85.511094950449	2
0	448	86.340950906226	3
0	451	87.082294410354	2
0	459	88.640883976962	3
0	461	88.939549751004	2
0	467	89.455421391777	1
0	472	90.060358484196	0
0	476	91.343597163203	1
0	478	91.513015423596	2
0	483	95.037580357354	1
0	488	97.983807204654	0
0	514	102.268962977798	1
0	516	103.631270520126	0
0	585	122.637424870198	1
0	587	122.794401970792	0
0	649	133.048011718309	1
0	651	133.312690345001	0
0	684	138.819233072257	1
0	686	138.838477917496	2
0	690	140.540969658358	3
0	691	140.618182617897	2
0	695	140.817484082754	3
0	697	140.990665178511	4
0	701	142.445245473575	5
0	703	142.952471460989	6
0	704	143.322343780842	5
0	708	143.442193448867	6
0	713	144.71515704685	7
0	716	145.419877797364	8
0	717	145.594219670045	7
0	726	146.51451546748	6
0	730	146.788248731545	7
0	732	147.699384150455	8
0	736	149.896350428651	9
0	738	150.083474403088	10
0	744	150.354120972841	11
0	745	151.095455159617	10
0	751	152.188526260286	9
0	757	152.941158544687	10
0	758	153.637629103867	9
0	765	154.9399034004	8
0	772	155.715124987329	7
0	776	156.443161075953	8
0	780	156.77090800835	9
0	781	156.968993779624	8
0	785	156.977587909148	9
0	788	158.55904735749	8
0	793	159.296030167754	7
0	797	159.48976771196	8
0	800	160.898925050223	7
0	807	163.27546183799	6
0	813	164.934186874018	5
0	820	165.489254250298	4
0	829	169.161619730149	3
0	833	170.517539413177	4
0	836	171.158378522899	3
0	844	171.439954047306	4
0	846	171.601884013208	5
0	847	171.648977918751	4
0	855	175.679102942659	3
0	860	175.746984552343	2
0	865	176.406770171212	1
0	869	176.56743608335	2
0	872	177.473089193709	1
0	876	178.156830822577	2
0	879	179.005191203859	1
0	884	179.819258195749	0
0	894	181.022961199301	1
0	895	182.181593814747	0
0	911	182.58369800866	1
0	915	184.988122164396	2
0	916	185.297908592904	1
0	924	185.718562485938	2
0	925	185.789088574072	1
0	931	186.86447721047	2
0	933	187.051868163842	1
0	938	187.233116129087	0
0	945	188.483360851076	1
0	946	189.06962937605	0
0	959	192.364847332718	1
0	960	192.441870787175	0
0	971	193.794260462567	1
0	975	195.956483542134	2
0	976	196.094260911627	1
0	981	196.120607764196	0
0	987	196.433472453761	1
0	989	196.784186709009	0
0	993	197.031169990318	1
0	995	198.179954910328	2
0	997	198.197163621475	3
0	999	198.256621819036	4
0	1003	199.507509432069	3
0	1008	199.738878009383	2
0	1012	200.04453121558	3
0	1015	202.513097512008	2
0	1020	203.721146177494	1
0	1025	204.839376781046	0
0	1029	205.874941538309	1
0	1035	207.123635199289	2
0	1036	207.36712133768	1
0	1040	208.890933687805	2
0	1044	209.458124997168	3
0	1045	210.36049711592	2
0	1050	211.842844564704	1
0	1055	212.703180713127	0
0	1070	214.869853549893	1
0	1071	214.974841545581	0
0	1075	215.253951989988	1
0	1081	216.807011995493	0
0	1087	216.914698596318	1
0	1088	217.931361853495	0
0	1118	223.339821442218	1
0	1123	225.801993191933	0
0	1166	232.441019234401	1
0	1167	232.996589653215	0
0	1181	234.741591135341	1
0	1185	235.915108445879	2
0	1190	236.165508939953	3
0	1192	236.620834059465	4
0	1193	236.839328720405	3
0	1198	236.888935876628	2
0	1205	237.009529763657	3
0	1206	237.190246635377	2
0	1212	237.883547092444	1
0	1218	238.809593566099	2
0	1221	239.080006748234	3
0	1222	239.170704947774	2
0	1228	239.214372220116	3
0	1232	239.662391683682	2
0	1239	240.33114412294	1
0	1246	240.658731341221	2
0	1248	242.562196203724	1
0	1254	242.643500397901	0
0	1266	244.330014048022	1
0	1268	245.180171043883	2
0	1269	245.690782695428	1
0	1274	246.482700853329	0
0	1292	248.704301256983	1
0	1294	248.858093745305	0
0	1306	251.480540031845	1
0	1311	253.214329864979	2
0	1316	254.666484686456	1
0	1321	254.936884193417	0
0	1327	255.038510602254	1
0	1329	255.407559809919	2
0	1331	256.20013179723	1
0	1336	256.7493896177	0
0	1352	258.658230272088	1
0	1354	259.26376120699	2
0	1358	261.861997314479	1
0	1363	263.575779885812	0
0	1367	264.136797210793	1
0	1369	264.426306187228	2
0	1371	264.635344959811	3
0	1373	264.7497861639	4
0	1377	268.990250188307	3
0	1383	270.175167284667	2
0	1391	270.31971732646	3
0	1393	270.947192731689	2
0	1398	271.118289992593	1
0	1404	272.266184046624	2
0	1406	272.337185650971	3
0	1408	273.047990913216	4
0	1411	273.471060784905	3
0	1416	274.14091995481	2
0	1421	274.709503824631	1
0	1427	276.188324171127	0
0	1438	276.640102730387	1
0	1441	277.256083778582	0
0	1452	278.578869603458	1
0	1453	279.01914145446	0
0	1484	282.272508714397	1
0	1487	283.053868510703	0
0	1497	284.070094596701	1
0	1500	286.052375495524	0
0	1520	290.431117972809	1
0	1522	290.563588513063	2
0	1524	290.865532399461	3
0	1525	290.89622240577	2
0	1533	291.604987853137	3
0	1535	291.861302056114	4
0	1537	292.352079195374	3
0	1542	292.364458617564	2
0	1548	292.518261075761	3
0	1549	292.845977357316	2
0	1553	292.863577353974	3
0	1560	294.455392873615	4
0	1563	295.263223704159	5
0	1564	295.641887408521	4
0	1570	295.831938666526	3
0	1575	296.822933907611	2
0	1581	297.127271722357	3
0	1582	297.159584018362	2
0	1590	297.481192526678	3
0	1591	297.880712037547	2
0	1600	301.9478028168	1
0	1604	302.449658829417	2
0	1609	305.377014049047	1
0	1615	305.964220545205	0
0	1622	306.767879572437	1
0	1623	307.962224094808	0
0	1662	312.351120731314	1
0	1667	313.303679878777	0
0	1673	313.378865584053	1
0	1675	313.628836170788	0
0	1687	315.706533205009	1
0	1689	316.443668444601	0
0	1695	316.782015107961	1
0	1696	316.932515874203	0
0	1722	318.40468671454	1
0	1723	318.574269361876	0
0	1729	318.665366479289	1
0	1731	319.462524077869	0
0	1902	361.458888471704	1
0	1905	362.341495726297	0
0	1937	371.742796896753	1
0	1940	372.638451510476	0
0	1946	372.86231982994	1
0	1947	374.040882456758	0
0	1951	374.252100458058	1
0	1954	375.581969337409	0
0	1968	377.617995994151	1
0	1969	377.699414272247	0
0	1978	378.616186361692	1
0	1979	379.246679864401	0
0	1994	381.494451091565	1
0	1995	381.695879691362	0
0	2002	382.520369445474	1
0	2003	382.903417750008	0
0	2009	383.815654542972	1
0	2013	385.76484583216	0
0	2019	386.633665130603	1
0	2020	386.838073988097	0
0	2024	387.856739504624	1
0	2027	390.339211729618	0
0	2040	391.896634072393	1
0	2041	392.773113535553	0
0	2067	398.489018281974	1
0	2069	398.577018364271	2
0	2074	399.570861385054	3
0	2076	400.061362496925	2
0	2081	400.45847778095	1
0	2086	400.490046807933	0
0	2101	402.871562940831	1
0	2102	403.645391939628	0
0	2138	411.116241622959	1
0	2140	411.939430249762	2
0	2143	413.394555863514	3
0	2145	413.752927292646	4
0	2146	414.577548650736	3
0	2151	414.744575949283	2
0	2157	415.215193279611	3
0	2159	417.573939407733	2
0	2165	417.992668701507	1
0	2170	418.038399717967	0
0	2174	418.841109120649	1
0	2178	421.75306246352	0
0	2192	423.254970558036	1
0	2196	424.198537193979	2
0	2202	425.308696802637	1
0	2207	425.537731143541	0
0	2221	428.644282992214	1
0	2222	428.936168827287	0
0	2238	429.938697539513	1
0	2240	430.402091343298	2
0	2246	431.736247013778	3
0	2247	431.867448929671	2
0	2253	432.586091561141	3
0	2254	433.008532607399	2
0	2258	433.565663236609	3
0	2263	435.746604958176	2
0	2267	436.345934950093	3
0	2271	438.723787847706	4
0	2273	439.793423606598	3
0	2278	440.303279260072	2
0	2285	442.681491058217	1
0	2290	442.710199210866	0
0	2307	444.148783487906	1
0	2308	444.487384490497	0
0	2318	445.31930288458	1
0	2325	448.095424768036	2
0	2329	449.37711853625	1
0	2337	449.530038272472	2
0	2340	450.947696923058	1
0	2350	453.196970617451	2
0	2351	454.120080989814	1
0	2355	454.489840458061	2
0	2358	454.64702761831	1
0	2367	456.021472735769	0
0	2371	456.124184829479	1
0	2375	457.034124173025	2
0	2377	458.886756382471	3
0	2378	459.412577603718	2
0	2383	459.992368488884	1
0	2388	460.983498177012	0
0	2394	462.311415994681	1
0	2395	463.026758643106	0
0	2399	463.844468574615	1
0	2403	464.461671652634	2
0	2404	464.468306452868	1
0	2409	464.976466791478	0
0	2429	468.502539504861	1
0	2432	471.66955577945	0
0	2460	477.126307053651	1
0	2471	478.514199968289	2
0	2472	478.96338532777	1
0	2477	479.226465750887	0
0	2495	482.378930803148	1
0	2497	484.323159880435	2
0	2499	484.802569646677	3
0	2501	485.21723050391	4
0	2506	485.923329068858	5
0	2509	486.234351861596	4
0	2518	486.775193644256	5
0	2519	487.812176431178	4
0	2524	488.123992275492	3
0	2531	488.56666064439	2
0	2539	489.276117246769	1
0	2545	490.15202613405	0
0	2562	493.450031218943	1
0	2564	494.231195975751	0
0	2568	494.90524943502	1
0	2571	495.479308238802	0
0	2575	496.368232247536	1
0	2579	497.04835002251	2
0	2582	498.446619811573	3
0	2583	498.834846115583	2
0	2588	499.233859631752	1
0	2593	499.333035556314	0
0	2597	499.38512189884	1
0	2601	500.169402040055	2
0	2602	500.320380014148	1
0	2607	500.81589222208	0
0	2622	502.885702414164	1
0	2623	503.595167888822	0
0	2636	504.567638310683	1
0	2637	504.953421036119	0
0	2646	506.075533030068	1
0	2648	506.085618508565	2
0	2650	507.404250119521	3
0	2655	508.106616518645	2
0	2659	510.929785255362	3
0	2661	511.294509241049	4
0	2664	511.799662922998	3
0	2668	512.176624785436	4
0	2676	514.489266136822	5
0	2678	514.583751601293	6
0	2680	515.312475952278	7
0	2686	516.043795523017	8
0	2688	516.227262320134	9
0	2691	516.864111074229	10
0	2694	517.040735127148	11
0	2696	517.464586949564	12
0	2697	517.527726297588	11
0	2702	517.575676422612	10
0	2710	522.559492455389	11
0	2712	522.755638889908	12
0	2714	522.775701675508	13
0	2719	524.076657669845	12
0	2725	524.186046528084	13
0	2726	524.271302686	12
0	2730	524.37324599353	13
0	2732	524.74434939546	14
0	2735	525.835962067798	13
0	2739	527.018985886372	14
0	2742	528.096487794863	13
0	2747	528.245297884063	12
0	2757	531.23480440421	13
0	2758	531.340635125935	12
0	2763	531.466062459722	11
0	2768	532.045654951571	10
0	2773	532.905642825028	9
0	2782	535.82122780339	8
0	2786	536.250940824129	9
0	2788	536.324779789702	10
0	2791	536.963806474954	9
0	2797	537.358467744313	10
0	2802	538.417727589191	9
0	2806	538.750728647447	10
0	2808	538.903346720924	11
0	2812	540.153080572498	12
0	2814	540.69553246712	11
0	2821	541.146059896573	10
0	2827	542.156529099153	9
0	2834	542.552757171044	10
0	2836	542.686873848353	11
0	2838	543.370623286095	10
0	2844	543.495310045251	11
0	2845	543.591797431265	10
0	2850	543.882834836914	9
0	2855	545.617604798549	8
0	2863	546.739422188225	7
0	2869	546.819140601603	8
0	2871	547.212249430659	7
0	2878	547.606608077341	6
0	2884	548.592255000118	7
0	2886	548.661083341676	8
0	2887	548.874285575295	7
0	2893	548.890913752618	8
0	2895	548.89643499652	9
0	2897	548.995650049088	10
0	2898	549.691350217962	9
0	2902	551.07295514157	10
0	2906	552.367218198462	11
0	2908	552.588849757153	10
0	2914	552.663811151418	11
0	2919	553.949221370246	12
0	2924	554.472992599402	13
0	2925	554.475690407794	12
0	2931	554.501748719288	13
0	2932	555.364880872913	12
0	2938	555.723815109768	13
0	2939	556.217427074055	12
0	2947	557.261420068639	13
0	2949	557.317064237922	14
0	2953	558.608545922268	15
0	2954	559.16491378866	14
0	2961	560.012310446911	15
0	2962	561.112740397904	14
0	2970	561.70672474043	13
0	2975	562.978056581253	12
0	2980	563.778486018271	11
0	2986	565.340364619459	10
0	2992	567.524643532906	11
0	2993	567.974723477872	10
0	3001	569.7028837686	11
0	3007	570.597033784335	12
0	3009	571.167791962817	13
0	3010	571.261918122632	12
0	3016	572.977485503424	11
0	3021	573.066138322247	10
0	3026	574.874715255137	9
0	3030	575.272217701701	10
0	3037	576.761894925442	9
0	3042	577.514985123987	8
0	3053	581.64929380939	7
0	3059	581.917659242376	8
0	3062	582.983553342002	7
0	3066	583.98771264039	8
0	3069	585.27038579668	7
0	3077	587.407472131625	8
0	3078	587.753944875625	7
0	3085	589.224962357401	6
0	3089	589.278247133189	7
0	3093	590.397965196373	8
0	3097	591.206080804009	9
0	3099	591.464444704735	10
0	3100	591.897906699573	9
0	3109	592.971459182152	10
0	3111	593.455833233473	9
0	3119	594.487401660206	8
0	3125	595.354030479828	7
0	3131	595.651445586748	8
0	3133	595.742955533206	9
0	3135	596.236560958314	8
0	3141	598.349675255303	7
0	3146	598.965713919321	6
0	3151	599.311203309513	5
0	3155	599.715331740893	6
0	3161	600.656330392816	7
0	3164	602.077504513203	6
0	3168	602.6155299698	7
0	3170	603.017697134928	8
0	3172	603.759486677667	9
0	3177	604.291566819779	8
0	3182	605.389753741825	7
0	3187	606.214603244941	6
0	3191	606.892211764796	7
0	3196	607.497908651064	6
0	3200	607.873563726439	7
0	3202	608.096264402864	8
0	3206	608.652074585551	9
0	3207	608.777224605071	8
0	3213	610.417088663573	9
0	3216	611.954490519956	8
0	3222	612.306650974815	9
0	3223	612.965945118923	8
0	3227	613.369490741956	9
0	3230	613.696726880217	8
0	3235	614.694795312318	7
0	3240	615.361222774701	6
0	3248	616.432714212709	7
0	3252	617.288886487297	8
0	3253	617.307943390647	7
0	3257	617.745139762798	8
0	3259	617.874225476574	9
0	3265	619.5993376066	10
0	3267	619.843929088833	11
0	3269	619.982196901208	12
0	3274	622.25138396651	11
0	3279	622.378849744026	10
0	3283	622.429995601392	11
0	3285	622.481284752749	12
0	3287	622.865338509924	13
0	3289	622.878296599625	14
0	3291	623.593627144537	15
0	3296	625.952363066901	14
0	3307	627.125467025287	15
0	3309	627.657539551584	16
0	3310	627.710649247428	15
0	3316	628.497419680677	14
0	3324	628.945711154003	13
0	3330	629.626050761917	14
0	3331	630.075444125512	13
0	3335	630.28784554311	14
0	3342	631.633257909877	13
0	3347	632.774264132483	12
0	3362	636.444232127592	11
0	3367	636.976803497204	10
0	3372	637.854954579565	9
0	3376	638.664971090431	10
0	3382	640.984923529811	9
0	3388	640.987617142776	10
0	3389	641.224690237336	9
0	3395	642.18471079465	10
0	3399	643.9551191226	9
0	3405	644.454839076203	10
0	3406	644.902986682044	9
0	3411	645.54179628605	8
0	3419	647.521892746667	9
0	3420	648.228494030438	8
0	3426	648.632102403273	9
0	3431	649.201667000866	10
0	3433	649.741660765223	11
0	3434	650.603583944575	10
0	3439	650.805324742735	9
0	3443	651.528627676772	10
0	3446	651.922721286172	9
0	3452	653.886520085692	10
0	3454	655.456242996047	11
0	3457	655.501205122802	10
0	3462	656.844231694663	9
0	3469	658.450392015285	8
0	3475	658.500879977702	9
0	3476	659.004988716687	8
0	3482	661.385650413351	9
0	3483	662.2184183868	8
0	3488	662.423296562101	7
0	3492	662.450657711408	8
0	3499	665.168653519448	9
0	3503	665.871778980204	10
0	3504	666.01359064363	9
0	3510	666.527099446718	8
0	3516	667.240695095517	7
0	3522	667.525407783611	8
0	3523	667.729301408079	7
0	3527	667.864002855385	8
0	3530	668.309593344923	7
0	3536	669.06208029041	8
0	3537	669.657319135984	7
0	3548	671.804987408349	6
0	3556	673.054682108718	7
0	3558	673.277205631208	8
0	3560	673.872425877912	7
0	3565	674.163603395583	6
0	3571	674.508231232895	7
0	3572	674.752111216552	6
0	3576	675.477901518152	7
0	3583	677.567565015734	6
0	3590	678.938571072968	5
0	3599	679.861750678474	6
0	3601	680.061078369842	7
0	3603	680.315670423354	8
0	3606	680.456263301481	7
0	3611	681.64480225939	6
0	3616	682.213736140078	5
0	3620	682.67225494199	6
0	3623	683.792576320978	5
0	3628	684.120325487786	4
0	3634	684.424312680801	5
0	3638	688.138204820861	6
0	3642	688.690013588971	7
0	3644	688.953480644139	6
0	3649	689.65051014755	5
0	3653	689.923533789972	6
0	3656	690.083482743352	5
0	3660	690.855211127966	6
0	3665	692.48476418254	5
0	3669	692.779997165465	6
0	3672	693.56250270352	5
0	3679	694.875896538524	4
0	3683	695.576548361141	5
0	3685	695.812752660905	6
0	3687	696.084137481569	7
0	3689	696.300499547938	8
0	3691	696.83316433834	9
0	3693	697.125175679124	10
0	3697	699.754420843349	9
0	3702	701.608858625963	8
0	3706	701.642564438155	9
0	3709	702.781513288679	8
0	3715	704.652779898635	7
0	3721	705.185942962855	6
0	3726	705.186334580742	5
0	3733	706.284621791181	4
0	3738	707.003699719579	3
0	3742	707.330182759359	4
0	3746	708.288544638797	5
0	3748	709.38193955496	6
0	3750	709.641903467048	7
0	3752	710.188087706913	8
0	3753	711.32507162647	7
0	3758	712.675958934078	6
0	3765	714.048410146987	7
0	3768	714.690704555821	6
0	3773	714.902486938152	5
0	3777	715.667254624243	6
0	3779	715.930390179162	7
0	3783	717.10273464768	8
0	3785	718.409625572236	9
0	3786	718.650060525005	8
0	3793	720.046185295278	7
0	3797	721.476440825261	8
0	3799	721.91486710279	9
0	3807	728.374875874417	8
0	3813	729.040361475871	7
0	3819	729.305560006846	6
0	3826	729.480174323626	7
0	3828	729.656129695657	8
0	3830	729.827846701742	7
0	3836	729.903441445438	8
0	3838	730.242379020826	9
0	3840	730.959449539122	8
0	3845	731.701885759083	7
0	3850	731.750307438443	6
0	3855	732.514137166865	5
0	3859	732.968691761261	6
0	3861	733.588903682004	7
0	3865	735.161529052213	8
0	3866	735.324696796198	7
0	3874	736.0991689835	8
0	3875	737.451209228193	7
0	3881	738.40151490906	8
0	3882	739.31740345595	7
0	3888	740.778577220552	6
0	3894	740.891511522722	5
0	3900	741.097084527896	4
0	3906	741.368878169818	5
0	3907	741.427376971229	4
0	3913	742.19983812626	3
0	3918	742.334610177028	2
0	3922	742.412782464641	3
0	3925	744.524155064458	2
0	3930	744.906442534411	1
0	3936	746.05343352591	2
0	3937	746.898477803356	1
0	3942	747.44473230436	0
0	3948	749.618255478266	1
0	3950	749.664868259443	2
0	3951	749.934142967823	1
0	3956	750.931074050414	0
0	3979	756.863807896351	1
0	3981	757.280110648192	0
0	4009	759.213259378703	1
0	4012	759.392420267181	0
0	4019	759.769712624844	1
0	4021	759.87731648331	2
0	4023	759.909384774871	3
0	4024	760.006382782023	2
0	4029	760.0227385412	1
0	4033	760.159112916604	2
0	4040	761.780554704496	1
0	4047	764.16935042334	0
0	4056	764.369317833539	1
0	4060	765.960071256637	2
0	4064	766.077151831971	3
0	4067	766.902138428262	4
0	4070	768.44290282354	3
0	4076	769.001613325435	2
0	4082	772.598656350638	1
0	4088	772.811944192511	2
0	4090	773.07474253923	1
0	4096	773.32961563445	0
0	4110	774.941087212887	1
0	4111	775.928171170648	0
0	4129	778.029729437004	1
0	4132	779.808670341247	2
0	4136	780.256074197631	3
0	4138	780.344046048113	4
0	4140	783.184141967911	5
0	4141	783.717572536609	4
0	4147	784.18758630169	3
0	4153	784.227644417498	4
0	4154	784.343973373736	3
0	4162	784.639705128181	4
0	4164	785.733601579015	5
0	4166	786.586889886846	6
0	4167	787.113034856989	5
0	4173	787.284296435356	4
0	4178	788.371143822374	3
0	4183	788.434455869873	2
0	4193	791.874888107171	3
0	4194	792.196913919872	2
0	4198	792.82019051034	3
0	4201	794.015706617105	2
0	4207	795.390752440234	3
0	4210	796.972769488833	2
0	4214	797.014216526929	3
0	4217	797.491687711298	2
0	4222	798.290375770363	1
0	4229	799.117752512138	0
0	4235	801.728513053947	1
0	4237	801.967635040385	2
0	4239	802.729907527511	3
0	4242	804.095941097409	2
0	4249	805.95244476779	1
0	4254	806.195805039954	0
0	4258	806.474486025348	1
0	4260	807.293025444755	2
0	4264	808.514403029836	3
0	4267	808.750327050002	2
0	4272	811.659050335307	1
0	4279	812.435852077068	2
0	4280	812.44700684053	1
0	4285	812.672766964751	0
0	4295	815.019378048769	1
0	4298	815.725630294275	0
0	4326	820.352656077379	1
0	4327	821.045271270011	0
0	4331	821.346005998682	1
0	4333	821.374473581679	2
0	4336	822.379403079634	1
0	4340	822.580654193244	2
0	4347	823.867462229728	3
0	4350	824.908083209615	4
0	4351	824.952613973552	3
0	4357	825.184922309352	4
0	4358	825.953059120227	3
0	4362	826.290868863096	4
0	4368	826.930261739732	5
0	4369	827.747359344207	4
0	4373	828.197953084599	5
0	4378	830.232209269602	4
0	4383	830.599405645444	3
0	4388	831.205888576322	2
0	4392	831.777336927677	3
0	4395	832.10835663085	2
0	4402	832.560325467436	1
0	4407	835.333380220385	0
0	4423	835.954262886227	1
0	4427	836.665096840125	2
0	4431	838.34796940779	1
0	4436	838.875289921018	0
0	4461	841.970071132996	1
0	4464	843.114756528527	0
0	4481	844.26148027132	1
0	4483	844.752827875916	0
0	4493	846.166470450631	1
0	4495	846.789797760667	0
0	4511	847.398985306111	1
0	4512	847.917025938616	0
0	4524	850.423939260872	1
0	4527	851.132369425035	2
0	4529	851.163002220022	3
0	4530	852.632676116692	2
0	4537	852.68363749927	3
0	4539	853.716590033798	4
0	4540	853.936953079041	3
0	4546	854.092564994043	2
0	4552	854.959159632295	1
0	4557	855.040590175036	0
0	4571	857.168572700473	1
0	4574	859.123959099399	0
0	4597	866.170602613355	1
0	4598	866.45798094023	0
0	4606	867.144234192045	1
0	4607	867.16719850407	0
0	4623	869.140351125218	1
0	4628	871.327947803852	2
0	4629	871.99635441434	1
0	4635	872.03867204307	0
0	4639	872.423997816464	1
0	4646	873.410325150483	0
0	4661	874.788691544286	1
0	4666	875.939238840183	0
0	4687	878.938217395338	1
0	4690	879.726833138125	2
0	4692	879.930752346142	1
0	4701	883.534089170316	2
0	4702	884.088682244946	1
0	4707	884.980707259361	0
0	4714	885.619628553266	1
0	4716	885.803510910044	2
0	4718	886.745054359524	3
0	4720	887.483935555571	2
0	4725	887.736588529534	1
0	4731	888.463240338067	0
0	4737	888.466465663983	1
0	4739	888.869751548877	0
0	4762	892.305812823458	1
0	4765	893.201016034267	0
0	4774	893.661609683052	1
0	4778	894.701737539705	2
0	4779	895.433957297477	1
0	4784	895.594952615778	0
0	4797	898.753398317596	1
0	4798	900.685823942293	0
0	4805	901.428409511143	1
0	4807	901.498243353547	2
0	4808	901.520895645942	1
0	4813	901.559189453581	0
0	4821	901.698845218832	1
0	4823	901.912240928792	0
0	4845	904.536594687299	1
0	4848	905.543562835089	0
0	4867	909.244481602058	1
0	4873	910.41940188893	2
0	4875	910.532565482725	3
0	4876	911.047798716098	2
0	4881	911.202243493669	1
0	4887	911.41310428191	2
0	4890	911.956848545409	1
0	4897	914.849848023375	0
0	4911	915.368052596556	1
0	4912	916.157432580983	0
0	4931	918.013135668036	1
0	4933	918.016983635998	2
0	4935	918.207746418153	3
0	4936	918.613219014386	2
0	4941	919.899078292236	1
0	4945	920.271131062162	2
0	4947	920.497878825933	3
0	4949	920.767692380405	4
0	4956	924.479362729099	3
0	4962	924.89637577925	4
0	4963	925.404726630898	3
0	4968	925.774353087586	2
0	4975	927.026925630846	1
0	4979	927.937915605805	2
0	4984	929.206662493324	3
0	4985	929.496316547591	2
0	4990	929.598353986135	1
0	4994	929.603853359306	2
0	4996	929.795280596623	3
0	5000	931.587286853723	4
0	5001	931.84313001507	3
0	5006	932.467231309132	2
0	5012	934.177051560991	3
0	5015	934.981847723566	2
0	5020	935.737874800436	1
0	5026	936.046546917107	2
0	5027	936.51031109446	1
0	5032	937.413010634535	0
0	5036	937.60638162635	1
0	5039	938.084426630991	0
0	5043	939.330894959535	1
0	5046	939.494224818042	0
0	5065	942.6976410813	1
0	5066	943.883921249692	0
0	5077	945.692496049232	1
0	5082	948.946605502805	0
0	5123	956.164261797058	1
0	5125	957.540949144759	2
0	5126	957.58589834656	1
0	5131	957.850997689729	0
0	5149	960.290557076229	1
0	5152	960.682143250809	2
0	5155	962.403280500969	1
0	5163	963.051542504557	2
0	5170	965.106791630336	1
0	5176	965.202190629621	2
0	5179	966.276971033019	3
0	5182	966.929372056968	2
0	5188	966.963548196549	3
0	5191	967.129401305975	2
0	5197	967.473057622705	3
0	5202	968.333950064007	4
0	5205	969.33612648968	5
0	5206	969.473529251225	4
0	5211	969.698020203228	3
0	5217	969.808350272459	4
0	5218	970.357314736867	3
0	5223	970.394366773904	2
0	5230	972.633762267927	1
0	5234	972.772678459942	2
0	5239	974.076796756733	1
0	5243	975.638837800111	2
0	5245	975.748336942465	3
0	5250	976.871313442603	4
0	5251	976.893461497739	3
0	5256	977.050050553732	2
0	5261	977.762730493922	1
0	5269	981.171682530994	2
0	5270	981.654163438513	1
0	5275	983.643025347601	0
0	5279	983.718187047236	1
0	5283	986.318479466712	2
0	5289	989.443855369101	3
0	5290	989.730340601342	2
0	5297	990.565559499873	1
0	5303	991.077259315657	2
0	5304	991.118690523514	1
0	5310	992.551572359678	0
0	5318	992.770078722162	1
0	5320	993.079388116085	2
0	5322	993.404331711351	3
0	5324	993.412672836368	4
0	5325	993.6198511503	3
0	5329	994.870132105652	4
0	5332	995.38286276483	3
0	5338	999.099008558916	4
0	5341	1000.219901051881	3
0	5348	1003.328888904195	2
0	5354	1003.506134636427	3
0	5356	1003.829154604492	4
0	5358	1005.235983159005	5
0	5359	1005.446216229127	4
0	5365	1006.823820856587	5
0	5366	1006.973396963277	4
0	5370	1008.432946390215	5
0	5372	1008.48423794947	6
0	5380	1011.308125601351	7
0	5383	1011.373987323314	6
0	5393	1013.483303865137	7
0	5394	1014.553641752421	6
0	5399	1015.264265769558	5
0	5408	1017.722353694096	4
0	5413	1018.264882156891	3
0	5418	1020.631177061737	2
0	5422	1020.775315919649	3
0	5424	1021.125412490266	4
0	5428	1022.150873521728	3
0	5434	1022.184119640272	4
0	5435	1022.229772420247	3
0	5441	1023.1106075097	4
0	5442	1023.149587620258	3
0	5448	1024.882210432964	4
0	5450	1025.053955960902	3
0	5457	1025.816699893831	2
0	5461	1026.633018404383	3
0	5466	1027.287665603089	2
0	5470	1027.304254577303	3
0	5472	1027.916578618243	4
0	5479	1029.407980141803	5
0	5480	1029.648095783579	4
0	5486	1030.897404595792	5
0	5487	1031.166067878538	4
0	5494	1032.322296531003	5
0	5498	1033.004637308608	4
0	5506	1033.766631530133	3
0	5511	1033.841347117573	2
0	5517	1034.319337195392	3
0	5519	1034.334392953749	4
0	5522	1035.406212297944	5
0	5524	1036.26239387213	6
0	5527	1037.678153892976	5
0	5532	1037.706633872866	4
0	5538	1038.125884737959	5
0	5541	1038.439963432314	4
0	5546	1039.39863452883	3
0	5550	1039.769813586578	4
0	5553	1041.337990868003	3
0	5557	1043.013678165937	4
0	5560	1043.406073698914	3
0	5564	1043.741737562135	4
0	5566	1045.191663812673	5
0	5568	1045.542108056059	6
0	5571	1046.013967982221	5
0	5575	1046.787599202396	6
0	5577	1047.457488019373	7
0	5579	1047.942594668864	8
0	5584	1048.636964560707	7
0	5590	1050.197681176959	8
0	5593	1051.113871030373	7
0	5599	1051.776424575818	8
0	5600	1052.199385040484	7
0	5607	1054.654211941094	6
0	5614	1056.565818946581	5
0	5622	1057.776003302195	4
0	5627	1058.068849962126	3
0	5634	1059.490769353001	2
0	5638	1060.075967847792	3
0	5643	1061.583887810019	2
0	5648	1063.022713525717	1
0	5652	1063.217175419418	2
0	5656	1066.395869843027	1
0	5662	1067.576815822213	2
0	5663	1069.347259488233	1
0	5667	1069.744956872997	2
0	5669	1070.343932336291	3
0	5671	1070.679000487845	4
0	5674	1071.329547700802	3
0	5678	1072.159449914852	4
0	5682	1072.573995070768	3
0	5688	1073.019019561985	4
0	5689	1073.821529046817	3
0	5699	1076.148670250245	2
0	5705	1076.285118390045	3
0	5708	1078.274884634361	2
0	5712	1078.297362766466	3
0	5719	1081.347314375029	2
0	5723	1081.578209664402	3
0	5729	1082.574847564363	4
0	5730	1082.820733380024	3
0	5736	1084.50833239061	4
0	5741	1086.588201245219	3
0	5746	1086.774601305813	2
0	5751	1087.270607280604	1
0	5759	1088.984117238974	2
0	5762	1089.582832057556	1
0	5768	1090.843949257318	2
0	5771	1091.654322044735	1
0	5777	1091.751724986439	2
0	5780	1091.997044970164	1
0	5787	1093.237060886624	0
0	5809	1095.990317700523	1
0	5812	1097.155291788598	0
0	5824	1098.246929399075	1
0	5830	1101.085619094473	0
0	5836	1101.143606396314	1
0	5837	1101.568179974498	0
0	5843	1102.174724858618	1
0	5848	1104.283206034667	0
0	5852	1104.305473598197	1
0	5855	1105.96047051933	0
0	5861	1108.165632054986	1
0	5863	1108.592622994954	2
0	5865	1109.656243716839	3
0	5867	1109.861906172894	4
0	5869	1110.113998085363	5
0	5871	1110.140321489393	6
0	5873	1110.410222562973	7
0	5877	1110.785558359362	8
0	5880	1113.237007454792	7
0	5884	1113.653219499493	8
0	5889	1114.801328018035	7
0	5894	1114.964859721537	6
0	5900	1115.512168692246	7
0	5902	1116.269619980602	6
0	5908	1116.28585095878	7
0	5911	1116.804721613524	6
0	5917	1118.190831743465	7
0	5919	1118.624418963518	6
0	5924	1118.752302090925	5
0	5928	1118.889263607889	6
0	5930	1119.563958618371	7
0	5933	1119.713338242276	6
0	5938	1120.911874963223	5
0	5942	1120.939251028314	6
0	5944	1121.168552403509	7
0	5947	1122.353225288031	6
0	5953	1122.996824748762	5
0	5962	1123.353800437351	4
0	5966	1124.16476914932	5
0	5968	1124.412457467323	6
0	5971	1126.380140009077	5
0	5978	1127.874732703603	4
0	5983	1129.070901213079	3
0	5992	1131.949308984066	2
0	5997	1132.677208859191	1
0	6001	1132.928418638078	2
0	6005	1133.812086181406	3
0	6007	1134.040459800984	4
0	6008	1134.061088434906	3
0	6014	1134.946136017169	4
0	6019	1135.674965092053	3
0	6024	1136.361026431266	2
0	6028	1136.693890139764	3
0	6030	1138.45207103863	4
0	6033	1139.466497491606	3
0	6041	1141.056968146079	4
0	6045	1141.491665881397	5
0	6046	1141.512378838783	4
0	6052	1141.765675786567	3
0	6058	1141.809442844608	4
0	6059	1142.203546516882	3
0	6064	1142.898450481313	2
0	6069	1145.413322590036	1
0	6076	1146.838112938606	0
0	6097	1151.963606620297	1
0	6099	1153.541643484846	2
0	6103	1153.771671301361	3
0	6105	1154.795750433599	4
0	6107	1155.061591061334	3
0	6112	1155.215981646087	2
0	6119	1157.164614453995	1
0	6124	1157.646415775054	0
0	6132	1159.394816252709	1
0	6135	1159.89933428388	0
0	6146	1160.785920514311	1
0	6149	1161.090749555232	2
0	6151	1161.919100766111	1
0	6156	1162.205566096471	0
0	6180	1165.961302457976	1
0	6183	1167.040810739054	0
0	6191	1167.527917477009	1
0	6192	1167.769029726592	0
0	6198	1168.251241928207	1
0	6201	1168.475725924366	0
0	6205	1168.776291855051	1
0	6207	1168.799714966344	2
0	6209	1169.559136057677	3
0	6211	1170.037587353392	4
0	6214	1171.542612741198	3
0	6218	1172.851643465683	4
0	6220	1174.707187179466	5
0	6222	1174.987792035949	6
0	6225	1176.169468525569	5
0	6229	1176.354628280093	6
0	6231	1176.648579915235	7
0	6233	1177.125054129565	8
0	6241	1178.545090243208	9
0	6243	1179.504483671394	8
0	6250	1179.928843188072	7
0	6254	1180.594379954838	8
0	6258	1182.681157073917	7
0	6263	1182.844857214743	6
0	6267	1183.171023813803	7
0	6270	1184.808235097031	6
0	6277	1185.116702595519	7
0	6279	1186.204665642601	6
0	6284	1186.670631987691	5
0	6289	1186.69745555584	4
0	6297	1187.244746651299	5
0	6301	1188.185439705033	6
0	6302	1189.159622013888	5
0	6309	1190.295979450353	4
0	6313	1190.512020068798	5
0	6315	1192.214793268666	6
0	6317	1193.34004398495	7
0	6323	1194.623399935783	8
0	6325	1194.890722268204	9
0	6326	1195.219589156962	8
0	6331	1196.073708856834	7
0	6336	1196.747247156322	6
0	6342	1199.873519641251	7
0	6346	1200.532965661199	6
0	6351	1201.866969780621	5
0	6357	1203.973019070213	6
0	6360	1204.878573597961	5
0	6364	1205.232536179301	6
0	6367	1207.331105692067	5
0	6372	1208.197931819545	4
0	6376	1209.393688789718	5
0	6385	1214.039006575012	4
0	6390	1214.078375287774	3
0	6396	1214.549982484781	4
0	6401	1215.546083672683	3
0	6407	1215.608590899593	4
0	6408	1216.121895917079	3
0	6413	1216.273384426456	2
0	6417	1216.931589084382	3
0	6419	1218.441085343455	4
0	6421	1218.727404285107	5
0	6424	1220.081344405047	4
0	6430	1220.878177999901	3
0	6436	1221.602511982384	2
0	6442	1221.943119858046	3
0	6443	1222.063368532754	2
0	6448	1222.916321900504	1
0	6454	1223.169673396492	2
0	6455	1223.191818942553	1
0	6460	1224.169445175163	0
0	6466	1225.332101063081	1
0	6474	1226.024851559951	2
0	6476	1226.372738053657	3
0	6478	1227.759162791528	2
0	6484	1227.915427841162	3
0	6485	1228.703105185238	2
0	6491	1229.83819046218	3
0	6495	1230.044721513625	4
0	6499	1230.5531294118	5
0	6502	1232.913184008566	4
0	6509	1234.230496460847	3
0	6513	1234.41357014714	4
0	6520	1235.931673243944	3
0	6524	1236.063036547011	4
0	6526	1236.225705627858	5
0	6531	1236.732957159859	6
0	6533	1237.709915550062	5
0	6538	1239.006690376963	4
0	6545	1239.618202036097	5
0	6546	1239.830050606586	4
0	6554	1240.946918268539	5
0	6558	1242.177211428791	6
0	6559	1242.752877074711	5
0	6564	1244.143172849743	4
0	6569	1244.173405622735	3
0	6578	1245.704094121772	4
0	6579	1245.759926439525	3
0	6585	1246.014925498311	4
0	6592	1247.29295674087	3
0	6598	1248.121566775676	4
0	6599	1248.470035565094	3
0	6604	1248.769680813756	2
0	6608	1249.915545012211	3
0	6612	1250.134405302377	4
0	6614	1250.716424873127	5
0	6618	1252.194849949993	4
0	6623	1252.421670212571	3
0	6628	1254.152886445237	2
0	6634	1257.191880205573	1
0	6639	1257.201980304363	0
0	6658	1261.404304188844	1
0	6660	1262.629529768241	0
0	6679	1268.07212604525	1
0	6681	1268.840121232993	2
0	6683	1271.084689652182	3
0	6690	1272.170383596764	2
0	6696	1273.074787070564	3
0	6699	1273.740063640942	2
0	6708	1274.569895975155	3
0	6709	1274.739477438357	2
0	6714	1275.190093891929	1
0	6719	1275.67441464535	0
0	6723	1275.814569153937	1
0	6729	1277.761508994402	0
0	6751	1280.551096719922	1
0	6758	1282.13765144667	0
0	6765	1282.77269259888	1
0	6766	1283.544825929859	0
0	6779	1283.840982230399	1
0	6781	1283.868789195584	2
0	6782	1283.913201482483	1
0	6787	1284.209433063415	0
0	6802	1288.015338567881	1
0	6806	1288.144852128913	0
0	6827	1289.5391307635	1
0	6830	1290.123265044545	2
0	6831	1291.001119758071	1
0	6836	1292.417992441544	0
0	6840	1292.512858917503	1
0	6844	1294.103201737379	0
0	6858	1296.393107841395	1
0	6861	1296.759534518427	2
0	6863	1298.383486224931	1
0	6868	1298.559569695343	0
0	6890	1302.131949947044	1
0	6891	1303.091223859643	0
0	6928	1309.460720384874	1
0	6929	1309.987217885292	0
0	6942	1310.952585898182	1
0	6944	1312.030261562288	2
0	6946	1312.318827261192	3
0	6948	1312.416673612903	4
0	6950	1312.729306611926	3
0	6956	1314.916801994207	2
0	6963	1315.424999712419	3
0	6965	1315.615342820822	4
0	6968	1316.300988627209	5
0	6970	1316.426926851815	6
0	6972	1316.429260523449	7
0	6974	1317.855754116953	8
0	6975	1318.024701457225	7
0	6982	1318.584000864201	6
0	6987	1318.904270700512	5
0	6993	1320.729440659777	6
0	6997	1322.079633680435	5
0	7002	1322.373985901895	4
0	7006	1322.651132395597	5
0	7008	1322.922414808842	6
0	7010	1322.953949505489	7
0	7012	1325.309872346297	8
0	7015	1325.671959080895	7
0	7020	1326.360862237115	6
0	7026	1329.345861448232	7
0	7027	1329.589047775473	6
0	7034	1330.362295177735	7
0	7036	1334.420545915378	6
0	7041	1335.001961519272	5
0	7045	1335.377814861022	6
0	7047	1336.386587595627	7
0	7050	1337.627042534393	6
0	7058	1338.280200987123	7
0	7059	1338.506425044272	6
0	7065	1338.860078502574	7
0	7066	1338.903817206828	6
0	7071	1339.852402478568	5
0	7076	1339.931359105269	4
0	7080	1340.109417659416	5
0	7084	1341.62878490504	6
0	7085	1341.822022702129	5
0	7090	1342.127021038695	4
0	7094	1344.415821325144	5
0	7096	1344.944936636781	6
0	7100	1346.642007986332	7
0	7103	1347.12478084998	6
0	7107	1347.179215132958	7
0	7109	1347.771975388442	8
0	7113	1349.458236572333	9
0	7115	1349.614922549817	10
0	7118	1350.292813006589	9
0	7128	1351.396513916796	10
0	7130	1352.697957556224	11
0	7131	1352.723687251858	10
0	7137	1353.015936719381	9
0	7145	1353.386265031509	8
0	7151	1354.009163656856	7
0	7158	1355.260858438076	6
0	7163	1355.340273633116	5
0	7167	1355.558231370244	6
0	7171	1357.192883459128	7
0	7176	1358.023207976618	6
0	7184	1360.883888425608	5
0	7189	1361.519961449017	4
0	7196	1363.558816845716	3
0	7201	1364.009642026127	2
0	7207	1364.018254129115	3
0	7209	1364.054183906856	4
0	7210	1364.204326734077	3
0	7214	1364.364937658662	4
0	7221	1367.760759224843	3
0	7227	1370.017731570996	4
0	7229	1370.039252014412	5
0	7230	1370.484505246848	4
0	7234	1370.694110647281	5
0	7244	1372.715612729203	4
0	7249	1373.498082225196	3
0	7253	1375.290647894588	4
0	7257	1375.734542056499	5
0	7258	1375.995812109001	4
0	7263	1376.870481989133	3
0	7267	1377.272211816735	4
0	7269	1377.738562356407	5
0	7272	1379.057590588114	4
0	7280	1380.293747195818	5
0	7281	1380.811249363129	4
0	7285	1380.946821208972	5
0	7287	1381.096759967483	6
0	7289	1381.39760581723	7
0	7292	1381.882282802562	6
0	7299	1382.917354466154	5
0	7307	1383.51666949013	6
0	7309	1384.285133023221	5
0	7315	1384.591901195331	4
0	7324	1385.766615599982	3
0	7330	1386.157448694298	2
0	7335	1386.344932027197	1
0	7341	1386.54468683487	2
0	7344	1386.940720986151	3
0	7345	1387.031429398326	2
0	7351	1387.240431011761	3
0	7352	1387.501605086599	2
0	7358	1388.373550389582	3
0	7360	1389.125507195312	4
0	7366	1390.530473823115	3
0	7372	1391.672187017494	2
0	7377	1391.696521980856	1
0	7381	1392.432223332145	2
0	7383	1392.577869429786	3
0	7387	1394.099419330169	2
0	7392	1394.255774879922	1
0	7399	1397.208016823445	0
0	7403	1398.369748267689	1
0	7406	1399.223667183951	0
0	7412	1400.33246581757	1
0	7414	1400.720687337483	2
0	7415	1400.883195303953	1
0	7419	1400.954818998872	2
0	7423	1401.331767899836	3
0	7426	1402.781823348277	2
0	7431	1403.060576657907	1
0	7435	1403.077496481489	2
0	7438	1403.234904433697	1
0	7443	1403.886576369852	0
0	7456	1408.551890968587	1
0	7457	1408.931304828903	0
0	7468	1410.223014298111	1
0	7470	1410.789917068687	0
0	7490	1413.969032591666	1
0	7491	1414.688120742401	0
0	7498	1416.142663222154	1
0	7499	1416.654808819747	0
0	7524	1421.801142260687	1
0	7528	1423.336499264807	2
0	7529	1423.46178977003	1
0	7534	1423.646164447476	0
0	7546	1425.544496701151	1
0	7547	1425.573421403751	0
0	7553	1425.828755790111	1
0	7554	1426.221646475286	0
0	7570	1428.240483293239	1
0	7571	1428.614386079486	0
0	7591	1430.329257646333	1
0	7592	1430.677731837205	0
0	7617	1435.319789196306	1
0	7619	1437.89830528164	2
0	7620	1438.079680080502	1
0	7625	1438.261126719628	0
0	7650	1441.269736154634	1
0	7652	1442.560848544863	0
0	7663	1444.158074808283	1
0	7664	1444.557331201221	0
0	7670	1444.792510207214	1
0	7671	1444.804439246614	0
0	7719	1453.081299448843	1
0	7721	1454.557053236927	2
0	7723	1454.571939591429	3
0	7726	1455.590142493982	2
0	7731	1456.061262065845	1
0	7737	1456.258892297698	2
0	7741	1456.695009631702	3
0	7744	1458.276703462961	4
0	7745	1458.630672928267	3
0	7751	1459.270486571044	2
0	7758	1459.696804367165	1
0	7770	1461.90366981784	0
0	7778	1462.986360445671	1
0	7779	1463.365884331714	0
0	7791	1464.677892537165	1
0	7793	1465.240185559657	0
0	7822	1467.945117338275	1
0	7826	1469.61573571219	0
0	7844	1472.968873736901	1
0	7845	1473.153338175052	0
0	7864	1476.045148280911	1
0	7866	1476.738971660253	0
0	7880	1480.190467069424	1
0	7884	1480.98561958993	2
0	7887	1481.925577602925	3
0	7889	1482.153441638852	4
0	7890	1483.08558352117	3
0	7897	1483.190169035562	4
0	7900	1483.940344145104	5
0	7901	1484.10625677135	4
0	7909	1484.87182484583	3
0	7914	1485.876998104006	2
0	7920	1486.394141021807	1
0	7925	1486.72090167953	0
0	7929	1486.901400166576	1
0	7933	1488.358296323234	0
0	7956	1490.654998549583	1
0	7958	1491.424860699041	2
0	7961	1491.527944001651	1
0	7968	1493.293369518817	2
0	7969	1493.5337923451	1
0	7979	1495.886814190606	2
0	7980	1496.436540781392	1
0	7986	1496.870370807472	0
0	8013	1500.624794636743	1
0	8015	1500.868738617515	2
0	8018	1501.712487735826	1
0	8027	1504.613611688199	0
0	8059	1508.946259557139	1
0	8061	1509.021853130773	2
0	8063	1509.221327700665	1
0	8068	1509.544551338589	0
0	8113	1515.977230823793	1
0	8115	1516.398144475377	2
0	8119	1518.339262323855	1
0	8124	1518.65900582519	0
0	8136	1520.190705622694	1
0	8137	1520.317390954708	0
0	8153	1522.453029869911	1
0	8155	1523.194406583578	0
0	8195	1530.576151710943	1
0	8199	1531.935168555863	2
0	8204	1534.709840468258	1
0	8209	1535.036618661143	0
0	8221	1535.873816356572	1
0	8222	1536.289880078039	0
0	8254	1541.966045807979	1
0	8255	1543.852175371528	0
0	8280	1547.827919711756	1
0	8283	1548.950873353904	0
0	8289	1549.1088162451	1
0	8292	1550.018120260083	0
0	8310	1551.153323957261	1
0	8315	1551.746236561154	2
0	8316	1552.199622131759	1
0	8323	1553.514835786482	2
0	8324	1553.794571992907	1
0	8331	1554.622710130661	0
0	8352	1558.38076306644	1
0	8354	1558.730583691464	2
0	8357	1559.209797897677	1
0	8363	1560.930253603179	0
0	8386	1564.30264474893	1
0	8391	1566.845938969049	0
0	8400	1567.249126797851	1
0	8405	1568.124155500657	2
0	8406	1568.132316329854	1
0	8412	1569.305817886815	0
0	8428	1570.76719618407	1
0	8430	1572.713697070664	2
0	8433	1573.613998822732	1
0	8439	1574.114383985757	0
0	8445	1574.475281041219	1
0	8446	1574.484291476125	0
0	8450	1575.066336823181	1
0	8452	1575.146845082331	2
0	8456	1576.335805605408	3
0	8457	1576.855626755143	2
0	8465	1578.910145863153	1
0	8471	1580.057483320221	2
0	8473	1580.27567268578	1
0	8479	1581.154789845656	2
0	8480	1581.308289772299	1
0	8484	1581.913020959927	2
0	8490	1582.502967223931	3
0	8493	1583.357834130935	2
0	8497	1583.482541145794	3
0	8500	1584.039277921821	2
0	8504	1584.422427447767	3
0	8509	1584.63810063262	2
0	8515	1585.226432662351	3
0	8517	1585.413690856417	4
0	8519	1585.52321077927	5
0	8520	1585.725934660023	4
0	8526	1587.163430460784	3
0	8531	1587.219766565156	2
0	8538	1589.183745546993	1
0	8542	1590.138108431363	2
0	8544	1590.594700265982	3
0	8548	1590.743381661095	4
0	8550	1591.182091750196	3
0	8555	1591.87945955007	2
0	8561	1593.088712504871	1
0	8567	1593.755919625136	0
0	8588	1595.441835323061	1
0	8595	1598.467970976799	0
0	8604	1600.318580414232	1
0	8607	1600.499238847501	0
0	8613	1600.840377974068	1
0	8616	1601.32513190432	0
0	8636	1606.560237199605	1
0	8637	1606.6385777129	0
0	8651	1607.927787132181	1
0	8654	1609.568043953246	0
0	8671	1611.238424740572	1
0	8673	1611.434206299789	2
0	8679	1614.682304841379	3
0	8681	1615.003122780657	4
0	8683	1617.339649697759	3
0	8689	1618.170880283449	2
0	8694	1618.64731092316	1
0	8699	1618.696599693519	0
0	8703	1619.686031575781	1
0	8707	1621.331484443937	2
0	8708	1621.407166545099	1
0	8712	1621.732774462112	2
0	8714	1621.937089930857	3
0	8718	1623.100141488473	2
0	8724	1623.480143570528	1
0	8729	1623.533124685842	0
0	8733	1624.591909489932	1
0	8736	1625.037779588199	0
0	8740	1625.368752806476	1
0	8744	1626.882750678335	2
0	8749	1627.398430546495	1
0	8757	1628.575273311893	2
0	8758	1629.166668062551	1
0	8763	1629.971040923191	0
0	8769	1630.600948343515	1
0	8770	1630.629509377696	0
0	8774	1631.829468393466	1
0	8777	1632.526766473978	0
0	8792	1634.396208783232	1
0	8794	1634.784109313244	0
0	8814	1638.343000433072	1
0	8816	1638.447486743574	2
0	8824	1642.72126349644	3
0	8826	1642.976397779292	4
0	8830	1643.866861109176	5
0	8832	1644.071312170329	6
0	8834	1644.112904387849	7
0	8842	1647.681621803173	8
0	8844	1649.555746737064	7
0	8850	1650.831695932551	6
0	8856	1650.840008456835	7
0	8858	1651.031113578902	8
0	8860	1651.709078375075	7
0	8866	1652.986139602545	6
0	8872	1653.169621253909	5
0	8878	1653.504007816167	6
0	8880	1653.546864099834	7
0	8881	1653.777244297669	6
0	8887	1654.872789169519	7
0	8889	1656.427021626099	8
0	8891	1658.043624602934	9
0	8893	1658.357750791633	10
0	8896	1660.347053096803	9
0	8904	1660.857286574616	10
0	8909	1663.452429921147	9
0	8915	1664.220869663348	10
0	8916	1664.26596223899	9
0	8922	1664.652154068792	10
0	8923	1665.521781968727	9
0	8927	1665.585466584804	10
0	8931	1666.44546833331	11
0	8935	1667.38386535612	12
0	8936	1667.481597522193	11
0	8945	1671.853251209745	10
0	8950	1672.548349786452	9
0	8954	1672.805846120724	10
0	8956	1673.10793005833	11
0	8960	1673.533868270483	12
0	8962	1675.423261257468	13
0	8969	1676.949729503784	12
0	8974	1677.017748245082	11
0	8982	1677.083124658529	12
0	8984	1677.487929635488	13
0	8985	1677.936863833469	12
0	8990	1678.99798941777	11
0	8994	1679.723574919771	12
0	8997	1680.075786025723	11
0	9001	1680.329653489784	12
0	9003	1681.49355290767	13
0	9005	1682.50108256187	14
0	9009	1682.769031782643	15
0	9010	1683.13188413663	14
0	9014	1683.714797604064	15
0	9021	1684.170521192533	16
0	9023	1684.185609769828	17
0	9026	1684.302842796571	18
0	9027	1684.559230043262	17
0	9033	1685.042806888967	18
0	9034	1685.102206981969	17
0	9041	1685.505763282127	16
0	9046	1685.79377920147	15
0	9050	1686.344141496614	16
0	9056	1687.804986685436	17
0	9057	1688.172984687421	16
0	9062	1689.432084521416	15
0	9068	1689.944299180925	16
0	9069	1690.761901506733	15
0	9074	1691.348616280341	14
0	9079	1692.389602838311	13
0	9083	1694.25945479226	14
0	9087	1695.01616301856	15
0	9088	1695.070782813359	14
0	9092	1695.983025086917	15
0	9094	1697.317241308991	16
0	9097	1698.267780988656	15
0	9101	1698.305343258924	16
0	9106	1700.106936335933	15
0	9112	1700.224432255485	16
0	9113	1700.837648280641	15
0	9119	1702.354874439148	16
0	9121	1703.960309317864	17
0	9122	1704.061078594836	16
0	9128	1705.925958691873	17
0	9130	1706.331038720943	18
0	9131	1706.452401538697	17
0	9135	1706.469662727404	18
0	9137	1706.568294719897	19
0	9144	1709.256079927287	18
0	9150	1710.505498946616	19
0	9152	1710.652754042076	20
0	9155	1711.443096243811	19
0	9161	1712.257175973712	20
0	9163	1712.671045666352	19
0	9168	1713.085176823932	18
0	9173	1713.299892517892	17
0	9179	1713.694154202298	18
0	9180	1714.169244718912	17
0	9184	1714.357853222632	18
0	9187	1714.568106603182	17
0	9193	1715.138806701228	18
0	9198	1715.780584738098	17
0	9210	1718.368078992542	16
0	9215	1718.592325282069	15
0	9220	1719.669428847043	14
0	9224	1720.770643736952	15
0	9226	1721.920939401781	16
0	9229	1723.497322219237	15
0	9235	1724.664447694918	14
0	9242	1726.978382266389	13
0	9249	1727.662457745322	14
0	9252	1727.849974147609	13
0	9257	1728.85990409406	12
0	9263	1731.711856762316	11
0	9269	1732.246005649103	12
0	9270	1732.304577571757	11
0	9274	1733.761332243221	12
0	9277	1734.431430425129	11
0	9281	1734.635810482922	12
0	9289	1739.561136352877	13
0	9290	1739.628515469731	12
0	9296	1740.801352871447	13
0	9299	1741.263388447949	12
0	9304	1743.069612939047	11
0	9309	1744.295218533353	10
0	9313	1744.417929957458	11
0	9316	1745.0871772266	10
0	9321	1746.299973638064	9
0	9327	1747.111781343711	8
0	9333	1747.49267833723	9
0	9336	1747.848022560432	8
0	9342	1748.070149844129	7
0	9348	1749.018078209885	6
0	9353	1749.028819184219	5
0	9357	1751.365736518582	6
0	9359	1751.491910471417	7
0	9361	1752.044579304165	8
0	9363	1755.022407979939	9
0	9367	1756.96414241821	10
0	9368	1757.007691374327	9
0	9379	1758.688136273381	8
0	9383	1758.804664073576	9
0	9387	1759.155731795162	10
0	9391	1760.35433296305	9
0	9396	1760.568895980829	8
0	9400	1760.750618801975	9
0	9402	1761.284076089206	10
0	9404	1761.613154252835	11
0	9410	1763.273804115171	10
0	9415	1763.499671676571	9
0	9419	1763.709048022372	10
0	9421	1764.464914797057	11
0	9426	1765.408518671998	12
0	9429	1765.647609531145	13
0	9430	1766.040060309115	12
0	9435	1766.056680911291	11
0	9441	1766.531084367362	10
0	9448	1768.151897011237	9
0	9453	1768.693373659576	8
0	9459	1769.219083655423	9
0	9463	1771.137896584539	8
0	9469	1771.16521166359	9
0	9470	1771.5149838967	8
0	9474	1772.664553988203	9
0	9477	1773.341598206397	8
0	9481	1774.649530788274	9
0	9485	1775.182775124323	10
0	9486	1775.992571072169	9
0	9491	1777.889157488891	8
0	9499	1779.643938393458	9
0	9500	1780.583146066873	8
0	9506	1782.2975676571	9
0	9510	1782.816623467084	10
0	9512	1783.145363623009	11
0	9513	1784.335858895345	10
0	9519	1784.387381607761	11
0	9523	1784.660365081531	12
0	9525	1785.194511428276	11
0	9530	1785.415787238548	10
0	9536	1786.960419517129	11
0	9538	1787.578296762855	12
0	9539	1788.289666050067	11
0	9544	1789.143005366825	10
0	9549	1790.401975994481	9
0	9556	1792.060590512287	8
0	9560	1792.084838111224	9
0	9563	1793.200008742206	8
0	9569	1794.006296972231	9
0	9571	1794.358786319261	10
0	9573	1794.720872997337	11
0	9581	1796.999481853221	12
0	9584	1798.489218276857	11
0	9588	1798.814930455353	12
0	9591	1801.041377440784	11
0	9596	1801.676116402343	10
0	9600	1802.058021853258	11
0	9602	1803.379402560766	12
0	9604	1803.53004371854	13
0	9607	1805.130450427774	12
0	9612	1805.979911861057	11
0	9618	1807.353619850483	12
0	9619	1807.657848604605	11
0	9625	1809.21698144358	12
0	9626	1811.060257291036	11
0	9630	1811.385736493068	12
0	9632	1811.4359753809	13
0	9636	1812.326305468709	14
0	9640	1813.401393850002	15
0	9641	1813.640127129294	14
0	9649	1816.632453083169	15
0	9651	1817.826681284429	16
0	9654	1817.993839674657	15
0	9660	1818.551422563475	14
0	9665	1818.848721325857	13
0	9672	1819.955772430828	12
0	9679	1820.270920806896	13
0	9680	1820.336703616163	12
0	9685	1821.227362442362	11
0	9690	1821.481366360887	10
0	9695	1823.030286276867	9
0	9699	1823.696943822112	10
0	9705	1824.686595516005	11
0	9706	1825.1002437742	10
0	9711	1825.288119297026	9
0	9716	1826.07643728233	8
0	9721	1826.802591502341	7
0	9726	1827.799860309069	6
0	9731	1828.050916658891	5
0	9736	1828.530666067552	4
0	9740	1829.0101386529	5
0	9744	1829.291072845068	6
0	9745	1829.704331621715	5
0	9749	1830.242942426853	6
0	9752	1831.47971436342	5
0	9760	1834.132687572618	4
0	9765	1835.420896606812	3
0	9771	1836.910770761418	4
0	9773	1837.006052917506	5
0	9774	1837.071272403317	4
0	9778	1837.206166852601	5
0	9783	1838.703348702473	4
0	9789	1839.515769194232	3
0	9795	1839.525043574639	4
0	9796	1839.826356980478	3
0	9801	1840.141786584048	2
0	9805	1840.280059353071	3
0	9807	1842.239073609927	4
0	9811	1843.834032883134	5
0	9816	1844.655681453826	4
0	9821	1845.315116714358	3
0	9827	1845.541716538651	4
0	9828	1845.637125963809	3
0	9833	1846.221033806107	2
0	9838	1849.01105802512	1
0	9844	1849.180097325244	2
0	9846	1849.67831507357	3
0	9847	1849.714575861212	2
0	9853	1851.439416296114	1
0	9859	1852.106268126343	0
0	9884	1853.736278254526	1
0	9886	1854.34493050831	2
0	9887	1854.376132716935	1
0	9892	1855.045302666017	0
0	9962	1868.898301341203	1
0	9964	1870.09199865451	2
0	9968	1871.540474991567	1
0	9973	1871.569736228077	0
0	9984	1872.053749190981	1
0	9985	1872.377891823464	0
0	10012	1881.455664749573	1
0	10015	1881.619059036122	0
0	10026	1882.184635190195	1
0	10028	1883.334946211374	0
0	10032	1883.335782898946	1
0	10036	1885.490398400253	2
0	10038	1886.560672354193	3
0	10040	1886.889465233524	4
0	10047	1888.415882301279	3
0	10053	1890.060142378149	4
0	10055	1890.655540410501	5
0	10057	1891.302233452295	6
0	10059	1891.596933275916	7
0	10060	1892.849453915634	6
0	10065	1894.049715537376	5
0	10069	1894.289264364844	6
0	10072	1895.26192513273	5
0	10079	1896.105719662068	4
0	10083	1896.686143910851	5
0	10086	1897.848771988709	4
0	10093	1899.873649521828	5
0	10094	1900.580930373234	4
0	10099	1900.686709766421	3
0	10103	1901.178832663493	4
0	10105	1901.288948201157	5
0	10107	1901.683832499059	6
0	10110	1904.585946751882	5
0	10115	1906.472274328361	4
0	10119	1907.496178495769	5
0	10124	1910.338153886723	4
0	10130	1913.427351563715	5
0	10133	1914.316507424727	4
0	10138	1914.786857686305	3
0	10142	1914.816002136207	4
0	10146	1915.636855266519	5
0	10147	1915.681445000056	4
0	10151	1915.908376459887	5
0	10156	1918.174771705518	4
0	10160	1919.033621821746	5
0	10165	1920.820906482642	4
0	10175	1922.850195394661	3
0	10181	1923.178416467708	2
0	10187	1923.356279131881	3
0	10188	1923.571019525265	2
0	10196	1924.312686262997	3
0	10197	1924.874813977513	2
0	10203	1925.399646284692	1
0	10209	1925.63250222427	2
0	10211	1925.996987860018	3
0	10212	1927.50436197098	2
0	10218	1928.477981688262	3
0	10220	1928.593279631895	4
0	10221	1929.026458103398	3
0	10228	1929.153148022408	4
0	10230	1929.549227729499	3
0	10235	1929.800738561779	2
0	10240	1929.894154745105	1
0	10248	1932.052596604985	2
0	10249	1932.22485183509	1
0	10253	1932.941601865408	2
0	10255	1933.062489282905	3
0	10260	1934.585149183402	4
0	10261	1935.179828086046	3
0	10266	1935.786360179979	2
0	10270	1936.122287208399	3
0	10273	1937.136135064914	2
0	10280	1941.687500173069	1
0	10285	1944.345115933816	0
0	10306	1946.355080141272	1
0	10309	1947.929102202053	0
0	10315	1947.986268794047	1
0	10317	1948.573806844864	2
0	10318	1948.596367550016	1
0	10327	1949.862111515049	0
0	10352	1953.138138529383	1
0	10354	1953.209292323005	2
0	10358	1956.240971567546	1
0	10363	1956.351580466192	0
0	10369	1956.523284523907	1
0	10373	1957.169358455297	0
0	10379	1957.773650972494	1
0	10381	1957.898293498739	2
0	10382	1958.226485534776	1
0	10386	1959.924017050186	2
0	10388	1961.954898242961	3
0	10391	1962.844121171395	2
0	10397	1963.319329309286	3
0	10399	1963.929495920602	4
0	10400	1964.669820230354	3
0	10406	1965.569963545555	4
0	10407	1965.653439805508	3
0	10414	1966.785230972827	2
0	10421	1968.190351808648	1
0	10427	1969.224127996794	0
0	10447	1972.262209342448	1
0	10449	1972.318466060136	2
0	10453	1974.982078907709	3
0	10456	1975.898683174173	2
0	10462	1976.557646437364	3
0	10463	1976.614583100017	2
0	10467	1977.68136775267	3
0	10470	1978.201392531008	2
0	10477	1980.598403531151	1
0	10481	1981.626294833681	2
0	10483	1982.57152316315	3
0	10488	1984.071722084573	4
0	10489	1984.20692727466	3
0	10497	1985.744096610913	2
0	10502	1985.951592171272	1
0	10507	1987.568076385016	0
0	10523	1989.152106062159	1
0	10528	1989.84110240523	2
0	10534	1990.854823412535	3
0	10535	1990.991978498984	2
0	10540	1991.019659325027	1
0	10548	1991.538463903853	0
0	10567	1994.376009766533	1
0	10568	1994.96736819515	0
0	10598	2002.0593161428	1
0	10599	2002.667846655282	0
0	10630	2008.82539414269	1
0	10635	2009.155791105267	0
0	10652	2011.054064992039	1
0	10654	2011.584646548059	2
0	10658	2012.626722030718	3
0	10660	2013.042103556515	2
0	10666	2013.186358424514	3
0	10667	2013.477754501597	2
0	10673	2014.222000677878	3
0	10674	2014.382761191018	2
0	10681	2014.501301630726	1
0	10685	2015.797252170656	2
0	10689	2016.593598941975	3
0	10691	2017.184974906532	2
0	10696	2017.436958781212	1
0	10704	2018.53754367613	2
0	10706	2019.21956347475	1
0	10712	2020.201907518475	2
0	10714	2020.67986480569	1
0	10719	2020.922424424917	0
0	10734	2023.084202644864	1
0	10735	2023.282079582081	0
0	10741	2023.471360395214	1
0	10742	2023.732557242429	0
0	10748	2024.392835536911	1
0	10750	2024.741640261925	2
0	10753	2026.891656172368	3
0	10754	2027.230694484054	2
0	10760	2028.121025024996	3
0	10763	2029.286212350478	4
0	10764	2029.437332866943	3
0	10769	2029.959739363109	2
0	10773	2030.374962474671	3
0	10779	2032.474601200401	4
0	10780	2032.716603858308	3
0	10786	2034.14595375379	2
0	10792	2035.5238397144	3
0	10794	2035.848924876705	4
0	10795	2036.358244768042	3
0	10799	2036.471372270994	4
0	10802	2037.093049902954	3
0	10806	2037.394461163539	4
0	10812	2038.981151355776	5
0	10813	2039.462531539686	4
0	10819	2039.774349356464	5
0	10823	2040.983680883422	4
0	10828	2041.089829749416	3
0	10833	2041.859482426649	2
0	10839	2042.592628220599	1
0	10844	2042.696722852831	0
0	10848	2043.558186908716	1
0	10851	2045.020126396576	0
0	10875	2049.715612577263	1
0	10876	2049.725852928296	0
0	10882	2050.079691680782	1
0	10885	2052.139410791325	0
0	10926	2066.742267217437	1
0	10928	2067.057384634805	2
0	10929	2067.906759721536	1
0	10935	2068.431624997594	2
0	10938	2069.0705790663	1
0	10943	2069.418372444047	0
0	10947	2069.864234996881	1
0	10951	2071.138442385808	0
0	10968	2072.185970920032	1
0	10969	2072.911043233661	0
0	10977	2076.526690647716	1
0	10978	2076.531742457056	0
0	10982	2077.46798161653	1
0	10984	2078.004671935146	2
0	10987	2078.882902810302	1
0	10994	2079.933604723443	2
0	10997	2080.515201660182	3
0	11000	2081.223540041323	2
0	11006	2081.321018036471	3
0	11008	2081.65238184414	2
0	11014	2082.84309926613	1
0	11020	2083.440384221679	2
0	11021	2083.743828003339	1
0	11026	2083.827392725136	0
0	11050	2087.253374611126	1
0	11051	2087.442514637401	0
0	11069	2088.688050691942	1
0	11070	2088.780565651033	0
0	11079	2089.432133609704	1
0	11082	2090.134338529821	0
0	11086	2090.454742657359	1
0	11089	2090.839274452889	0
0	11093	2091.048757084274	1
0	11098	2091.555887922844	0
0	11107	2094.77466869362	1
0	11111	2095.4131780181	2
0	11113	2096.153895739565	1
0	11120	2097.127322370177	0
0	11126	2097.180991311589	1
0	11128	2097.202147875209	2
0	11129	2097.42713932526	1
0	11137	2098.34124409071	0
0	11151	2100.798869789623	1
0	11152	2100.8905702112	0
0	11165	2102.236873992153	1
0	11168	2102.957784076858	0
0	11172	2103.094036280636	1
0	11176	2105.106279587257	2
0	11180	2106.660946557333	1
0	11184	2106.706266681684	2
0	11186	2107.866599474344	3
0	11190	2108.237283420519	4
0	11191	2108.564689130889	3
0	11195	2109.202131407212	4
0	11200	2112.67252388633	3
0	11206	2113.250845206479	2
0	11211	2114.292090578457	1
0	11215	2115.057252405972	2
0	11219	2116.530316262018	3
0	11220	2117.10829753273	2
0	11226	2117.81215150153	3
0	11229	2118.541611808444	2
0	11235	2119.275560453469	3
0	11236	2119.484561927459	2
0	11242	2119.733970938538	1
0	11247	2120.11447132065	0
0	11269	2122.239191419391	1
0	11270	2123.414582580919	0
0	11284	2125.274974735265	1
0	11288	2125.590921417241	2
0	11289	2125.742310654466	1
0	11296	2127.243671195868	0
0	11300	2128.34787289645	1
0	11302	2128.375703761682	2
0	11305	2128.734731879249	1
0	11311	2128.900627632121	2
0	11313	2129.369941999151	3
0	11316	2132.032069159268	2
0	11320	2133.231544094437	3
0	11323	2135.99397961471	2
0	11333	2136.828826461382	3
0	11335	2136.943162617847	2
0	11342	2137.778484025694	1
0	11350	2139.281056157537	0
0	11361	2140.287902432997	1
0	11364	2140.748515966273	2
0	11366	2141.780517892729	3
0	11367	2141.995902645173	2
0	11374	2142.123323520316	3
0	11375	2142.757414550548	2
0	11383	2145.194185430713	3
0	11386	2145.607543038187	2
0	11390	2146.095058719051	3
0	11394	2150.580846355751	4
0	11395	2150.885123545583	3
0	11400	2153.195483072128	2
0	11406	2154.495509950698	1
0	11411	2156.047827435732	0
0	11437	2162.856611007276	1
0	11441	2164.948372590672	0
0	11455	2165.465132171831	1
0	11459	2167.245138289461	2
0	11461	2168.390793353366	1
0	11466	2168.650314979048	0
0	11489	2173.886095722668	1
0	11491	2174.034597927878	2
0	11495	2175.926084467821	3
0	11496	2177.026666620579	2
0	11504	2179.692980137904	1
0	11509	2180.177971645411	0
0	11534	2183.187467534672	1
0	11538	2185.123838584488	0
0	11552	2187.617029115589	1
0	11557	2189.159386078046	2
0	11561	2190.267168810915	3
0	11566	2192.944816775956	2
0	11572	2193.64478558629	3
0	11573	2193.985044768381	2
0	11579	2193.991124901603	3
0	11582	2194.799171395174	2
0	11590	2197.107238426731	3
0	11593	2199.365170433476	2
0	11597	2199.726431738453	3
0	11600	2201.673395017881	2
0	11608	2204.700087998896	3
0	11609	2205.285343936536	2
0	11614	2205.414654808791	1
0	11619	2206.224802396155	0
0	11623	2206.445309115443	1
0	11626	2207.536083976509	0
0	11634	2209.578976575296	1
0	11636	2209.672352439257	2
0	11638	2210.287578323219	3
0	11639	2210.509200304068	2
0	11643	2210.786907568064	3
0	11648	2212.789054552304	2
0	11654	2213.690229745941	3
0	11655	2214.248973755585	2
0	11660	2214.807735964112	1
0	11664	2215.634179912916	2
0	11667	2215.923708881606	1
0	11673	2216.555162601107	2
0	11675	2216.807077867076	3
0	11676	2217.355902546121	2
0	11682	2218.643864424654	3
0	11684	2218.909744318706	4
0	11686	2219.487751127277	5
0	11687	2219.604670792854	4
0	11693	2220.752608647943	5
0	11697	2222.017199938894	4
0	11703	2222.651317503834	5
0	11704	2223.414903022979	4
0	11708	2223.636155893986	5
0	11710	2223.706710308959	6
0	11715	2225.724661825063	5
0	11721	2229.189938255444	6
0	11722	2229.589864573547	5
0	11728	2231.975955223859	6
0	11730	2232.321146493839	5
0	11735	2232.608100593547	4
0	11742	2234.902053643089	3
0	11748	2235.839768702159	4
0	11750	2236.744284756725	5
0	11753	2237.479069684118	4
0	11757	2237.955224594506	5
0	11759	2238.721377070036	6
0	11763	2240.597346760256	7
0	11767	2241.562056668292	6
0	11772	2241.932537132497	5
0	11778	2243.308602495726	6
0	11782	2244.772421705604	7
0	11783	2245.540071718685	6
0	11788	2246.639789885277	5
0	11794	2247.488843199941	6
0	11798	2248.845795134771	5
0	11803	2248.908590538018	4
0	11809	2249.848619018965	5
0	11811	2250.783057275547	6
0	11814	2251.521794135464	5
0	11818	2251.834612338341	6
0	11821	2252.035256852925	5
0	11829	2253.113281539236	6
0	11831	2253.234471012149	7
0	11832	2253.40856838441	6
0	11838	2254.914727498987	7
0	11840	2256.523805923952	8
0	11842	2257.610067329252	9
0	11844	2257.630657708474	10
0	11846	2257.87915773653	11
0	11847	2257.94107633733	10
0	11853	2258.686175583568	9
0	11858	2258.786967974396	8
0	11862	2258.915722562643	9
0	11864	2260.35138407075	10
0	11866	2260.889627328127	11
0	11869	2261.354554869795	10
0	11874	2262.158231466384	9
0	11879	2262.501050271414	8
0	11883	2262.997807643077	9
0	11885	2265.625273172055	10
0	11889	2266.312399029019	11
0	11891	2266.737378202436	10
0	11897	2267.440019446189	11
0	11898	2267.65633131396	10
0	11905	2269.448296719943	9
0	11910	2269.870814614426	8
0	11915	2270.145979143678	7
0	11925	2275.494292503761	8
0	11926	2276.119074061776	7
0	11930	2277.571275765335	8
0	11932	2277.725954709874	9
0	11937	2279.762438891288	8
0	11942	2279.911872090615	7
0	11946	2279.938090305504	8
0	11948	2280.280897117582	9
0	11950	2281.159540561306	10
0	11954	2281.855930367894	11
0	11955	2283.387891853319	10
0	11960	2284.177707827749	9
0	11966	2285.71331711411	10
0	11968	2285.886457667567	11
0	11971	2286.378357532601	10
0	11975	2286.78117011512	11
0	11979	2287.855512739484	12
0	11980	2288.381806350488	11
0	11986	2289.164052474093	10
0	11992	2291.250446206568	11
0	11993	2291.386322144966	10
0	11998	2291.695479743638	9
0	12003	2294.238952251355	8
0	12008	2295.180318653469	7
0	12012	2295.46347809655	8
0	12014	2295.930927926666	9
0	12017	2296.120838232517	8
0	12023	2296.427619146723	9
0	12026	2297.195345750561	10
0	12028	2297.433913874999	9
0	12034	2297.625294069483	10
0	12035	2298.07437161546	9
0	12040	2299.0270041574	8
0	12045	2301.622865967558	7
0	12054	2302.588603759412	8
0	12055	2302.706589592264	7
0	12060	2302.785344685219	6
0	12065	2303.788957262336	5
0	12069	2304.139759634979	6
0	12072	2304.935580539972	5
0	12077	2305.679995261356	4
0	12081	2306.03914323281	5
0	12084	2306.943128435595	4
0	12089	2309.949684162486	3
0	12096	2311.462332243703	2
0	12102	2311.745731928821	3
0	12103	2311.890079730393	2
0	12108	2313.338605140908	1
0	12112	2314.132683931901	2
0	12114	2314.414816205904	3
0	12117	2317.515892832417	2
0	12124	2322.181888669043	1
0	12128	2322.817631891157	2
0	12132	2323.995002307015	3
0	12138	2325.367145807941	2
0	12143	2325.891645261817	1
0	12149	2326.00562619141	2
0	12151	2326.266621276892	3
0	12153	2327.510508219933	4
0	12154	2329.659282462571	3
0	12158	2329.875145592249	4
0	12160	2331.378653619383	5
0	12162	2331.522081719654	6
0	12166	2332.72728797571	7
0	12169	2333.189260061331	6
0	12173	2333.209936801506	7
0	12175	2333.782535079621	8
0	12177	2334.627658618863	9
0	12179	2334.983473903777	10
0	12181	2335.135224661518	11
0	12184	2335.751706022113	10
0	12188	2335.99675312108	11
0	12194	2337.39290078938	12
0	12195	2338.030011576367	11
0	12199	2338.221163874154	12
0	12201	2338.504724650168	13
0	12204	2338.688804976325	12
0	12211	2340.039993165211	11
0	12216	2340.608632094934	10
0	12221	2341.008428022322	9
0	12226	2341.441693601907	8
0	12230	2341.490330088976	9
0	12232	2341.754055240279	10
0	12237	2343.53790220528	9
0	12241	2344.998897055865	10
0	12244	2348.826649699603	9
0	12250	2349.028731540471	8
0	12255	2349.460719709329	7
0	12264	2351.013010002367	8
0	12265	2351.154109028464	7
0	12272	2351.841000646764	6
0	12277	2352.227559054602	5
0	12282	2352.387598935157	4
0	12287	2353.795074432665	3
0	12292	2353.839042724444	2
0	12297	2354.337514333684	1
0	12305	2355.057043732964	0
0	12333	2360.073885053444	1
0	12334	2360.864306118822	0
0	12347	2364.390235364953	1
0	12349	2364.919172456313	2
0	12350	2365.997564033759	1
0	12356	2366.412010362355	2
0	12358	2366.54544997048	3
0	12359	2366.581349675631	2
0	12365	2366.773803006409	1
0	12371	2366.924520556957	2
0	12373	2367.31310621133	1
0	12377	2367.787918753209	2
0	12381	2368.50670854967	3
0	12382	2369.511960815739	2
0	12386	2370.083405497314	3
0	12389	2371.125920607227	2
0	12395	2373.318297352107	1
0	12400	2373.344351995329	0
0	12406	2374.69658697917	1
0	12408	2374.877742608064	2
0	12410	2375.947728897093	3
0	12412	2376.597175450884	4
0	12414	2376.639755212276	5
0	12415	2377.594629991149	4
0	12422	2378.17305461114	3
0	12426	2379.425219354496	4
0	12433	2381.044725766078	3
0	12440	2382.178106029101	2
0	12445	2382.296544127487	1
0	12450	2383.623590129593	0
0	12454	2383.943489476762	1
0	12456	2384.031758064909	2
0	12459	2384.544196307524	1
0	12465	2385.641180253483	2
0	12467	2385.953740251237	1
0	12474	2387.079421565587	0
0	12480	2387.470104775566	1
0	12481	2387.653487775375	0
0	12487	2388.864581401668	1
0	12490	2389.273644008546	0
0	12494	2390.140143564703	1
0	12496	2390.656524912828	2
0	12499	2391.992245754806	1
0	12504	2393.474521320837	0
0	12508	2393.748981851687	1
0	12515	2395.117489601471	2
0	12518	2395.554603101098	1
0	12523	2396.95774248494	0
0	12550	2399.181599201249	1
0	12554	2402.251141516441	0
0	12568	2405.334859630562	1
0	12570	2405.687941366417	2
0	12572	2406.596980371745	1
0	12578	2406.597526448363	2
0	12580	2406.692483366953	3
0	12581	2406.90969100979	2
0	12586	2408.708555743561	1
0	12592	2409.050699934957	2
0	12595	2409.728996856331	1
0	12603	2410.833289916748	0
0	12609	2411.256686425838	1
0	12611	2412.048269694809	0
0	12630	2413.720254807324	1
0	12632	2414.866392234404	0
0	12644	2416.169287785898	1
0	12648	2416.905699922887	2
0	12651	2417.05725384978	3
0	12654	2417.622351294192	4
0	12655	2417.947626164623	3
0	12660	2417.960624209776	2
0	12665	2421.209786988377	1
0	12669	2422.634955617399	2
0	12673	2423.511942959074	3
0	12674	2423.802480842929	2
0	12679	2424.564129266681	1
0	12684	2425.707655601734	0
0	12711	2429.026934633686	1
0	12712	2429.70115453894	0
0	12721	2433.183606571835	1
0	12725	2434.308246015737	2
0	12728	2434.838540164917	3
0	12730	2436.243271263795	2
0	12738	2437.580911631503	3
0	12739	2437.709216488693	2
0	12743	2437.825989753444	3
0	12745	2438.036288064556	4
0	12748	2439.133027263554	3
0	12753	2439.695920913029	2
0	12759	2440.681016454886	3
0	12761	2441.888783911106	4
0	12765	2442.543092383832	5
0	12767	2442.790823964989	6
0	12768	2442.79678210416	5
0	12774	2444.218308683266	6
0	12777	2445.318175508356	5
0	12782	2445.647944839177	4
0	12789	2446.599767433902	3
0	12793	2446.668227989038	4
0	12795	2447.274406794392	5
0	12797	2448.145967907179	6
0	12800	2448.494321001125	5
0	12806	2449.758039492119	6
0	12809	2449.902823885309	5
0	12818	2451.001972156182	6
0	12819	2452.031317845399	5
0	12824	2452.287462665925	4
0	12831	2457.082999059107	3
0	12837	2457.245410005829	4
0	12838	2458.877516703711	3
0	12843	2459.446576020768	2
0	12847	2460.708065182629	3
0	12852	2461.391579864018	2
0	12857	2464.388674089844	1
0	12865	2467.406751458467	2
0	12866	2467.468736553129	1
0	12871	2467.840897272748	0
0	12877	2468.088925003302	1
0	12880	2469.281744098661	0
0	12913	2475.131072612679	1
0	12915	2475.983097890884	2
0	12922	2476.445160894044	1
0	12927	2476.849947926832	0
0	12943	2477.978587981817	1
0	12945	2478.093748870581	2
0	12949	2480.855764197433	3
0	12951	2480.966416345856	4
0	12953	2481.295605699117	5
0	12955	2481.767744707393	6
0	12958	2482.862226545289	5
0	12963	2482.87330687248	4
0	12970	2483.227960488899	3
0	12979	2484.183075143457	2
0	12985	2486.076789826426	3
0	12990	2487.156098847042	4
0	12992	2487.891942929362	3
0	12997	2487.947087846479	2
0	13002	2487.984333075571	1
0	13006	2488.719957306532	2
0	13008	2488.979109378344	3
0	13012	2489.539288021852	4
0	13013	2489.920029770986	3
0	13020	2490.452645727102	4
0	13022	2490.50259883572	5
0	13025	2490.807871478701	4
0	13031	2491.330572698604	3
0	13036	2492.088907383476	2
0	13047	2494.389184298542	1
0	13052	2495.238205405297	0
0	13058	2495.375841761406	1
0	13059	2495.450291184487	0
0	13063	2495.827981483148	1
0	13066	2496.767910503726	0
0	13074	2498.452823507789	1
0	13076	2498.704045037526	2
0	13078	2498.94571326235	3
0	13080	2499.639627339864	4
0	13082	2500.443303643768	5
0	13084	2501.14316161557	6
0	13085	2501.290972918652	5
0	13089	2501.380238667317	6
0	13091	2502.140305099588	7
0	13096	2503.268880258185	6
0	13101	2504.243831189893	5
0	13108	2506.248212458497	4
0	13112	2507.85391830271	5
0	13118	2508.421304818526	6
0	13119	2509.196776827023	5
0	13125	2509.522083588838	6
0	13126	2509.673019418954	5
0	13131	2510.350346618811	4
0	13135	2510.500877257615	5
0	13137	2510.569272625037	6
0	13140	2510.948288422043	5
0	13145	2513.485795473222	4
0	13151	2513.817893113571	5
0	13154	2514.057787606992	4
0	13161	2515.373654523751	3
0	13167	2516.412493702128	2
0	13173	2516.897757700668	3
0	13175	2516.99106016115	2
0	13181	2517.235562420823	3
0	13185	2518.393220371368	4
0	13186	2519.124548471876	3
0	13191	2520.286945803701	2
0	13197	2521.189812137874	1
0	13205	2522.735011461082	0
0	13238	2525.954807843183	1
0	13240	2526.332579812983	0
0	13252	2528.101800578089	1
0	13254	2528.608453966384	0
0	13260	2529.38965262203	1
0	13261	2529.860563556945	0
0	13268	2530.05841215127	1
0	13270	2530.516347551654	2
0	13271	2530.710533473649	1
0	13276	2531.104499605363	0
0	13287	2532.032963164757	1
0	13288	2532.452838058449	0
0	13294	2533.868246884036	1
0	13295	2534.589085289137	0
0	13309	2536.298622888217	1
0	13315	2537.755436807711	2
0	13317	2537.96057822181	3
0	13321	2538.996887170623	4
0	13322	2539.187559065165	3
0	13326	2539.68616833834	4
0	13331	2540.5041159232	3
0	13335	2540.573922871683	4
0	13338	2541.532956654753	3
0	13343	2542.116418265209	2
0	13348	2543.546857519714	1
0	13354	2544.428795228248	2
0	13355	2545.251119073024	1
0	13361	2545.802973291548	2
0	13362	2545.839772250989	1
0	13366	2546.609333799909	2
0	13372	2547.979989807267	3
0	13374	2548.634916066224	2
0	13382	2550.032276225	1
0	13389	2550.741194516861	0
0	13393	2551.397276991518	1
0	13395	2551.533759770498	2
0	13399	2551.735710860685	3
0	13401	2553.437999737196	4
0	13405	2554.799478582704	5
0	13413	2556.518680636171	6
0	13415	2556.735014596958	5
0	13420	2557.317551464054	4
0	13424	2558.565067914501	5
0	13428	2559.306253761902	6
0	13429	2559.540190244284	5
0	13440	2561.731434057345	6
0	13442	2562.63147734081	5
0	13447	2562.675022123039	4
0	13452	2562.728895088973	3
0	13456	2563.681247822237	4
0	13460	2565.892659254644	5
0	13463	2566.734776003305	4
0	13470	2568.43380154358	3
0	13478	2569.318027911588	2
0	13483	2569.610265139344	1
0	13488	2570.25084312319	0
0	13505	2571.558514448469	1
0	13506	2571.694747806136	0
0	13513	2573.32551710365	1
0	13514	2573.351979708878	0
0	13521	2574.468132126286	1
0	13522	2574.683389087783	0
0	13530	2576.563007225189	1
0	13531	2576.580743935651	0
0	13537	2577.02189521088	1
0	13538	2577.84395207116	0
0	13576	2582.877919785562	1
0	13585	2585.227224589478	2
0	13586	2585.339358185093	1
0	13596	2585.994568118455	2
0	13601	2586.780694026861	3
0	13602	2587.085521607076	2
0	13607	2587.337790582729	1
0	13613	2588.571182119155	2
0	13614	2589.685365338393	1
0	13619	2590.801323606755	0
0	13642	2594.577841321724	1
0	13643	2594.590805826409	0
0	13649	2595.224365556584	1
0	13651	2596.514585904084	2
0	13652	2596.570025589652	1
0	13657	2597.216528747801	0
0	13677	2598.831165341081	1
0	13680	2601.637684338755	0
0	13686	2602.268768738356	1
0	13689	2603.003181338312	2
0	13690	2603.086728367611	1
0	13698	2604.692182540287	0
0	13729	2609.012173352284	1
0	13730	2610.152390965491	0
0	13751	2612.413849863494	1
0	13752	2612.438674693485	0
0	13774	2614.642540772239	1
0	13779	2617.725454885727	0
0	13785	2617.748506765371	1
0	13789	2618.496810221543	0
0	13803	2619.794634350341	1
0	13811	2624.011593840988	0
0	13844	2629.288222944226	1
0	13849	2630.277972488052	2
0	13851	2630.711953718758	3
0	13855	2631.113441743725	4
0	13857	2632.556962171118	5
0	13858	2632.860952933165	4
0	13864	2632.907111405389	5
0	13866	2633.389942621177	4
0	13874	2634.047809666046	5
0	13879	2635.743785230898	4
0	13886	2635.98935694709	5
0	13889	2638.669248032012	4
0	13894	2639.560716327475	3
0	13899	2640.100459194239	2
0	13905	2640.279921635211	3
0	13907	2640.449660248818	2
0	13913	2640.511562814259	3
0	13916	2641.343705603106	2
0	13921	2641.859798181039	1
0	13926	2642.616080315661	0
0	13930	2642.685383391262	1
0	13932	2642.954487801323	2
0	13936	2643.874825493503	3
0	13938	2645.802245926454	4
0	13940	2645.989525532084	5
0	13942	2646.376930801487	6
0	13943	2647.009099719332	5
0	13949	2648.357587570379	6
0	13951	2648.56689572852	7
0	13953	2648.834423544727	8
0	13959	2650.678549246327	9
0	13962	2651.190630357162	8
0	13969	2651.343976209714	7
0	13976	2652.351478097205	6
0	13983	2655.017644126881	5
0	13988	2655.050245374064	4
0	13994	2655.551771811108	5
0	13996	2655.703400986493	4
0	14004	2656.058692600515	5
0	14005	2657.990658613018	4
0	14009	2658.674189778733	5
0	14011	2658.746872895754	6
0	14014	2659.648812897807	5
0	14022	2659.910279106097	4
0	14027	2660.425293808146	3
0	14031	2661.436668077901	4
0	14034	2661.931549312833	3
0	14041	2662.384321643146	2
0	14049	2663.283958726023	1
0	14055	2663.493371884619	2
0	14057	2663.677300637616	3
0	14059	2664.500773309337	4
0	14062	2666.177389911635	3
0	14068	2667.074154913076	4
0	14071	2668.589132774885	3
0	14077	2668.879356648076	2
0	14083	2668.900305980676	3
0	14087	2669.655552389493	4
0	14088	2670.367680785196	3
0	14095	2672.201960197778	2
0	14100	2673.820490184985	1
0	14104	2673.837639862829	2
0	14107	2677.070088384078	1
0	14112	2678.481637669623	0
0	14133	2681.006569056506	1
0	14136	2681.304968775394	0
0	14143	2683.474044518865	1
0	14147	2684.592957343692	0
0	14153	2684.79447948965	1
0	14154	2684.885174998088	0
0	14158	2686.48574422277	1
0	14160	2686.579247911554	2
0	14165	2689.617129749993	1
0	14173	2691.179943182551	0
0	14204	2695.245154821944	1
0	14209	2696.455421431523	0
0	14226	2698.539666880104	1
0	14230	2699.414222097586	2
0	14233	2699.894016281695	3
0	14235	2701.181583321543	2
0	14242	2701.397353029278	1
0	14247	2702.686940570882	0
0	14251	2703.5036397355	1
0	14253	2703.715038656554	2
0	14257	2706.688837787062	1
0	14262	2707.066540486487	0
0	14281	2710.571937995299	1
0	14283	2710.963668973501	0
0	14335	2722.213210829627	1
0	14340	2723.004650372735	0
0	14359	2726.483207807503	1
0	14360	2726.494756726035	0
0	14366	2726.886598235517	1
0	14368	2729.40348169501	2
0	14370	2730.227242416841	3
0	14372	2730.591229654223	4
0	14373	2731.520351642947	3
0	14378	2731.598625816969	2
0	14382	2731.844883625534	3
0	14384	2732.495055748602	4
0	14387	2732.851385089295	3
0	14391	2735.454132308952	4
0	14394	2737.769448124811	3
0	14400	2738.711829032049	4
0	14403	2739.998591566785	3
0	14407	2740.41494283564	4
0	14411	2741.174463647885	5
0	14415	2742.27086549105	6
0	14416	2742.449458825687	5
0	14421	2744.539391983038	4
0	14426	2745.866270224034	3
0	14431	2746.686022594675	2
0	14438	2747.561522568924	1
0	14443	2748.424292701202	0
0	14474	2752.037616954246	1
0	14476	2752.242522445624	2
0	14481	2752.844317659214	1
0	14486	2753.047659899673	0
0	14497	2753.483541025731	1
0	14499	2754.148858596254	2
0	14502	2754.655018564167	1
0	14511	2754.867291053408	2
0	14515	2755.842384068149	1
0	14521	2756.068607214904	0
0	14562	2760.950560535249	1
0	14564	2762.021356512441	2
0	14569	2762.437686621565	3
0	14570	2762.933656820548	2
0	14575	2763.184793783646	1
0	14581	2763.242546893122	0
0	14585	2763.284560163283	1
0	14587	2763.465979777022	2
0	14589	2763.605234234455	3
0	14591	2765.269351919075	4
0	14595	2765.954898579272	5
0	14596	2767.316194026639	4
0	14603	2769.405952245849	3
0	14608	2770.435908396393	2
0	14613	2770.743410834343	1
0	14617	2771.02202230651	2
0	14622	2772.229464089579	3
0	14623	2772.43446429132	2
0	14628	2772.835113907373	1
0	14636	2773.618863576894	2
0	14637	2774.33661891439	1
0	14641	2774.649996352975	2
0	14644	2776.191208640841	1
0	14650	2777.608459644127	0
0	14662	2778.850592892615	1
0	14664	2779.839065616455	2
0	14666	2780.331457947528	3
0	14667	2781.194898223887	2
0	14673	2781.277424340407	3
0	14675	2782.75955159827	4
0	14677	2784.167901104981	5
0	14681	2787.655092932894	6
0	14684	2788.727656539626	5
0	14690	2789.690241538433	6
0	14692	2789.928259120194	7
0	14694	2791.226221223351	6
0	14699	2792.678571398131	5
0	14707	2793.425391411973	4
0	14712	2793.460409009747	3
0	14719	2795.372851821405	2
0	14724	2796.061009215509	1
0	14730	2796.425914553757	2
0	14732	2796.549370368314	3
0	14734	2796.76662657655	4
0	14735	2796.798084361909	3
0	14739	2797.234825060754	4
0	14746	2799.447055026347	3
0	14752	2799.60495706891	2
0	14759	2799.955175877104	3
0	14760	2801.166909395175	2
0	14765	2801.31660210069	1
0	14773	2801.494750935567	0
0	14785	2802.428265733806	1
0	14787	2803.128224434948	0
0	14800	2803.674108250507	1
0	14801	2803.766874741961	0
0	14807	2803.905213665241	1
0	14810	2804.604234182616	0
0	14827	2805.541957577169	1
0	14829	2805.588212848068	2
0	14831	2805.831619756056	3
0	14834	2806.964730092686	4
0	14836	2807.499011946307	3
0	14841	2807.630002664984	2
0	14846	2807.882561522074	1
0	14852	2808.358295370159	2
0	14854	2808.921108895954	3
0	14855	2810.587793531695	2
0	14861	2811.020135794024	1
0	14866	2811.891063621507	0
0	14889	2816.24381945787	1
0	14891	2816.424242747544	2
0	14893	2816.841887201694	3
0	14895	2817.448980807823	4
0	14899	2817.775012915919	5
0	14900	2817.890294735525	4
0	14905	2818.563612989488	3
0	14913	2820.121914493115	2
0	14920	2821.876260937584	1
0	14926	2822.461065265842	2
0	14927	2822.48941551507	1
0	14932	2822.825409683097	0
0	14938	2823.372631831946	1
0	14946	2825.285375365609	2
0	14947	2825.390701210269	1
0	14953	2825.762886197104	2
0	14956	2826.156236868202	1
0	14960	2827.19047237119	2
0	14962	2827.48895920647	3
0	14964	2828.412664889482	4
0	14968	2829.040488223461	5
0	14969	2829.335875354599	4
0	14973	2830.061658562484	5
0	14975	2831.238353272089	6
0	14979	2831.619019043072	7
0	14980	2831.993277343599	6
0	14984	2833.202179247838	7
0	14986	2833.939766280465	8
0	14989	2834.618948265276	7
0	14993	2834.854948322385	8
0	14995	2835.562809002484	9
0	14997	2835.725364419239	10
0	15003	2836.278929795762	9
0	15008	2837.29727293768	8
0	15013	2838.485889269183	7
0	15017	2838.512684401892	8
0	15019	2838.649613618126	9
0	15021	2839.167671886603	10
0	15026	2842.280691176717	9
0	15031	2845.756636348324	8
0	15036	2846.323018934306	7
0	15041	2846.454322199992	6
0	15045	2846.630222240533	7
0	15047	2846.794318867782	8
0	15050	2848.717390080389	7
0	15057	2849.284137416256	6
0	15062	2851.447845296679	5
0	15067	2851.913735525582	4
0	15071	2853.797590972394	5
0	15073	2853.883028308983	6
0	15077	2854.372580781956	7
0	15078	2854.768069390104	6
0	15082	2855.261563281039	7
0	15086	2856.049801201242	6
0	15092	2857.981237980918	7
0	15093	2858.595833445813	6
0	15102	2860.070692381496	7
0	15103	2861.146785062167	6
0	15110	2861.771324776756	5
0	15114	2861.831333632005	6
0	15117	2862.632778443514	5
0	15122	2863.785842473706	4
0	15127	2864.776901866538	3
[...]
4	137579	26453.763710208085	8913.5324201434
4	137592	26455.678842140973	8914.1692447494
4	137597	26457.557262276886	8912.1406891108
4	137602	26457.578106126166	8908.1089261278
4	137611	26460.891173571339	8908.7561935367
4	137625	26463.167454018268	8908.959165911
4	137719	26480.175619717907	8925.3761448932
4	137731	26481.639793905263	8923.3653253282
4	137786	26490.850834053295	8927.8719821713
4	137791	26492.268132090965	8927.9622658856
4	137801	26493.77082393409	8928.6288303948
4	137834	26497.119709853361	8928.1518179029
4	137845	26499.005712362672	8913.1334036212
4	137850	26499.842354073019	8912.1022443724
4	137860	26502.81342910183	8913.4412063039
4	137865	26503.952921826901	8904.804638616
4	137872	26504.621592984284	8904.8950936067
4	137877	26505.513485519116	8904.109062957
4	137904	26516.261181550466	8891.2808887291
4	138185	26577.540880076239	8946.9585713703
4	138198	26581.807900311441	8950.0670541538
4	138227	26584.111933645045	8943.2444187534
4	138244	26586.787643078672	8935.9244279016
4	138305	26599.148065572869	8947.663198374
4	138310	26599.703063527293	8941.9737589341
4	138321	26602.120805580781	8944.19150975
4	138379	26614.56874326346	8952.6019305225
4	138399	26616.632219775497	8951.1909773429
4	138438	26623.759109486735	8952.0076985921
4	138445	26624.22588858941	8949.9005817158
4	138465	26627.780374638813	8952.4100419511
4	138634	26667.593197408708	8989.9685209092
4	138645	26670.383252394791	8979.4794660338
4	138669	26675.736747789925	8982.3753673146
4	139014	26743.503622615242	9048.6812822822
4	139024	26744.655965850334	9048.9171008626
4	139069	26755.430558354152	9053.1195730467
4	139294	26798.902951927546	9096.4838450052
4	139299	26798.912251566004	9089.7481763312
4	139304	26799.127182394381	9086.6378895388
4	139309	26800.131805353621	9084.2153631989
4	139314	26801.272901913729	9084.4243102695
4	139323	26804.338327204841	9087.2281147161
4	139334	26806.446523639597	9084.2769652503
4	139341	26809.23713470922	9085.2265024052
4	139366	26814.942978026595	9090.1460227984
4	139377	26815.739039732868	9090.0561204533
4	139387	26816.871993523704	9071.0233955572
4	139403	26818.895401380819	9072.5329391642
4	139408	26819.061726243749	9065.1463361742
4	139414	26822.669827126441	9067.2731662362
4	139419	26823.671200755334	9063.1364560274
4	139433	26827.230550541507	9060.7500151417
4	139465	26831.577579518596	9062.3345358105
4	139489	26833.776192767258	9059.4911921473
4	139755	26894.481033500142	9112.2804295795
4	139783	26898.471779459456	9114.2930446953
4	139790	26899.58928932361	9108.8839635166
4	139795	26899.776392558269	9103.5598085398
4	139800	26900.592076301363	9102.2590753057
4	139812	26902.828228285025	9102.8284884237
4	140001	26939.885276244424	9136.7542280623
4	140166	26970.694205565749	9159.8351277576
4	140171	26971.027122879228	9159.1907554895
4	140181	26973.491478093775	9155.1460243508
4	140196	26978.417080132694	9151.2813565873
4	140415	27025.52364907717	9193.4601616052
4	140429	27030.415037149555	9187.36426456
4	140441	27034.503875253365	9188.5186818445
4	140446	27034.510087460694	9187.907052504
4	140451	27035.104717033764	9179.9730227603
4	140461	27038.689243006389	9181.4096275305
4	140495	27043.063703567908	9180.3105056621
4	140500	27043.208883313441	9179.1630402671
4	140513	27046.938154424523	9161.8009517511
4	140545	27052.051414124737	9160.9568109277
4	140552	27052.477549411449	9156.1307263507
4	140570	27054.964070984772	9151.9956368964
4	140615	27063.198183005584	9157.2046060624
4	140628	27064.999622896863	9158.1780503699
4	140675	27069.760789575195	9158.4348607049
4	140685	27070.940606797596	9149.8616369484
4	140694	27072.740990836095	9143.4178799589
4	140700	27072.90343153553	9136.8558665408
4	140705	27073.440827786441	9137.0562814764
4	140715	27077.035609353171	9136.6696602572
4	140821	27103.05227186327	9160.4239080535
4	140830	27104.345564339106	9157.6695966499
4	140867	27112.818499450255	9146.3860739693
4	140879	27116.391490714939	9139.9491074842
4	140884	27116.405901468674	9139.397713987
4	140890	27118.425689944477	9140.5985768249
4	140897	27120.921802343987	9141.6897684111
4	140925	27124.995588344546	9136.322883348
4	140933	27125.979884769717	9128.3600075316
4	140943	27126.256478629537	9115.4032728207
4	140953	27129.75138162426	9118.2329830919
4	141050	27149.698576624948	9135.8620851357
4	141056	27150.413754134393	9131.8390577729
4	141075	27158.431986561041	9137.2343157423
4	141115	27162.679554108503	9131.8460442898
4	141121	27163.238363782408	9123.0884356598
4	141126	27163.503314966778	9120.3089687381
4	141134	27165.476781496946	9122.1616863017
4	141144	27166.886515967925	9119.1575297298
4	141156	27169.675192739122	9121.8316134935
4	141191	27174.835690132622	9124.8540949737
4	141198	27176.235437931059	9125.3313161288
4	141214	27177.949841243396	9126.3512120259
4	141247	27182.177460782755	9128.6902554138
4	141466	27228.912418081511	9168.5807528372
4	141473	27230.338235145619	9168.2078675486
4	141526	27239.828071918393	9176.7520178244
4	141531	27240.603938964832	9175.5956898997
4	141540	27241.998548869315	9175.6160558889
4	141551	27244.342020566053	9177.1878423355
4	141703	27274.931912042618	9206.3387359065
4	141712	27276.329688854376	9205.5237136722
4	141718	27276.583029506535	9194.4328655617
4	141723	27276.857022625125	9192.1245583102
4	141733	27278.960310778218	9191.5795867969
4	141774	27283.506001193334	9192.0329767312
4	141779	27283.69308089614	9181.4157265914
4	141784	27284.036338678838	9179.9052612536
4	141789	27285.317911090061	9177.9484446054
4	141800	27289.204098249935	9178.8191976639
4	141891	27309.544897892329	9197.5934731483
4	142033	27338.839011873874	9216.1863667424
4	142038	27339.322033894142	9212.3621782526
4	142045	27340.594823339925	9212.2482720884
4	142055	27340.968782988179	9210.5747172502
4	142064	27341.967637667268	9208.2419058811
4	142076	27342.558166454267	9204.5007309242
4	142083	27343.350892341389	9188.8755958151
4	142088	27343.381679452446	9186.0852730755
4	142095	27344.466550520428	9186.4498149739
4	142102	27344.674614721	9179.0123511172
4	142115	27346.573521434374	9173.864735675
4	142133	27348.410798363477	9162.2271325557
4	142138	27350.271323082544	9151.9072438316
4	142147	27352.657323918465	9149.5675290071
4	142725	27480.060609121424	9276.9168057
4	142739	27482.862770645756	9278.212833929
4	142755	27486.003516419509	9272.9811650923
4	142760	27486.0387985309	9272.8149662584
4	142769	27487.267403391763	9272.3835479428
4	142806	27493.125372759025	9277.1234974701
4	143008	27533.491076989916	9314.2329649628
4	143013	27533.559919287093	9313.5066962283
4	143018	27534.546285559273	9314.3052365305
4	143028	27538.007014571151	9312.3320990852
4	143041	27539.024949222435	9312.6740259538
4	143049	27541.95752202567	9314.398903021
4	143078	27544.379195459389	9313.6168947109
4	143085	27545.572342573477	9314.2190501986
4	143091	27546.005997984253	9309.1159958369
4	143096	27546.671986116975	9308.3949897872
4	143106	27549.962184195272	9309.8415760402
4	143240	27579.850141624757	9333.845809969
4	143247	27580.22260538648	9322.0552734036
4	143257	27580.852048783781	9321.4878911709
4	143295	27587.657072223075	9324.5009284361
4	143311	27590.080381789822	9324.783973183
4	143316	27591.190956014467	9321.3932675417
4	143329	27595.115618928259	9318.3711067036
4	143359	27597.024579568974	9312.8876554386
4	143368	27598.710376063055	9309.152238519
4	143401	27602.320981563295	9309.4898864439
4	143406	27602.331359219004	9308.4533872573
4	143414	27602.681234447993	9306.9936293164
4	143423	27603.935705000941	9308.1745229036
4	143443	27607.432397286281	9302.8799185304
4	143457	27612.797700639155	9301.1723059814
4	143467	27617.238094092271	9302.6808076782
4	143472	27619.512555596745	9300.0883615955
4	143482	27621.059613600377	9299.1845336645
4	143490	27622.7788820782	9294.1873899388
4	143495	27624.158930863018	9295.4066203141
4	143500	27624.840061875368	9286.7859102265
4	143505	27625.252213390778	9286.4619782437
4	143512	27626.403942371242	9286.7014726817
4	143528	27629.449360652224	9280.9412705068
4	143538	27629.687418716374	9280.3002520772
4	143547	27634.921851880008	9283.2572041221
4	143552	27635.010805484838	9282.2645446178
4	143557	27635.20613137544	9282.1055724644
4	143565	27636.5707804171	9280.4805690492
4	143583	27639.344459970427	9279.4994510456
4	143594	27639.741014268255	9279.273414398
4	143611	27644.12062501175	9273.3664585301
4	143617	27645.221947265101	9262.1226052491
4	143622	27645.325405909534	9259.9989905939
4	143627	27646.468383497976	9249.1519802966
4	143633	27647.722156312789	9242.7935954176
4	143640	27648.874982027543	9241.5177513314
4	143650	27651.83315358956	9241.7590111968
4	143672	27658.383152293317	9247.0105971175
4	143755	27673.413635677658	9260.7248416359
4	143770	27674.571863471538	9260.7418396007
4	143778	27675.656919010839	9258.3771273672
4	143802	27683.71788707041	9260.5732697484
4	144923	27926.261311813504	9496.0359416803
4	144948	27932.490431759112	9499.5069472514
4	144959	27933.473217327235	9499.0828210019
4	144972	27933.943930617604	9499.1736749966
4	144977	27936.993834348035	9501.6428341106
4	144985	27938.360355906447	9501.2844378903
4	145007	27941.384247280069	9503.1553085945
4	145037	27948.300764744173	9500.6804611374
4	145042	27948.33876498906	9500.5822254066
4	145047	27949.420295847347	9499.5688089443
4	145052	27950.353152437533	9497.2514159423
4	145072	27955.095153410498	9500.6130392972
4	145132	27963.581810080563	9505.5506104662
4	145144	27966.684501449478	9506.7368060796
4	145152	27968.591543425985	9496.666596784
4	145250	27989.728702246372	9517.4373184614
4	145257	27991.131756785348	9513.7193252708
4	145272	27993.064601777339	9512.3985728425
4	145284	27994.60249898282	9509.0484500262
4	145291	27996.973913354536	9495.7797562256
4	145303	27998.325148967606	9488.2772364006
4	145311	27999.84375629364	9484.5644028633
4	145337	28003.954290053131	9488.5829609293
4	145353	28005.496529512905	9481.185418471
4	145361	28005.941788701757	9480.0047945396
4	145378	28008.073338762092	9481.8114020285
4	146275	28202.975650985142	9671.6451844328
4	146285	28203.231948865502	9669.8177845372
4	146307	28213.577991310384	9676.9419341382
4	146357	28224.351714459859	9687.0468666233
4	146801	28329.809592087542	9790.8675220937
4	146806	28329.918990965544	9789.9082647966
4	146811	28330.41408220681	9786.3738361039
4	146818	28331.968792042259	9787.7063577764
4	146835	28334.71243010046	9780.5537827753
4	146842	28335.177453643548	9778.9382792934
4	146853	28337.355081341737	9771.5185288464
4	146862	28339.146889251851	9773.0219930952
4	147006	28357.783292776807	9785.8776697787
4	147014	28359.150631211548	9785.9830608628
4	147026	28361.1889049125	9787.1131832598
4	147043	28363.61535467238	9788.5115070662
4	147052	28364.958745658249	9787.0685766985
4	147222	28394.937201017668	9814.4955322554
4	147228	28395.608415122366	9809.9848968782
4	147234	28396.0649534319	9810.3156560262
4	147239	28396.128786229309	9802.4238917313
4	147244	28396.337243902263	9792.0134316764
4	147249	28397.127921268845	9790.8738707633
4	147258	28399.645951350308	9789.7039840685
4	147465	28436.731708101958	9823.8386690912
4	147470	28436.828418941477	9822.6311755455
4	147483	28440.302420207655	9813.7296412345
4	147554	28450.337109321269	9821.4528275723
4	147571	28455.542176814964	9825.0108367011
4	147649	28467.582123915125	9830.117722259
4	147690	28477.711751389685	9837.9902499999
4	147698	28478.426749620405	9830.9016322721
4	147704	28479.062561098167	9830.8381653912
4	147709	28479.49355815412	9827.6289882675
4	147715	28481.241297380345	9824.8877819874
4	147720	28481.361506497332	9823.9723972561
4	147729	28484.449649695488	9825.1612213423
4	147736	28485.25774778841	9819.8882940969
4	147742	28485.310494497374	9819.8200136356
4	147747	28485.657645868198	9819.9064608593
4	147760	28492.393362613706	9821.9292093722
4	148099	28564.121073970239	9891.4623870397
4	148104	28564.5162427575	9887.5303563299
4	148109	28567.455375007064	9888.9827462897
4	148114	28568.672492568213	9887.2943690069
4	148126	28570.974840714332	9882.4908778218
4	148164	28576.868045673965	9885.3802225344
4	148189	28581.950597593299	9888.8739123305
4	148196	28583.255708541436	9889.1508863637
4	148229	28590.64602062517	9894.1397001512
4	148349	28609.973307287283	9913.2525069493
4	148354	28610.015788554465	9912.5194924849
4	148360	28610.623986868465	9895.0782454123
4	148366	28613.274711009605	9894.1777102398
4	148371	28614.21164268195	9873.3140500478
4	148384	28620.474586935714	9872.3019952293
4	148634	28673.638240158719	9924.5781348819
4	148712	28687.56193617484	9933.654014023
4	148720	28688.568848277395	9930.969913958
4	148726	28689.083503237144	9931.0789541853
4	148734	28689.939902885773	9928.2616220156
4	148744	28691.659207523965	9928.4055438324
4	148756	28694.29442619294	9928.264273703
4	148761	28694.350423348302	9925.9810351792
4	148772	28696.431299296336	9927.0433535008
4	148818	28704.060730504522	9932.2747052234
4	148823	28704.063544805287	9927.3639854055
4	148828	28704.107792935777	9927.3372137772
4	148833	28704.92507268454	9914.2674589575
4	148841	28706.7825499816	9915.5344431624
4	148853	28708.007127695657	9916.6036553571
4	148858	28708.176160569835	9913.1344568716
4	148866	28709.472879369335	9910.2598075688
4	148871	28709.56056228185	9910.0078678033
4	148880	28710.840659129927	9905.0053263012
4	148945	28723.513182396582	9917.0397579819
4	149044	28747.066402954902	9935.7680338845
4	149055	28748.265113854342	9936.5874034491
4	149062	28748.580019361869	9936.3466843785
4	149084	28752.070971996012	9938.3328889264
4	149090	28752.709274017283	9938.2158423705
4	149096	28753.531906855945	9928.4516124598
4	149105	28755.696144527649	9929.278569202
4	149132	28762.774785958864	9935.8407119811
4	149403	28816.903273363007	9989.0404570582
4	149410	28817.786577135954	9985.9576950245
4	149418	28818.406760245554	9983.6993768603
4	149425	28819.480683575921	9964.4851970441
4	149441	28821.398044643751	9944.8901667696
4	149473	28824.689316555743	9947.6029568696
4	149480	28826.540095811006	9944.8253706077
4	149492	28829.781840947486	9945.7705905388
4	149509	28834.401094366754	9945.6027158162
4	149558	28843.597770054396	9950.1634456735
4	149563	28843.983404115988	9939.4249214658
4	149577	28848.459670811668	9942.5698500506
4	149593	28849.961629319619	9940.2764501793
4	149598	28850.793445182512	9934.669509848
4	149603	28851.512639985951	9929.6673487472
4	149611	28852.679852128102	9929.3483319798
4	149618	28853.680257801185	9930.3433666614
4	149624	28854.116709284339	9929.0268557285
4	149630	28855.28503625332	9925.7295491063
4	149635	28856.544828412349	9924.8062724782
4	149648	28859.359161196029	9925.2965080034
4	149745	28879.227902628753	9943.88631069
4	149754	28882.129927649687	9945.95220531
4	149764	28882.382569733645	9942.6151845421
4	149770	28884.052566181767	9940.1613779868
4	149775	28884.469768671522	9938.0932826044
4	149782	28889.827368627201	9940.199162293
4	149794	28892.553384212531	9939.5372166408
4	149803	28896.357159958656	9940.3330635383
4	149816	28901.304786527961	9927.6495869515
4	149837	28905.08679607309	9925.8926151603
4	150137	28962.370228023377	9977.5192853825
4	150142	28962.96823859954	9975.4173928163
4	150149	28965.325057505815	9977.200935513
4	150168	28969.447173864877	9970.6184066695
4	150287	28992.546193653989	9989.0888439465
4	150993	29139.095525005819	10128.443984278
4	151027	29143.706639197159	10130.779929519
4	151034	29144.28003039153	10131.312448945
4	151053	29149.545343157815	10135.731451571
4	151241	29190.698533567998	10172.486158255
4	151251	29191.165410087034	10171.198434766
4	151256	29191.869222496781	10171.204526859
4	151265	29194.020983400398	10173.237694156
4	151284	29198.662953528259	10177.089556259
4	151297	29200.39587918628	10177.146314954
4	151308	29202.268683811763	10178.297567108
4	151317	29203.392857909107	10177.633393699
4	151329	29206.500324035267	10171.031022057
4	151338	29208.301769623179	10161.276177081
4	151450	29223.359489939899	10165.529352159
4	151459	29224.847034662907	10159.900456192
4	151464	29225.41605451121	10160.438182666
4	151469	29225.534002635964	10160.091702536
4	151476	29226.376303260092	10160.391506535
4	151482	29227.861171990018	10159.044519191
4	151489	29228.613159186934	10159.667953726
4	151501	29229.791181179079	10159.545762189
4	151506	29229.86032170618	10156.483417494
4	151517	29233.628851657058	10155.221883981
4	151971	29318.096607462709	10237.917922917
4	151980	29319.44250359963	10239.112183062
4	151991	29320.596925448935	10238.734965864
4	152070	29334.051044481394	10251.566062327
4	152109	29342.250557573491	10258.826474445
4	152344	29392.293391956396	10308.097028976
4	152356	29394.623416910613	10294.783026141
4	152382	29397.293564153317	10296.410651334
4	152396	29401.714245362977	10296.03577467
4	152740	29479.13950312476	10366.521195281
4	152745	29480.412737574708	10366.959344385
4	152758	29484.044629510155	10370.235437066
4	152798	29490.133361751794	10372.524580287
4	152804	29490.316373111185	10368.94045187
4	152809	29490.955821951556	10368.535762425
4	152821	29491.833685967651	10357.296076019
4	152853	29499.718156612056	10362.065063444
4	152864	29501.894905498182	10362.934221987
4	152876	29502.94027843937	10356.538170683
4	152906	29509.644805525666	10355.944571388
4	152911	29510.572373077943	10355.720084158
4	152917	29512.037527940545	10352.640776594
4	152922	29512.139473229337	10351.837793526
4	152931	29513.782069382411	10351.467593269
4	152937	29514.611757328709	10348.174740562
4	152942	29514.958820755347	10342.926075014
4	152960	29520.418699000125	10347.75513656
4	153146	29555.42426602894	10379.865226736
4	153151	29555.583584987461	10379.542994439
4	153159	29557.730219592338	10379.957130757
4	153178	29560.730661999674	10375.593661815
4	153183	29560.853698039538	10371.5450662
4	153196	29563.13876821702	10370.918229346
4	153211	29565.788345501263	10367.131615874
4	153223	29569.089444239668	10368.272795518
4	153263	29577.001685212225	10373.579874252
4	153268	29577.917176858298	10373.305954209
4	153273	29578.330973405832	10368.769261841
4	153280	29579.612647193023	10356.940908565
4	153287	29582.897126762381	10358.687801297
4	153341	29593.74778863413	10364.029709251
4	153346	29593.79640317093	10363.205745217
4	153357	29597.504756527003	10366.03806904
4	153420	29611.292487150034	10362.674138193
4	153426	29611.516285177962	10361.41709092
4	153433	29613.178575748598	10361.568378379
4	153446	29615.172098142677	10359.527542408
4	153451	29615.916772341513	10347.190601755
4	153456	29617.367760476461	10347.453438046
4	153461	29617.936095962202	10345.619923347
4	153469	29621.744921247405	10343.763574829
4	153474	29622.150897933198	10341.07512989
4	153483	29625.454145402976	10343.93225859
4	153496	29630.554551624897	10349.025623284
4	153509	29637.579228895271	10353.92453869
4	153528	29640.867682986535	10355.616897849
4	153540	29643.002942411889	10354.38710533
4	153550	29644.335408975984	10348.911307075
4	153770	29686.372149058773	10383.269003562
4	153777	29686.97169868518	10374.121593618
4	153786	29688.685635013383	10375.201049429
4	153812	29690.927901346281	10367.052157154
4	153819	29692.212340839398	10365.96404764
4	153830	29694.05663930668	10362.107271638
4	153858	29696.014712006109	10362.578748323
4	153863	29696.647159848401	10362.09228106
4	153870	29698.347955234956	10357.211715357
4	153876	29699.304539449941	10357.058376985
4	153883	29700.34584506843	10357.890777039
4	153896	29703.024760791762	10353.891112292
4	154129	29750.422438858778	10395.784347409
4	154878	29921.088036340411	10562.927683809
4	154885	29923.103786706158	10562.132930364
4	154901	29926.192341547362	10546.502108929
4	155065	29953.928167813732	10568.989224332
4	155072	29954.62486564007	10567.694003185
4	155080	29956.956294692541	10563.702360073
4	155090	29957.188834384207	10563.186246456
4	155099	29959.609807267122	10561.658298231
4	155106	29960.394229570482	10561.526360938
4	155111	29961.23671599676	10558.786086744
4	155121	29962.552626188543	10559.722225822
4	155134	29963.736246347513	10558.680923694
4	155153	29965.153168530103	10559.89475857
4	155158	29965.655211548693	10558.837911344
4	155179	29971.533457405112	10557.66700788

