version 2
run First-n4-6-20191016-17:03:30-12284
attr configname First-n4
attr datetime 20191016-17:03:30
attr experiment First-n4
attr inifile omnetpp.ini
attr iterationvars ""
attr iterationvarsf ""
attr measurement ""
attr network org.omnetpp.queueing.Pizza
attr processid 12284
attr repetition 6
attr replication ""
attr resultdir results
attr runnumber 6
attr seedset 6
param **.PS.maxInventoriedPS 4
param **.U1.interArrivalTime exponential(2s)
param **.U2.interArrivalTime exponential(4s)
param **.PS.serviceTimeForInventoryU1 exponential(0.8s)
param **.PS.serviceTimeForInventoryU2 exponential(1.0s)
param **.PS.serviceTimeDirectU1 exponential(1.2s)
param **.PS.serviceTimeDirectU2 exponential(1.4s)
param **.PS.probabilityProducing 0.5
param **.CS.serviceTimeU1 exponential(0.8s)
param **.CS.serviceTimeU2 exponential(1.0s)

vector 0 Pizza.EntryQueueU1 queueLength:vector ETV
attr interpolationmode sample-hold
attr title "queue length, vector"
vector 1 Pizza.CS queueLength:vector ETV
attr interpolationmode sample-hold
attr title "queue length, vector"
vector 2 Pizza.EntryQueueU2 queueLength:vector ETV
attr interpolationmode sample-hold
attr title "queue length, vector"
vector 3 Pizza.sink lifeTime:vector ETV
attr interpolationmode none
attr title "lifetime of arrived jobs, vector"
attr unit s
vector 4 Pizza.sink lifeTimeU1:vector ETV
attr interpolationmode none
attr title "lifetime of arrived jobs, vector"
attr unit s
vector 5 Pizza.sink lifeTimeU2:vector ETV
attr interpolationmode none
attr title "lifetime of arrived jobs, vector"
attr unit s
0	0	0	0
0	16	5.4836616119	1
0	17	5.708252767279	0
0	24	6.995394588346	1
0	25	7.593883598229	0
0	58	13.96965334875	1
0	60	14.074043780155	0
0	82	15.138276588077	1
0	83	15.542513953246	0
0	89	15.728667864058	1
0	90	16.619744839937	0
0	94	17.556285045607	1
0	97	19.85667625394	0
0	101	20.083250492847	1
0	105	20.788925509304	0
0	125	24.728247597517	1
0	133	27.363180974985	2
0	134	27.586343147023	1
0	141	28.194789958916	0
0	159	30.257402316141	1
0	163	31.032138520573	0
0	169	31.863966404703	1
0	171	32.48289408477	0
0	209	39.98442434879	1
0	210	40.255227466213	0
0	226	40.921128129567	1
0	228	41.058157988753	2
0	231	41.550825218832	1
0	236	41.589910695346	0
0	240	42.373125049862	1
0	244	43.133530868094	2
0	245	43.722488812863	1
0	252	44.561030387739	0
0	260	44.985539151408	1
0	263	46.424694247517	0
0	336	59.280830365108	1
0	338	59.520466826792	2
0	339	59.763979418747	1
0	345	60.365712253044	2
0	347	60.809329005013	1
0	353	61.198899887902	0
0	377	66.477710861466	1
0	379	67.04194561753	2
0	380	67.107802884866	1
0	386	67.343284370678	0
0	415	74.241731842593	1
0	416	74.393053378122	0
0	442	81.345113079728	1
0	443	81.548160952908	0
0	475	91.047816678364	1
0	476	91.135877227949	0
0	519	96.265427642032	1
0	521	96.826419266417	2
0	525	97.379580975238	3
0	527	97.640682909144	4
0	528	97.924174393383	3
0	535	98.271648568871	4
0	536	98.362001901868	3
0	542	98.487066176473	2
0	548	99.357099018606	3
0	551	100.014937591428	2
0	556	100.20892476017	1
0	561	100.259840921781	0
0	567	100.573564333015	1
0	572	102.642938968743	2
0	573	102.742223418597	1
0	578	103.192810886309	0
0	582	103.417988022461	1
0	584	104.90744166342	2
0	587	105.867364329993	1
0	598	108.239424712025	0
0	602	108.35766876729	1
0	607	111.269260935383	0
0	618	112.041374250875	1
0	622	113.449354909771	2
0	625	114.33359183235	1
0	631	115.68822073212	0
0	649	116.268231905669	1
0	653	117.516471468804	2
0	654	117.861693639505	1
0	661	119.093725281398	0
0	711	124.454149621087	1
0	712	124.504891507928	0
0	718	124.709679142391	1
0	719	124.718436814505	0
0	745	131.232731151818	1
0	746	131.396614160708	0
0	752	131.84352278824	1
0	754	132.430407681737	0
0	767	133.880349463048	1
0	768	134.159445378233	0
0	774	137.075869318751	1
0	776	137.351163922559	2
0	779	137.716272564413	3
0	784	138.914027445393	2
0	789	139.257024151311	1
0	794	139.401478892837	0
0	800	139.979368352753	1
0	802	140.863595205496	2
0	807	141.610208885397	1
0	811	141.700312597646	2
0	813	142.237489910228	3
0	819	146.025105420612	4
0	821	146.046220269972	5
0	823	146.154023424068	6
0	825	147.77450289701	7
0	827	148.316862017075	8
0	830	150.09609285143	7
0	838	152.939942092751	6
0	844	154.359955055509	5
0	850	154.82895382631	4
0	855	154.986780818663	3
0	863	157.497221478792	4
0	867	158.103842051999	5
0	868	158.538701494978	4
0	873	158.903873985428	3
0	877	159.980031566342	4
0	880	160.544822018121	3
0	891	161.507838802896	2
0	897	163.1330259853	1
0	902	163.186806933452	0
0	929	166.65983808739	1
0	932	167.060947378553	0
0	944	169.346727132632	1
0	947	170.069248486771	0
0	961	171.715607200946	1
0	963	171.794456427068	2
0	966	172.285840375354	3
0	968	172.677380611439	4
0	969	172.951156810447	3
0	976	174.417163447285	4
0	978	176.297555617244	3
0	984	179.073571216969	2
0	989	180.07051993837	1
0	995	181.379568782227	0
0	1012	182.607888545638	1
0	1016	183.154505231458	2
0	1017	183.382768093378	1
0	1021	183.710489741448	2
0	1026	184.316636145174	3
0	1028	184.909809849642	4
0	1030	185.08933030335	5
0	1032	186.035217567794	4
0	1038	186.692054777912	3
0	1043	186.763080717915	2
0	1050	190.032014266088	1
0	1056	191.07940419492	0
0	1085	192.912663069729	1
0	1087	193.328758734287	2
0	1089	193.498875055352	3
0	1090	193.766012203384	2
0	1096	194.369471404262	1
0	1101	194.376097516285	0
0	1110	195.621439090554	1
0	1112	196.227240771234	0
0	1118	196.64118106101	1
0	1119	196.952527960693	0
0	1123	196.95873152777	1
0	1128	199.010076299283	0
0	1156	203.288136415081	1
0	1159	204.060174054465	0
0	1181	205.684079888245	1
0	1182	205.925427994675	0
0	1195	211.603618204053	1
0	1196	211.737745818611	0
0	1225	223.238253349537	1
0	1228	224.148699820947	0
0	1246	224.97132728591	1
0	1249	225.14132122276	2
0	1252	225.471200176953	3
0	1254	226.102962193993	2
0	1259	226.267377494953	1
0	1266	227.34763269226	0
0	1279	229.303967764418	1
0	1282	230.600505061342	0
0	1305	236.47178794096	1
0	1308	236.951002108974	2
0	1309	239.564443207573	1
0	1316	240.07516160534	2
0	1317	240.386081156194	1
0	1322	240.844883739411	0
0	1344	246.486636900081	1
0	1345	247.526150368714	0
0	1355	248.457947667647	1
0	1357	248.50427116067	2
0	1358	249.096722261736	1
0	1363	249.19589194325	0
0	1371	250.886486926651	1
0	1372	251.307150989363	0
0	1399	258.923647847745	1
0	1401	259.275792547067	0
0	1409	260.129840468598	1
0	1410	260.140656696979	0
0	1416	260.175441295366	1
0	1418	260.272330413404	2
0	1419	261.117592464974	1
0	1425	261.86158026637	2
0	1427	262.10640509104	3
0	1428	262.489458830207	2
0	1434	263.146109205654	3
0	1438	263.954602604143	4
0	1440	264.242219121236	5
0	1441	264.579964222564	4
0	1446	264.941458132595	3
0	1450	265.166830751059	4
0	1454	265.637993280766	5
0	1455	266.232159936795	4
0	1463	270.059056787661	5
0	1464	270.366707855969	4
0	1469	270.912777031511	3
0	1475	273.225344887127	4
0	1476	273.347016596493	3
0	1481	273.848233238281	2
0	1489	274.980694430278	3
0	1491	275.060282614541	4
0	1492	275.066299830423	3
0	1498	275.656268851787	4
0	1499	275.764744728013	3
0	1504	277.016692511893	2
0	1508	277.08912090365	3
0	1515	277.664390104954	4
0	1516	277.820632274774	3
0	1522	278.551345316638	4
0	1523	278.740428994196	3
0	1530	281.948738002447	2
0	1536	281.98980523415	3
0	1538	282.27921577308	4
0	1541	282.485806107042	5
0	1549	285.072697390904	6
0	1550	285.154900483004	5
0	1556	285.187497822029	6
0	1557	285.548348239162	5
0	1563	285.561689254624	6
0	1565	286.250673010122	5
0	1570	286.656625975593	4
0	1576	288.03662565036	5
0	1578	288.668027127381	6
0	1579	290.428209367838	5
0	1585	291.62380479603	4
0	1590	292.037724916298	3
0	1595	294.287078676489	2
0	1601	295.125452190516	3
0	1603	296.21551441141	4
0	1605	296.220061853098	5
0	1607	298.2313649567	6
0	1610	300.812767482609	5
0	1615	301.28945462724	4
0	1620	302.918901203017	3
0	1625	303.396620699662	2
0	1631	306.577619306076	3
0	1636	306.779871520466	2
0	1640	307.3339782883	3
0	1644	307.841231203505	2
0	1650	307.9798336263	3
0	1652	308.301887125092	4
0	1653	308.549216111112	3
0	1657	308.728750850379	4
0	1660	309.066720100584	3
0	1664	310.038386930602	4
0	1667	311.021860417471	3
0	1672	312.270230744076	2
0	1677	313.33998000567	1
0	1681	313.349579308487	2
0	1684	315.359453824387	1
0	1689	315.965560252912	0
0	1708	317.561394449182	1
0	1711	320.455956336405	0
0	1717	320.607893165482	1
0	1721	320.66622703976	0
0	1737	322.995566450419	1
0	1739	323.651888644601	2
0	1742	323.998666898345	1
0	1747	325.282831557433	0
0	1777	328.319567985101	1
0	1781	329.836658005839	0
0	1788	331.043626492904	1
0	1789	331.293443817123	0
0	1831	336.172470414893	1
0	1833	336.793998245278	0
0	1862	339.545197544304	1
0	1863	339.818191068778	0
0	1878	341.143906866831	1
0	1879	341.351187483239	0
0	1927	353.448364713319	1
0	1928	353.563364124461	0
0	1941	354.287926913518	1
0	1944	354.680516904644	2
0	1945	354.933326464506	1
0	1952	355.898566109996	2
0	1955	357.059198939787	1
0	1961	357.300446282569	2
0	1962	357.568055310049	1
0	1968	357.658502821692	2
0	1969	357.667051812434	1
0	1974	358.579119735702	0
0	2031	377.820870842387	1
0	2033	378.24868299796	2
0	2034	381.608629690903	1
0	2042	382.744813368442	0
0	2048	383.329801650621	1
0	2049	383.481853042652	0
0	2055	384.251345718689	1
0	2057	385.271379125383	2
0	2059	386.257761156205	3
0	2060	387.451215136141	2
0	2065	387.555305718895	1
0	2070	387.652807604761	0
0	2078	389.872339239166	1
0	2079	390.189078394292	0
0	2091	392.232166877935	1
0	2094	392.56473666405	0
0	2100	393.251548119127	1
0	2103	393.940510956066	0
0	2130	396.256490815425	1
0	2132	396.551796173146	0
0	2145	397.411254231043	1
0	2146	397.567796401752	0
0	2178	402.199638001889	1
0	2179	402.25343609242	0
0	2186	404.060562380164	1
0	2187	405.293818162666	0
0	2198	409.491814203873	1
0	2203	411.65213014116	0
0	2207	412.032998003549	1
0	2211	412.297101225366	2
0	2215	413.609183451196	1
0	2220	413.805680039865	0
0	2244	416.511328254394	1
0	2247	417.072856095156	2
0	2248	417.470601008071	1
0	2252	418.950819443024	2
0	2260	420.285549421803	1
0	2265	420.392364098346	0
0	2271	421.779704611878	1
0	2272	422.897381482019	0
0	2296	427.722047748368	1
0	2305	430.406256486761	0
0	2374	438.497172472392	1
0	2380	440.624617756819	0
0	2396	443.324361327077	1
0	2397	443.925229825501	0
0	2403	444.131847681933	1
0	2405	444.533528850594	0
0	2417	445.287315651729	1
0	2418	445.745779597497	0
0	2426	446.345369601259	1
0	2428	447.337434057184	0
0	2467	455.34121665734	1
0	2468	456.576759236381	0
0	2484	459.466008161483	1
0	2485	459.493278517773	0
0	2518	469.169386244383	1
0	2519	469.553022629566	0
0	2525	471.604895239219	1
0	2526	471.757317494155	0
0	2566	479.175597844051	1
0	2567	479.648787507952	0
0	2573	481.492701647823	1
0	2576	481.818635034087	0
0	2614	489.333203033941	1
0	2622	491.941251120439	0
0	2648	493.398140064124	1
0	2654	494.752259370266	0
0	2660	495.055245528398	1
0	2661	495.137796629147	0
0	2679	495.625009757703	1
0	2680	495.994280351388	0
0	2689	496.266433308297	1
0	2691	497.308581674578	2
0	2695	499.217509531155	1
0	2702	499.409645051875	0
0	2715	503.038511525116	1
0	2717	503.208870978472	2
0	2718	503.232264633259	1
0	2724	503.786652754535	2
0	2725	505.004122527885	1
0	2730	505.145021940957	0
0	2736	505.263421893276	1
0	2738	505.629310730784	0
0	2745	506.140107761638	1
0	2746	507.18691440451	0
0	2755	507.709521177798	1
0	2756	508.195416805527	0
0	2776	511.849111032476	1
0	2780	514.03359825196	2
0	2781	514.705630540496	1
0	2788	515.239784701341	2
0	2789	516.403747375652	1
0	2794	517.268718416477	0
0	2803	518.259902716267	1
0	2809	519.134360596003	2
0	2811	519.872664172635	1
0	2816	520.295079012982	0
0	2823	520.420730309848	1
0	2824	520.756197514883	0
0	2828	520.788215136976	1
0	2830	520.931357286813	2
0	2832	521.654968470977	3
0	2835	523.502257543764	2
0	2841	524.236813768073	1
0	2849	525.633160710315	2
0	2850	525.945598556271	1
0	2856	526.728618950815	0
0	2878	529.968209904282	1
0	2881	531.330733199926	0
0	2892	532.396086435528	1
0	2896	533.183085914815	0
0	2909	537.274827625076	1
0	2910	537.454863921182	0
0	2914	538.037216238305	1
0	2917	539.984079739494	0
0	2925	541.441228901604	1
0	2934	543.130712406169	2
0	2935	543.459992775675	1
0	2941	543.639073793583	0
0	2964	545.770562010642	1
0	2967	546.366685413522	2
0	2968	546.893663828381	1
0	2973	547.256660633387	0
0	2979	547.421864848205	1
0	2982	547.881021220673	0
0	2986	548.028903322266	1
0	2992	548.777764085654	2
0	2997	550.360019558148	3
0	2998	550.510491973421	2
0	3002	550.61240956699	3
0	3005	551.267663220452	2
0	3011	554.551323840098	1
0	3015	554.654206036096	2
0	3019	555.409069499957	3
0	3022	555.519669118892	4
0	3024	555.951345658299	5
0	3026	557.151002061753	6
0	3027	557.848172169377	5
0	3037	559.399194484266	6
0	3038	559.664196220333	5
0	3043	560.741733612972	4
0	3049	562.235732830476	5
0	3051	562.647364537754	6
0	3056	564.920729130952	5
0	3060	566.207889136722	6
0	3064	567.815192272526	5
0	3070	568.519563871966	4
0	3076	570.205669259792	3
0	3083	570.509679304169	4
0	3086	571.878117121958	5
0	3087	571.887687536938	4
0	3092	572.752877799908	3
0	3099	573.259430255971	4
0	3100	573.559989679576	3
0	3108	575.571155974108	4
0	3112	577.166843498486	5
0	3114	577.680238656923	6
0	3117	577.913821837981	5
0	3122	579.879345091291	4
0	3126	580.137801167598	5
0	3129	582.027015663015	4
0	3139	584.681864332942	5
0	3140	584.856767263533	4
0	3144	585.654846485829	5
0	3151	587.093872450888	6
0	3153	587.520773069381	7
0	3155	588.069764399452	8
0	3157	588.391370334485	9
0	3159	588.468314721023	10
0	3160	589.023957825047	9
0	3169	589.312194402555	10
0	3171	589.463364016951	11
0	3172	589.648981800771	10
0	3178	589.901369326522	11
0	3179	590.16537329644	10
0	3186	592.11262829615	9
0	3191	594.444686655562	8
0	3197	596.078590152561	9
0	3198	596.139057618574	8
0	3202	598.408643780771	9
0	3208	600.265469719947	10
0	3209	600.459413992828	9
0	3215	601.406099541423	8
0	3222	602.040278880299	7
0	3227	602.1291439494	6
0	3233	602.881012643759	7
0	3235	603.500954540847	6
0	3240	603.726060536951	5
0	3244	604.258133623428	6
0	3247	604.919515006222	5
0	3251	605.306446546752	6
0	3253	605.790826859256	7
0	3257	606.117412301499	8
0	3258	607.244726553486	7
0	3264	609.053605324834	8
0	3267	609.923923792289	7
0	3272	611.603852954119	6
0	3279	616.158153436229	5
0	3284	616.4795236581	4
0	3288	616.654204810778	5
0	3291	617.770544208716	4
0	3298	620.756790827701	3
0	3302	622.44870810345	4
0	3304	624.092621116775	5
0	3307	625.36125009557	4
0	3316	627.454375610165	3
0	3320	627.863598031969	4
0	3325	628.808411461541	5
0	3327	628.84805387325	6
0	3329	628.994525617043	7
0	3330	629.100682652467	6
0	3336	629.26869263034	7
0	3337	629.415766045601	6
0	3342	631.725100591476	5
0	3346	632.359104369814	6
0	3350	633.350065831256	7
0	3354	633.812093627274	8
0	3355	634.518584761501	7
0	3360	634.699806285753	6
0	3365	637.128519751637	5
0	3369	638.626523040227	6
0	3372	639.642619433158	5
0	3378	640.657165478132	6
0	3383	641.904339698985	5
0	3387	642.445495394459	6
0	3392	643.036364625527	5
0	3396	643.128683888496	6
0	3402	644.625233856071	7
0	3404	646.300217800895	8
0	3406	647.594092134334	7
0	3412	648.365917467009	8
0	3414	648.572348012849	9
0	3415	649.354165327564	8
0	3421	649.457137621189	9
0	3422	650.140074928551	8
0	3428	650.444681114592	7
0	3433	650.573561413258	6
0	3437	650.804941498155	7
0	3442	652.749534668308	6
0	3448	654.739631494888	5
0	3453	655.166394703001	4
0	3458	656.757208268383	3
0	3463	657.518721318691	2
0	3470	658.772832828545	1
0	3476	660.986400867667	2
0	3479	662.453925544762	1
0	3484	662.887214838878	0
0	3495	663.249691870609	1
0	3497	664.211684741216	0
0	3503	665.24685729228	1
0	3504	665.420520753598	0
0	3508	666.094706073551	1
0	3513	668.61771007979	0
0	3526	668.714075431744	1
0	3528	668.956481290891	0
0	3534	669.196732291179	1
0	3538	670.000019870647	2
0	3539	670.080841998791	1
0	3546	670.674406608698	2
0	3547	670.966234198253	1
0	3552	671.459953409325	0
0	3597	676.949913675481	1
0	3598	677.188030516715	0
0	3614	678.32249868604	1
0	3616	679.245704401917	0
0	3629	680.598163058193	1
0	3634	681.234634779484	2
0	3637	681.357262705492	3
0	3638	681.583099308463	2
0	3643	681.973058311021	1
0	3648	682.293535185873	0
0	3685	691.243120780723	1
0	3688	692.50413893262	0
0	3700	693.140437433544	1
0	3701	693.245195935056	0
0	3711	695.667475475536	1
0	3716	698.005414182322	2
0	3717	698.898960891631	1
0	3722	699.469644616959	0
0	3736	701.472612904845	1
0	3740	702.408956804367	2
0	3741	702.474681150083	1
0	3746	702.501927780737	0
0	3763	705.715081681865	1
0	3768	708.360177624713	0
0	3780	709.224026219026	1
0	3783	709.94160041137	0
0	3791	711.222355392978	1
0	3794	711.509250043772	0
0	3812	713.512861565458	1
0	3813	713.883368464664	0
0	3843	719.650017697782	1
0	3845	720.989433312677	2
0	3849	721.861302831579	3
0	3852	723.623216429323	2
0	3857	724.109150808611	1
0	3862	724.552309414144	0
0	3870	725.455067893323	1
0	3872	725.601806922492	2
0	3875	726.88504705106	1
0	3880	727.247855611338	0
0	3893	727.671554679035	1
0	3895	727.799969067186	2
0	3896	728.431320804902	1
0	3901	728.641743713285	0
0	3905	728.64307337265	1
0	3909	729.421866979739	2
0	3910	729.60849818241	1
0	3914	730.385320280095	2
0	3919	732.507267915423	1
0	3924	732.793907325831	0
0	3930	734.316954116633	1
0	3934	734.837942875994	2
0	3935	735.442985550543	1
0	3940	736.337174527598	0
0	3952	737.636266870162	1
0	3955	738.151761127652	0
0	3976	739.329377556394	1
0	3979	740.082921583413	0
0	3985	740.152042491858	1
0	3987	740.376352147099	2
0	3988	740.566193544337	1
0	3993	741.431303137552	0
0	3999	741.686519064948	1
0	4000	741.833900918334	0
0	4011	742.602874691884	1
0	4013	743.224134801162	2
0	4014	743.258661797861	1
0	4018	743.560025350437	2
0	4020	743.665713901799	3
0	4023	744.588763431435	2
0	4030	745.611998191233	1
0	4037	746.210160578125	0
0	4063	751.99573691892	1
0	4064	752.58654819795	0
0	4079	753.466394344377	1
0	4080	753.698717353265	0
0	4107	755.38899455017	1
0	4109	755.540623224037	2
0	4110	756.234817875741	1
0	4115	756.276253702897	0
0	4133	759.669422030778	1
0	4135	759.887594588319	0
0	4141	759.961358610895	1
0	4142	760.096948025252	0
0	4154	761.486888547305	1
0	4156	763.712333149483	0
0	4168	767.967475356216	1
0	4172	769.049308968702	2
0	4174	769.474101241789	1
0	4180	770.533207450241	2
0	4181	770.792006756839	1
0	4186	770.864029188133	0
0	4202	772.316965873642	1
0	4205	773.506653951535	0
0	4218	776.549332169594	1
0	4222	778.865517189807	0
0	4260	791.824415310171	1
0	4262	793.644074613521	0
0	4278	795.215028837584	1
0	4280	795.239330928618	2
0	4282	795.291912091913	3
0	4283	795.39385356671	2
0	4288	796.635979033837	1
0	4293	796.715146182503	0
0	4316	802.142462475468	1
0	4317	802.959048280141	0
0	4390	818.980182714257	1
0	4394	820.850481836048	0
0	4400	821.002894927929	1
0	4401	822.698670580971	0
0	4439	828.063678568981	1
0	4444	828.833726763865	0
0	4463	829.634458510465	1
0	4465	829.719973809756	2
0	4466	829.748401039968	1
0	4472	829.996872099872	0
0	4488	831.751643690956	1
0	4489	832.369499419785	0
0	4570	847.489335346403	1
0	4571	847.587649898405	0
0	4584	852.278098620391	1
0	4585	852.375793183233	0
0	4612	858.496752871249	1
0	4615	861.076687452443	0
0	4636	864.040923289143	1
0	4640	864.453975228366	0
0	4652	865.677809469765	1
0	4656	868.515941487406	2
0	4660	868.945352750315	1
0	4668	869.791093117756	0
0	4693	871.107180934067	1
0	4695	871.16632162101	2
0	4697	871.345202517094	3
0	4698	872.303141775816	2
0	4707	873.641954751035	1
0	4712	873.785345527683	0
0	4725	874.675356646172	1
0	4726	874.708433516571	0
0	4790	894.520061618589	1
0	4791	895.881687000174	0
0	4798	896.67798373262	1
0	4799	896.823675892053	0
0	4815	901.375780629854	1
0	4816	901.792236396312	0
0	4829	904.143040322417	1
0	4831	905.129192946148	0
0	4869	909.50606573411	1
0	4873	910.137639165064	0
0	4911	917.346476368346	1
0	4915	920.093589519604	2
0	4917	921.075927598725	3
0	4919	921.778952974167	4
0	4920	923.138360351318	3
0	4926	923.46771361284	4
0	4927	923.899499536868	3
0	4933	924.307743032706	4
0	4934	924.611206832421	3
0	4939	925.543271526238	2
0	4943	926.113985734783	3
0	4946	928.976760093794	2
0	4950	929.947065914098	3
0	4954	933.668752825873	4
0	4955	933.885850350927	3
0	4960	934.519767517954	2
0	4965	936.959459445951	1
0	4969	938.421793208479	2
0	4972	939.712593983857	1
0	4977	941.15500132468	0
0	4981	941.397254361979	1
0	4983	941.399714391269	2
0	4986	943.356518691982	1
0	4992	944.077772366637	2
0	4997	946.798441614732	1
0	5002	947.535925407683	0
0	5006	947.657175872177	1
0	5009	948.111822324613	0
0	5013	948.521662290096	1
0	5015	948.903652921045	2
0	5017	948.964007482941	3
0	5019	949.098291296566	4
0	5023	950.893264309089	5
0	5024	950.93589162388	4
0	5032	951.298935870013	5
0	5035	951.987597556444	4
0	5040	953.360020235231	3
0	5044	954.641152645096	4
0	5049	957.672706163952	3
0	5055	958.631803678311	4
0	5056	958.930893218565	3
0	5062	960.021098122667	4
0	5063	961.02401387195	3
0	5069	961.534358345495	4
0	5070	961.607402385127	3
0	5076	962.71910383959	4
0	5077	962.77035228898	3
0	5085	963.785763550774	2
0	5093	964.30800637223	1
0	5099	964.449956177052	2
0	5101	965.412320402617	3
0	5102	965.601187274624	2
0	5106	966.994731734274	3
0	5109	968.474048834366	2
0	5114	970.308597207023	1
0	5118	971.287423540745	2
0	5120	972.270874662598	3
0	5123	973.110841974613	2
0	5128	975.726959855062	1
0	5136	978.057293513752	0
0	5158	981.497018614148	1
0	5164	984.818819211999	0
0	5170	984.919376915253	1
0	5172	986.664771364323	0
0	5198	990.845701524048	1
0	5200	991.007429784385	2
0	5203	991.66811083839	1
0	5211	993.647259165751	0
0	5227	996.193550614439	1
0	5229	996.865417672132	2
0	5230	998.282520760802	1
0	5235	998.503829073878	0
0	5255	999.90899552341	1
0	5256	1000.321324425849	0
0	5269	1001.662445310406	1
0	5270	1001.931709412397	0
0	5281	1003.21719885848	1
0	5284	1003.675044420083	2
0	5286	1003.984385501075	1
0	5291	1004.350164058681	0
0	5297	1004.401673632904	1
0	5298	1004.413292269043	0
0	5330	1009.365642900771	1
0	5333	1010.018773725437	2
0	5337	1010.901540048049	3
0	5338	1011.041297040821	2
0	5343	1011.273864918115	1
0	5352	1011.860819240495	0
0	5358	1012.440853138913	1
0	5360	1012.532668892065	2
0	5362	1013.2913717148	1
0	5368	1013.485721782522	2
0	5371	1014.118478089559	1
0	5377	1015.499907213429	0
0	5384	1016.638713709425	1
0	5385	1017.330686589417	0
0	5392	1019.038069700754	1
0	5394	1019.70029451104	0
0	5412	1021.781538862731	1
0	5413	1021.871273906766	0
0	5427	1024.499090234369	1
0	5429	1024.796745508991	0
0	5459	1027.445506725312	1
0	5460	1027.465901619297	0
0	5499	1036.4325909348	1
0	5500	1037.257229181011	0
0	5506	1037.324249072854	1
0	5508	1037.448363714354	2
0	5509	1038.140285010341	1
0	5517	1039.761634216142	0
0	5525	1040.521889320723	1
0	5526	1040.594530957888	0
0	5547	1044.215794192575	1
0	5549	1046.527276247688	0
0	5562	1047.412683985188	1
0	5568	1048.913339156673	2
0	5569	1049.858930013882	1
0	5576	1050.616936727081	2
0	5577	1050.655947616124	1
0	5584	1052.730402832974	2
0	5585	1052.950442536237	1
0	5591	1053.106168158153	2
0	5593	1053.582912065185	3
0	5594	1053.668643822153	2
0	5603	1054.648170040509	1
0	5608	1054.819770282892	0
0	5626	1056.614490242589	1
0	5627	1057.619588292285	0
0	5714	1078.994952898737	1
0	5716	1079.553449084801	0
0	5722	1079.566337641668	1
0	5724	1080.198115480986	2
0	5726	1081.280179625056	3
0	5728	1081.629283989226	4
0	5729	1082.870057569121	3
0	5734	1082.979807058484	2
0	5739	1083.906373291039	1
0	5745	1084.272221596925	2
0	5746	1085.044915414868	1
0	5750	1085.160228417785	2
0	5753	1086.34135160121	1
0	5758	1087.382368858557	0
0	5776	1091.620480673357	1
0	5778	1093.310769291123	2
0	5780	1093.82203907628	3
0	5783	1095.745523662075	2
0	5788	1096.9078169482	1
0	5793	1097.617355296823	0
0	5799	1098.592487740094	1
0	5805	1099.498018734677	2
0	5811	1100.23253678481	3
0	5812	1100.491923007207	2
0	5821	1102.101689824115	1
0	5826	1102.423221447169	0
0	5837	1103.934056960764	1
0	5839	1104.003207173341	0
0	5845	1105.257700173482	1
0	5846	1106.027427683616	0
0	5850	1106.693562231475	1
0	5853	1107.960152888355	0
0	5859	1108.869934253073	1
0	5860	1108.917974928841	0
0	5883	1111.349592750814	1
0	5886	1111.799888678784	2
0	5889	1112.060501630145	3
0	5890	1112.144898859088	2
0	5898	1113.55745930159	1
0	5904	1113.989168619885	2
0	5905	1114.103383717238	1
0	5910	1114.734547065788	0
0	5914	1114.960986838306	1
0	5916	1115.301596606519	2
0	5918	1115.360101466356	3
0	5920	1115.399327895773	4
0	5923	1116.337935984625	3
0	5931	1118.383466753695	2
0	5936	1118.910458072518	1
0	5942	1120.491634459408	0
0	5959	1121.234325700945	1
0	5962	1121.695756009872	0
0	5994	1124.871041350392	1
0	6001	1126.851727254421	0
0	6017	1128.798637742836	1
0	6018	1129.340595433281	0
0	6032	1130.283675614023	1
0	6034	1131.620054150772	0
0	6050	1133.412149415978	1
0	6053	1133.817009440699	2
0	6054	1134.378371787731	1
0	6062	1135.235673836533	0
0	6075	1136.372921297115	1
0	6076	1136.87262052482	0
0	6088	1137.634395663109	1
0	6089	1137.799744112023	0
0	6128	1144.397592417447	1
0	6129	1144.468405971279	0
0	6206	1154.207339308598	1
0	6207	1154.343022082218	0
0	6213	1155.228765628455	1
0	6215	1155.59359630393	2
0	6218	1157.535419122886	1
0	6223	1158.007020289851	0
0	6248	1159.101959368904	1
0	6252	1160.279019975066	2
0	6255	1161.148952902285	1
0	6260	1161.397374647327	0
0	6271	1161.951179469945	1
0	6272	1162.018566446941	0
0	6278	1162.785937092777	1
0	6279	1162.812225362182	0
0	6285	1162.920362076007	1
0	6286	1163.036868109541	0
0	6292	1163.741338728085	1
0	6293	1163.772241433561	0
0	6351	1175.598038890302	1
0	6352	1176.228635684468	0
0	6356	1176.313138819002	1
0	6359	1176.935029511125	0
0	6413	1191.104854576367	1
0	6416	1193.488655467235	0
0	6465	1200.119211015312	1
0	6466	1200.859252565714	0
0	6493	1204.815908562774	1
0	6495	1205.196287576968	2
0	6501	1207.124547695034	3
0	6503	1208.393029407272	4
0	6510	1209.337460827275	3
0	6517	1210.699084264869	2
0	6523	1210.778078032654	3
0	6529	1211.716507095058	2
0	6535	1213.560639154999	1
0	6540	1216.720414421837	0
0	6555	1217.373581900387	1
0	6557	1217.737525623057	2
0	6558	1218.107745341668	1
0	6568	1220.097256914963	2
0	6569	1220.566480838866	1
0	6573	1222.293075209173	2
0	6580	1223.1853975112	1
0	6589	1225.543180743102	0
0	6595	1225.825806969521	1
0	6596	1226.462693532918	0
0	6627	1231.847468652873	1
0	6629	1231.898899949755	2
0	6630	1232.013718382911	1
0	6637	1232.033159694421	0
0	6659	1233.662449155794	1
0	6661	1234.219770351265	0
0	6701	1237.875073325461	1
0	6703	1238.36771875745	2
0	6706	1238.889961836771	1
0	6711	1239.009669541596	0
0	6723	1239.827706717662	1
0	6725	1240.531419351566	2
0	6731	1241.039800564571	3
0	6735	1241.511965544711	4
0	6736	1241.512929037067	3
0	6742	1241.652588446571	4
0	6743	1242.234167744227	3
0	6749	1242.289714107762	4
0	6751	1242.538978496921	5
0	6752	1242.731543687247	4
0	6759	1243.372679472851	5
0	6760	1243.428610431717	4
0	6765	1243.959944450071	3
0	6770	1245.228988830406	2
0	6774	1245.284344986977	3
0	6781	1247.308597698684	4
0	6787	1248.065364647917	3
0	6792	1248.363116280425	2
0	6798	1248.53111231772	1
0	6804	1248.657810212495	2
0	6809	1250.308693401213	3
0	6810	1250.33272416352	2
0	6816	1250.661797788519	1
0	6821	1251.864294380994	0
0	6825	1252.786667745783	1
0	6831	1254.389160946724	2
0	6832	1254.429666003066	1
0	6838	1255.69740841738	0
0	6865	1257.982585512032	1
0	6866	1258.207951273055	0
0	6892	1260.143207154677	1
0	6897	1263.658773474002	0
0	6903	1263.731366339366	1
0	6904	1263.838337923232	0
0	6917	1265.025284676156	1
0	6919	1265.595748378841	2
0	6920	1265.710403905554	1
0	6926	1266.009820645081	2
0	6929	1266.272756059863	1
0	6933	1266.673266625045	2
0	6937	1267.712160198131	3
0	6938	1268.465392432303	2
0	6946	1270.421239972443	1
0	6952	1272.115435970752	2
0	6953	1272.384718516049	1
0	6957	1273.682733026433	2
0	6961	1275.453891942052	3
0	6968	1275.965934119476	4
0	6969	1276.824602391699	3
0	6975	1277.686179762203	2
0	6979	1278.446591183584	3
0	6984	1279.778207677784	2
0	6988	1280.110313203957	3
0	6997	1282.136464904576	4
0	7000	1283.398008405316	5
0	7001	1283.559992591464	4
0	7006	1286.039333681531	3
0	7013	1287.358215908617	4
0	7014	1287.89226382284	3
0	7019	1288.301930408296	2
0	7023	1288.661834896971	3
0	7025	1288.706708960551	4
0	7028	1289.595825379961	3
0	7033	1291.227064867175	2
0	7042	1292.575486265461	1
0	7049	1292.973556349626	0
0	7057	1293.382001329572	1
0	7058	1293.725424444827	0
0	7062	1294.341961738748	1
0	7066	1294.6316007915	2
0	7068	1295.138197476251	3
0	7069	1295.53319877215	2
0	7074	1295.947333433996	1
0	7082	1298.38576032825	2
0	7083	1298.571824876772	1
0	7087	1298.713222008742	2
0	7090	1299.664969182261	1
0	7094	1301.226145664571	2
0	7096	1301.602855188317	3
0	7100	1304.396567203974	4
0	7101	1304.694586562852	3
0	7108	1305.844360281971	2
0	7113	1306.258606510223	1
0	7118	1306.544872310388	0
0	7146	1308.985653270738	1
0	7147	1311.060098874431	0
0	7171	1314.270905543649	1
0	7174	1314.58448206507	0
0	7183	1317.338025529433	1
0	7185	1318.187698941538	2
0	7187	1318.978425018087	3
0	7191	1320.039986765291	2
0	7201	1321.688303724279	3
0	7203	1322.135871824691	4
0	7208	1323.610099746703	3
0	7213	1323.767516726384	2
0	7218	1324.448306208508	1
0	7223	1324.54681277785	0
0	7264	1332.967762369546	1
0	7267	1333.103525200792	2
0	7269	1334.022664816627	3
0	7271	1334.062776331767	4
0	7272	1334.170227225135	3
0	7283	1335.516986034015	2
0	7288	1336.801946167268	1
0	7296	1337.665277008003	2
0	7299	1338.404082383492	1
0	7305	1338.410432158205	2
0	7307	1338.821003576219	3
0	7310	1341.192877413327	2
0	7315	1342.432234912951	1
0	7322	1344.602094981493	2
0	7326	1345.282547727323	3
0	7328	1345.888725901791	2
0	7338	1346.819483346247	1
0	7343	1347.547464877107	0
0	7414	1357.142172953587	1
0	7416	1357.534893941314	2
0	7417	1358.09558976913	1
0	7423	1358.507704521245	0
0	7439	1359.485042627967	1
0	7441	1359.84218110281	2
0	7442	1360.739189620469	1
0	7447	1360.942570940849	0
0	7456	1361.87059774173	1
0	7460	1363.163914790874	2
0	7464	1364.520137533779	1
0	7471	1365.671330422595	0
0	7477	1366.696814024349	1
0	7483	1367.332222370206	2
0	7485	1367.749858282215	3
0	7488	1368.664990434165	2
0	7495	1370.392925060803	1
0	7500	1370.763258107317	0
0	7514	1372.094804276309	1
0	7515	1372.716252796541	0
0	7527	1374.308034585428	1
0	7530	1375.448374205181	0
0	7539	1375.92465201658	1
0	7541	1376.39810095306	0
0	7580	1381.132758762247	1
0	7581	1381.303000274842	0
0	7594	1382.834459453928	1
0	7597	1383.321318887686	0
0	7610	1384.512300059903	1
0	7613	1385.240473349568	0
0	7625	1387.056128543119	1
0	7628	1388.166524841957	0
0	7644	1391.596901733186	1
0	7646	1391.694039819581	2
0	7648	1391.956738271454	3
0	7650	1393.032014491139	2
0	7656	1394.14347113743	1
0	7661	1394.238598335498	0
0	7677	1395.563393603126	1
0	7679	1396.289728108025	2
0	7683	1397.428485118807	1
0	7689	1397.896609098128	0
0	7695	1398.86916168561	1
0	7696	1399.301541447122	0
0	7709	1399.94242708882	1
0	7711	1400.807238615079	0
0	7720	1402.381788654422	1
0	7721	1402.503340178678	0
0	7742	1409.937130028122	1
0	7745	1411.109054563432	2
0	7748	1411.453579692971	1
0	7754	1412.43151116106	0
0	7786	1418.788203519023	1
0	7792	1421.320768021386	0
0	7798	1421.597094417044	1
0	7799	1422.349875097035	0
0	7835	1427.21715729139	1
0	7838	1428.854898466202	0
0	7936	1454.033097765667	1
0	7943	1454.703536747333	2
0	7946	1455.450956358342	1
0	7951	1456.681469947541	0
0	7975	1458.355140320214	1
0	7976	1459.08762197904	0
0	7982	1459.204472442051	1
0	7983	1459.5952401197	0
0	8002	1462.876409611715	1
0	8003	1463.316771530253	0
0	8067	1487.390076314932	1
0	8069	1487.97083415345	0
0	8082	1488.677522975769	1
0	8085	1490.303292142422	0
0	8099	1491.387761093952	1
0	8102	1491.802170799846	0
0	8120	1493.62792157474	1
0	8123	1495.247082366088	0
0	8135	1495.950976885529	1
0	8138	1496.408428730163	2
0	8140	1496.965927224869	1
0	8147	1497.05199340785	2
0	8148	1497.81758791608	1
0	8153	1498.078623507649	0
0	8159	1498.121376519485	1
0	8161	1499.47650214629	2
0	8164	1500.805089896973	1
0	8169	1502.522936535572	0
0	8173	1502.754073583702	1
0	8178	1504.45901967278	0
0	8182	1504.613541145795	1
0	8184	1507.650276458194	2
0	8187	1507.92186269394	1
0	8199	1510.992215792598	2
0	8202	1511.094657666539	1
0	8208	1511.581204626561	0
0	8236	1515.30096045119	1
0	8243	1518.575621522178	2
0	8244	1518.821994482515	1
0	8250	1519.061526857638	0
0	8292	1524.162480297722	1
0	8294	1524.306068057689	0
0	8300	1524.666079604028	1
0	8302	1525.058424132303	2
0	8303	1525.334498474964	1
0	8308	1525.519899359136	0
0	8324	1526.883294867676	1
0	8327	1527.911823649128	0
0	8377	1543.503738142286	1
0	8386	1545.956578262732	0
0	8423	1552.829806120137	1
0	8427	1553.104012863342	0
0	8475	1563.015773293447	1
0	8481	1564.942858383087	2
0	8482	1567.027670393271	1
0	8488	1567.620823562845	0
0	8494	1568.187160624268	1
0	8497	1568.405703872434	2
0	8499	1569.476646032857	3
0	8500	1569.758482074996	2
0	8507	1570.982980544358	3
0	8509	1571.20938745063	4
0	8511	1571.553948272133	5
0	8512	1572.091793620845	4
0	8517	1573.150395001636	3
0	8522	1573.196161647888	2
0	8528	1573.199720325823	3
0	8529	1573.309731202162	2
0	8534	1574.065130641607	1
0	8539	1576.821401323769	0
0	8550	1579.302404906353	1
0	8554	1580.197934993967	0
0	8562	1580.892489875777	1
0	8564	1581.087796820254	2
0	8566	1581.280433864242	3
0	8567	1581.332114839454	2
0	8572	1581.896819330334	1
0	8577	1582.094516405786	0
0	8585	1582.737415177171	1
0	8586	1583.048024753336	0
0	8602	1584.428031886196	1
0	8603	1584.683201096477	0
0	8624	1594.506134239428	1
0	8629	1595.366567189123	0
0	8640	1596.066508256098	1
0	8641	1596.413277523399	0
0	8653	1597.651614749233	1
0	8655	1598.559726860607	2
0	8657	1598.599898021933	3
0	8659	1599.612161108088	4
0	8661	1599.636098247406	5
0	8663	1602.070691117396	6
0	8665	1602.196593754637	7
0	8669	1604.492853491613	8
0	8671	1605.577540077546	9
0	8674	1606.08840406905	8
0	8682	1609.581238838036	9
0	8683	1609.603109913219	8
0	8689	1610.079222843158	9
0	8693	1611.553100052202	8
0	8698	1611.676125260707	7
0	8703	1611.965342667389	6
0	8707	1612.770843601308	7
0	8709	1612.781877565708	8
0	8711	1614.469059875991	9
0	8714	1615.793125929302	8
0	8721	1616.694158697855	9
0	8722	1616.988854085909	8
0	8728	1618.34904260128	7
0	8737	1619.797319369118	8
0	8739	1621.300249427792	9
0	8741	1621.303452756986	10
0	8742	1621.861379226964	9
0	8747	1623.151583084221	8
0	8756	1624.390293106967	7
0	8762	1624.894987953348	6
0	8768	1626.052574719028	5
0	8773	1626.268872048033	4
0	8781	1627.492473928848	5
0	8784	1627.746737331011	4
0	8796	1630.632472913376	5
0	8797	1630.844901591926	4
0	8805	1632.621905113827	3
0	8811	1632.992082243943	2
0	8819	1635.181654108204	1
0	8827	1637.641946331632	2
0	8828	1637.907548527478	1
0	8833	1638.097939728524	0
0	8871	1645.272309526312	1
0	8874	1647.309766868629	0
0	8892	1648.483526843589	1
0	8893	1648.918353741854	0
0	8903	1650.168904354778	1
0	8905	1650.186868617564	2
0	8909	1651.37927599785	3
0	8910	1651.409863075632	2
0	8916	1652.100180397213	3
0	8918	1652.497637203285	2
0	8923	1652.707082685198	1
0	8930	1653.325260563059	2
0	8936	1655.347582782201	1
0	8943	1656.7098175358	0
0	8988	1660.480794320931	1
0	8993	1661.055002217319	2
0	8995	1661.305144756105	3
0	8997	1661.415236511213	4
0	9000	1661.56934804315	3
0	9006	1662.128363051272	4
0	9007	1662.587829998322	3
0	9015	1663.267397967077	4
0	9016	1663.725496126391	3
0	9021	1663.896541124806	2
0	9028	1664.496109259987	1
0	9033	1664.617431111761	0
0	9052	1668.161916096939	1
0	9065	1671.058715024036	0
0	9087	1675.537542992287	1
0	9089	1675.782244525566	2
0	9093	1676.90651605996	1
0	9099	1676.989109999598	2
0	9101	1677.039161441452	3
0	9102	1677.850792341986	2
0	9107	1678.054789117196	1
0	9112	1678.071739484975	0
0	9128	1678.88224776153	1
0	9131	1679.655229302486	0
0	9137	1680.370488310686	1
0	9139	1680.409284194376	2
0	9141	1680.528256058219	3
0	9142	1680.560281568135	2
0	9148	1682.14009121645	3
0	9150	1682.358524397002	4
0	9156	1684.247693004276	3
0	9162	1684.539338628579	2
0	9171	1685.633041779818	1
0	9176	1685.941554109054	0
0	9189	1686.810012037293	1
0	9194	1687.593987447564	0
0	9208	1688.940344322222	1
0	9213	1691.521967876956	0
0	9224	1692.381150176524	1
0	9227	1693.107318007184	0
0	9233	1693.461487599473	1
0	9234	1693.630406321316	0
0	9256	1694.859056223427	1
0	9258	1695.710965659362	2
0	9261	1696.406141177	1
0	9268	1697.07595487031	2
0	9269	1697.311124114552	1
0	9275	1697.746160796961	2
0	9276	1697.967330552275	1
0	9284	1700.651074999736	0
0	9297	1701.307436344748	1
0	9299	1701.496919960694	0
0	9305	1702.545578613191	1
0	9307	1703.458315263876	0
0	9314	1703.754721672659	1
0	9316	1704.006564422878	2
0	9320	1705.389900447947	1
0	9325	1705.747403002842	0
0	9331	1706.086736004791	1
0	9332	1706.402480621638	0
0	9346	1708.245600798541	1
0	9347	1708.318978752204	0
0	9365	1709.699808313428	1
0	9366	1710.466369936221	0
0	9373	1710.858484329914	1
0	9375	1710.902963182344	2
0	9376	1710.96266741207	1
0	9382	1711.607901748678	2
0	9384	1711.912929377484	1
0	9389	1712.40561294709	0
0	9395	1712.415002479956	1
0	9397	1712.496017268752	0
0	9419	1714.860691259406	1
0	9420	1715.094584189466	0
0	9427	1715.880703923038	1
0	9428	1716.385924557841	0
0	9435	1717.978796126093	1
0	9439	1718.295440234454	2
0	9440	1718.745963649406	1
0	9447	1720.245928105135	0
0	9451	1720.793821081727	1
0	9454	1722.792757760281	0
0	9463	1724.492807207192	1
0	9465	1725.105793938014	2
0	9466	1725.106338710447	1
0	9471	1726.251593121759	0
0	9475	1726.956475914824	1
0	9479	1728.967820037842	2
0	9482	1730.958543836062	1
0	9489	1732.925839407117	0
0	9500	1734.899725118925	1
0	9503	1735.019860350969	2
0	9504	1736.592908385683	1
0	9512	1738.408264580433	0
0	9529	1741.584479051334	1
0	9530	1741.904320371137	0
0	9541	1742.521205924795	1
0	9542	1742.697759518142	0
0	9567	1745.12813729967	1
0	9570	1745.776712869915	0
0	9582	1746.880047457667	1
0	9583	1747.042338488282	0
0	9594	1747.75245946935	1
0	9595	1747.944517357036	0
0	9655	1764.783635462608	1
0	9659	1767.065425109262	0
0	9665	1767.232671598938	1
0	9671	1768.554692057285	2
0	9672	1768.800241740999	1
0	9678	1769.812392987735	0
0	9697	1772.179892457535	1
0	9698	1772.224552406511	0
0	9785	1788.896588104729	1
0	9787	1789.190058265525	2
0	9788	1789.375692734278	1
0	9797	1790.432455630415	0
0	9849	1805.207422618569	1
0	9851	1806.098941106234	0
0	9923	1820.413821688881	1
0	9926	1821.205459837925	2
0	9928	1821.486970947136	3
0	9930	1821.623472103179	4
0	9931	1822.472265764956	3
0	9936	1822.530067514155	2
0	9942	1822.865262457312	1
0	9948	1824.073694277953	0
0	9954	1824.46516579579	1
0	9956	1825.964994217743	0
0	9968	1827.580764749604	1
0	9970	1827.739366791121	2
0	9971	1827.929588654996	1
0	9978	1829.132394234951	0
0	9993	1831.481868236723	1
0	9994	1831.667747578551	0
0	10013	1833.371637120287	1
0	10015	1834.130341189416	2
0	10017	1834.262752477106	1
0	10024	1835.135458715933	0
0	10048	1840.329999956465	1
0	10049	1840.344616202759	0
0	10063	1842.486087398886	1
0	10067	1843.847653998283	0
0	10081	1845.147862994508	1
0	10082	1845.354498778779	0
0	10088	1846.27206446277	1
0	10090	1846.409918147698	2
0	10091	1846.674795185687	1
0	10097	1847.269992297768	2
0	10101	1848.568318826398	1
0	10107	1849.051344573188	0
0	10114	1849.940785263575	1
0	10116	1850.066050528546	2
0	10118	1850.159199994975	1
0	10123	1851.460617877414	0
0	10156	1859.39304886793	1
0	10159	1860.090619984486	0
0	10198	1875.278683668457	1
0	10199	1875.301674280202	0
0	10212	1876.426630249107	1
0	10213	1876.755588601404	0
0	10259	1884.138504788687	1
0	10260	1884.527004752612	0
0	10266	1885.318434770449	1
0	10267	1885.402996416042	0
0	10281	1887.133441295102	1
0	10286	1889.535550196587	2
0	10287	1889.618191174352	1
0	10293	1890.718128576291	2
0	10297	1891.042114313682	1
0	10303	1891.338404575677	0
0	10355	1900.470344094273	1
0	10356	1901.228414887755	0
0	10368	1901.371221081019	1
0	10369	1901.887290484776	0
0	10405	1906.547752548524	1
0	10406	1906.552997108438	0
0	10421	1914.133547739019	1
0	10422	1914.768674298268	0
0	10426	1915.094322311807	1
0	10430	1915.938079249424	2
0	10431	1916.792057732673	1
0	10437	1918.633636263604	0
0	10448	1920.67996556115	1
0	10452	1921.25451794876	2
0	10453	1921.266766817364	1
0	10460	1922.989749725445	2
0	10461	1923.981594502017	1
0	10468	1924.820487893764	2
0	10470	1925.518271409381	3
0	10472	1925.617671195944	4
0	10473	1926.051717651229	3
0	10478	1926.231622836699	2
0	10482	1926.462666499542	3
0	10491	1932.467841093514	2
0	10496	1932.908947082128	1
0	10500	1936.851868308912	2
0	10504	1937.339947075231	1
0	10512	1938.737358128477	0
0	10523	1938.913248550504	1
0	10526	1939.269509539224	0
0	10549	1940.598748955112	1
0	10553	1941.716441585191	2
0	10555	1941.904388265287	3
0	10560	1942.524950497703	4
0	10562	1943.603166155931	5
0	10564	1943.625625450826	6
0	10565	1944.907999073985	5
0	10572	1945.67956612721	4
0	10578	1945.813079782877	5
0	10585	1946.645474100872	6
0	10588	1947.211851114849	7
0	10591	1947.974586370599	8
0	10593	1948.77902463564	7
0	10599	1949.688970543547	8
0	10602	1951.147986356225	9
0	10603	1951.249206151261	8
0	10609	1951.591636735695	9
0	10611	1951.767490500209	10
0	10612	1951.808449671508	9
0	10618	1952.11427964266	8
0	10623	1952.255761074653	7
0	10629	1952.377769301808	8
0	10631	1953.700669882776	7
0	10637	1954.105540409477	6
0	10643	1954.978125602667	7
0	10644	1955.90501494032	6
0	10649	1956.816193838785	5
0	10654	1958.820637308943	4
0	10658	1959.759637830923	5
0	10665	1962.43286370157	4
0	10669	1962.750948103283	5
0	10671	1962.878349997628	6
0	10673	1963.262120179496	7
0	10675	1963.90388998522	8
0	10681	1964.74898067663	9
0	10686	1967.106842287219	8
0	10694	1971.045695530079	9
0	10699	1972.866152042904	8
0	10706	1974.825821476233	7
0	10712	1975.414940603703	8
0	10714	1976.464430797797	9
0	10717	1977.063233144968	8
0	10724	1979.495280995437	9
0	10733	1983.892467307351	10
0	10735	1984.022312828934	11
0	10736	1984.476292732426	10
0	10742	1984.629443408408	9
0	10747	1984.764178016722	8
0	10753	1985.448166782779	7
0	10758	1985.586394298871	6
0	10763	1986.061493382309	5
0	10768	1986.320977197648	4
0	10772	1986.44073442712	5
0	10775	1987.542207226116	4
0	10779	1987.987395155765	5
0	10782	1988.02473774312	4
0	10788	1989.392782877824	5
0	10790	1989.42842789104	6
0	10792	1989.534205733381	7
0	10793	1990.879356788418	6
0	10799	1993.067902154653	7
0	10801	1993.705932300901	8
0	10802	1993.941961140365	7
0	10806	1994.177070042806	8
0	10811	1994.693725348673	7
0	10815	1996.198701028983	8
0	10821	1999.852072722128	9
0	10822	1999.969785338155	8
0	10828	2000.082931547081	9
0	10829	2000.584836812828	8
0	10834	2001.467641460821	7
0	10840	2002.239285907489	8
0	10844	2002.627908576197	9
0	10845	2003.403567061974	8
0	10852	2003.994170017302	7
0	10861	2005.038931982124	6
0	10867	2005.65378815088	5
0	10874	2006.041761313836	6
0	10876	2006.138408052088	7
0	10879	2008.374586120526	6
0	10884	2008.934260806196	5
0	10889	2009.354608049801	4
0	10894	2009.452326325066	3
0	10899	2011.844395443922	2
0	10903	2014.569419673541	3
0	10905	2014.645595984276	4
0	10908	2015.501952058734	3
0	10913	2017.158029284752	2
0	10919	2019.552283471716	3
0	10921	2020.290100734936	4
0	10922	2020.434840535673	3
0	10926	2020.677506824994	4
0	10929	2021.188455086997	3
0	10934	2023.616777205677	2
0	10939	2023.758920190942	1
0	10944	2024.923463049104	0
0	10964	2026.136053122042	1
0	10966	2026.708812795111	2
0	10967	2026.796359245641	1
0	10972	2027.888164366376	0
0	11021	2030.786428733574	1
0	11023	2032.154508174029	0
0	11032	2033.021409148602	1
0	11034	2034.621212220033	2
0	11036	2036.876781634796	3
0	11038	2037.431982929282	4
0	11040	2038.17936216304	5
0	11049	2039.140893004982	6
0	11050	2040.16677606535	5
0	11055	2040.368269833928	4
0	11061	2041.148662904155	3
0	11067	2041.244564221905	2
0	11073	2041.539903411785	1
0	11079	2042.503726989934	2
0	11081	2043.222880896862	1
0	11086	2044.194863438114	0
0	11103	2045.766520806525	1
0	11104	2046.175482014621	0
0	11123	2048.49868207711	1
0	11125	2049.100461291794	2
0	11130	2049.909539814458	3
0	11134	2051.848892905876	2
0	11139	2052.350326374512	1
0	11144	2052.498874752512	0
0	11160	2053.627461563236	1
0	11162	2053.904195583983	0
0	11200	2061.764969270325	1
0	11204	2062.750826654554	2
0	11206	2065.28492069954	1
0	11211	2065.85188358873	0
0	11223	2066.731198964314	1
0	11224	2068.049567204104	0
0	11243	2072.080601913348	1
0	11244	2072.168085799126	0
0	11301	2083.815248814566	1
0	11303	2083.820293921456	2
0	11306	2085.107279281416	1
0	11311	2085.251344668171	0
0	11317	2085.708437512548	1
0	11320	2086.778227335836	0
0	11331	2087.017135645273	1
0	11333	2087.982293827961	0
0	11349	2089.040375863587	1
0	11353	2089.237158757865	2
0	11357	2090.452091392299	3
0	11361	2093.427894248144	2
0	11366	2093.435039993744	1
0	11373	2094.065879979293	0
0	11379	2094.067833919166	1
0	11382	2094.758885738936	0
0	11389	2095.275781139664	1
0	11391	2095.531969505467	0
0	11397	2096.423776741252	1
0	11398	2097.091625998693	0
0	11436	2102.13758056421	1
0	11438	2102.836732067093	0
0	11446	2103.244151581639	1
0	11448	2104.142026029855	2
0	11451	2104.314704508411	1
0	11456	2104.391161368639	0
0	11480	2106.258296462484	1
0	11483	2107.173970196828	0
0	11501	2111.324729142577	1
0	11503	2111.706784911869	2
0	11506	2112.023768365494	3
0	11508	2113.473887392977	4
0	11509	2113.885435011402	3
0	11514	2114.021325334874	2
0	11519	2114.231594890408	1
0	11525	2114.240192798691	2
0	11528	2115.592276322016	1
0	11535	2115.93533426467	0
0	11546	2117.525621713243	1
0	11547	2117.603458659502	0
0	11572	2119.12585351532	1
0	11574	2120.017419690954	2
0	11575	2120.257089418471	1
0	11581	2120.562588022017	2
0	11582	2121.011188015702	1
0	11587	2121.407967145671	0
0	11598	2122.527009943063	1
0	11599	2122.824057723565	0
0	11608	2123.411672594705	1
0	11610	2123.442208292622	2
0	11614	2124.039781001305	3
0	11615	2124.461647638703	2
0	11621	2124.562259184381	3
0	11624	2125.292485163036	4
0	11625	2125.642049092648	3
0	11630	2125.732688640452	2
0	11636	2126.094004423182	3
0	11637	2126.484015350374	2
0	11643	2128.139781943862	1
0	11648	2128.250197196645	0
0	11658	2130.271353428588	1
0	11659	2130.342368739458	0
0	11678	2132.951569492445	1
0	11682	2135.425234566188	0
0	11688	2135.662007527945	1
0	11690	2135.831758399236	2
0	11698	2137.379587513481	1
0	11704	2138.182777319339	0
0	11710	2138.625981476813	1
0	11711	2139.093883377529	0
0	11744	2141.476534623061	1
0	11750	2142.546663845234	2
0	11751	2142.847126507175	1
0	11756	2142.995579307886	0
0	11801	2149.652770226272	1
0	11802	2149.89887982075	0
0	11814	2150.338985519567	1
0	11817	2151.626670052901	0
0	11849	2155.515768775626	1
0	11850	2156.328849976779	0
0	11856	2156.39312104371	1
0	11858	2156.622751295581	2
0	11861	2157.261415097264	3
0	11864	2157.757808847959	4
0	11866	2158.055642037816	3
0	11872	2158.229816667098	4
0	11873	2158.447694587432	3
0	11879	2159.287758628518	2
0	11883	2161.399612629154	3
0	11885	2161.846306588717	4
0	11888	2162.796761753424	3
0	11894	2163.502315776982	4
0	11895	2163.546094803256	3
0	11900	2164.717085491994	2
0	11904	2165.637009679193	3
0	11908	2166.623187389818	4
0	11911	2167.852561109274	3
0	11920	2170.071764279736	2
0	11928	2171.209032184857	3
0	11930	2171.50719087015	2
0	11935	2171.518985670005	1
0	11942	2173.67454574022	0
0	11953	2173.955712539516	1
0	11956	2175.707838318708	0
0	11962	2176.29260640537	1
0	11964	2176.312207727115	2
0	11965	2176.394994692085	1
0	11971	2178.316129420921	2
0	11972	2178.88360642494	1
0	11977	2179.855534617449	0
0	12002	2181.86795874514	1
0	12008	2182.69000782158	2
0	12010	2182.70504676319	3
0	12011	2182.754454789066	2
0	12017	2183.378217137476	3
0	12018	2183.464285285515	2
0	12023	2185.458538148806	1
0	12030	2187.144658667766	0
0	12034	2187.339722998276	1
0	12036	2188.033110793847	2
0	12039	2188.314045098935	1
0	12044	2188.90586612196	0
0	12051	2191.340457190325	1
0	12054	2191.841102546384	0
0	12060	2192.749567487464	1
0	12062	2193.169633474709	0
0	12068	2193.944469656854	1
0	12070	2195.847920034373	0
0	12074	2196.173371708799	1
0	12080	2196.619473601946	2
0	12082	2196.901605043883	1
0	12087	2198.364470024806	0
0	12112	2202.131572665116	1
0	12114	2204.136404123903	2
0	12119	2206.507801794451	3
0	12120	2207.023555860487	2
0	12126	2207.071629397664	3
0	12128	2207.919535875167	2
0	12134	2208.695764613248	1
0	12139	2209.472362323777	0
0	12145	2210.554840988334	1
0	12147	2210.954185771958	2
0	12149	2211.399669567461	1
0	12157	2213.250814405164	0
0	12163	2213.794159129758	1
0	12165	2214.551227743993	2
0	12166	2214.609125533847	1
0	12172	2214.79721082819	2
0	12173	2217.794848250241	1
0	12180	2219.413945918385	2
0	12181	2220.10020842321	1
0	12187	2221.810551461762	0
0	12199	2223.759324092349	1
0	12200	2225.145994639572	0
0	12204	2225.88281614767	1
0	12207	2226.780653825021	0
0	12214	2227.874314953795	1
0	12215	2228.28334007201	0
0	12300	2241.275954557863	1
0	12303	2242.807298291738	2
0	12305	2242.840163185852	3
0	12307	2243.008199846701	4
0	12309	2243.053634887718	5
0	12310	2243.445859436605	4
0	12315	2243.850970035069	3
0	12321	2244.686100338675	4
0	12322	2247.959953389785	3
0	12327	2249.257823795001	2
0	12332	2249.40562812649	1
0	12336	2250.041707510358	2
0	12343	2251.417779722345	1
0	12348	2253.560225594851	0
0	12352	2253.75800635057	1
0	12354	2254.77988450723	2
0	12359	2256.00474393044	1
0	12365	2257.54130572912	2
0	12368	2258.80691304802	1
0	12373	2259.150526107177	0
0	12388	2263.780611828879	1
0	12390	2264.051888665326	2
0	12392	2264.120995709883	3
0	12395	2265.421536627027	2
0	12401	2265.729674038935	1
0	12407	2267.146034500524	0
0	12420	2269.649605637975	1
0	12422	2269.707263537429	2
0	12423	2269.87695911164	1
0	12428	2270.196058945974	0
0	12440	2270.761268641386	1
0	12446	2273.250208681184	2
0	12447	2273.78643223304	1
0	12456	2275.00369975269	2
0	12457	2275.230487633788	1
0	12463	2275.54241937539	0
0	12472	2277.067239931392	1
0	12473	2277.326515012301	0
0	12522	2283.186748541066	1
0	12525	2284.484422815756	2
0	12527	2284.725881169514	3
0	12529	2285.570154716875	4
0	12532	2286.188972265769	3
0	12544	2288.920527095617	4
0	12545	2289.218304966245	3
0	12551	2290.803303611914	2
0	12560	2291.745158669853	3
0	12563	2292.856591816682	2
0	12568	2292.916437522722	1
0	12574	2293.035187856771	2
0	12575	2293.225192575949	1
0	12583	2294.248256786284	2
0	12585	2294.820741708684	3
0	12586	2295.033022768903	2
0	12592	2295.330939239278	1
0	12598	2295.726107908435	2
0	12600	2296.322050632326	3
0	12601	2296.435914996241	2
0	12609	2297.843861994189	1
0	12615	2299.453550920814	2
0	12619	2300.788308094514	3
0	12620	2301.679386407037	2
0	12626	2302.538866865009	1
0	12633	2303.443351716828	2
0	12634	2303.503914003414	1
0	12641	2303.556339214594	2
0	12643	2303.896690530869	1
0	12649	2304.000094873189	2
0	12651	2304.392456861487	3
0	12653	2304.7331166142	4
0	12655	2305.190840253054	5
0	12657	2305.484275119744	6
0	12658	2306.1743380692	5
0	12665	2307.145351717182	4
0	12670	2307.199819825631	3
0	12675	2307.547837233124	2
0	12680	2307.754333763653	1
0	12686	2307.890622340433	2
0	12687	2307.897537690072	1
0	12692	2308.163516035476	0
0	12698	2310.328872885228	1
0	12701	2311.511530363064	0
0	12739	2319.816773516645	1
0	12741	2320.025295458357	2
0	12742	2320.050289899659	1
0	12747	2320.197865503849	0
0	12778	2323.418447476125	1
0	12781	2323.549842973111	0
0	12787	2324.989044790934	1
0	12788	2325.614383670845	0
0	12801	2326.660029545813	1
0	12804	2326.839002380721	0
0	12851	2333.637141479802	1
0	12853	2333.645993639686	2
0	12856	2334.674772508401	3
0	12859	2335.786016996427	2
0	12865	2336.726928812866	3
0	12868	2336.914946444239	2
0	12873	2336.990113771764	1
0	12878	2337.001118604811	0
0	12907	2339.684496473328	1
0	12909	2340.092339756153	2
0	12911	2340.271583769457	3
0	12914	2341.381449319641	2
0	12921	2341.717580050925	1
0	12926	2342.025800264334	0
0	12932	2342.178634286865	1
0	12936	2343.327439715713	0
0	12950	2349.33666873424	1
0	12952	2349.409827460305	2
0	12953	2349.642570992504	1
0	12958	2349.909405769891	0
0	12964	2350.217934344905	1
0	12968	2350.471752993419	2
0	12970	2350.707354135638	1
0	12976	2351.660163212814	0
0	12982	2351.812590276272	1
0	12983	2351.958858348438	0
0	12987	2352.428551422196	1
0	12989	2352.983938368568	2
0	12994	2354.54148118356	3
0	12995	2355.774630288812	2
0	13002	2356.852135504074	3
0	13004	2357.211959280844	4
0	13005	2357.613435344369	3
0	13012	2357.762406242988	4
0	13014	2358.075456412027	5
0	13020	2360.508327271865	4
0	13026	2361.288415276056	3
0	13032	2361.448568514527	4
0	13035	2362.471883659804	3
0	13041	2362.697012131194	4
0	13043	2363.094016360291	3
0	13048	2363.286113265836	2
0	13053	2363.336836881567	1
0	13059	2364.341358750351	2
0	13060	2364.365411334781	1
0	13064	2364.485780681196	2
0	13067	2365.27234707453	1
0	13072	2366.836422496082	0
0	13098	2372.149732137156	1
0	13099	2372.66648936097	0
0	13145	2383.428966255479	1
0	13147	2383.517827356216	2
0	13149	2384.745482456845	3
0	13151	2384.90114329946	4
0	13152	2384.961628356303	3
0	13159	2385.769475348946	4
0	13160	2386.997228557028	3
0	13166	2387.634020269847	4
0	13167	2388.319888787096	3
0	13174	2389.540889675078	2
0	13178	2389.634392626135	3
0	13180	2389.728596160726	4
0	13189	2391.056650749894	5
0	13192	2391.426307074706	6
0	13193	2392.060057468984	5
0	13200	2392.503302699821	4
0	13205	2392.523591593992	3
0	13209	2393.97401014214	4
0	13212	2395.436180136313	3
0	13218	2396.745985840748	4
0	13219	2396.896961865666	3
0	13224	2397.959419286904	2
0	13232	2400.633705262897	1
0	13237	2400.650658153247	0
0	13241	2402.144924781045	1
0	13245	2403.80179138522	2
0	13247	2404.788273373265	3
0	13250	2405.553360092057	2
0	13257	2406.881513370944	1
0	13262	2406.908384537401	0
0	13268	2407.066761543237	1
0	13269	2408.396200798224	0
0	13276	2410.548409363414	1
0	13279	2411.300540325092	0
0	13306	2412.365023085709	1
0	13312	2413.880643693768	2
0	13313	2414.036397699651	1
0	13321	2415.136788709748	0
0	13340	2416.26405422164	1
0	13342	2417.130663600221	2
0	13346	2417.932212706349	1
0	13358	2418.937227599019	2
0	13362	2420.351827074527	1
0	13368	2420.73177289602	2
0	13370	2421.009419593245	3
0	13371	2421.4480429769	2
0	13376	2421.603825154021	1
0	13384	2422.741288582259	0
0	13409	2424.496765889266	1
0	13412	2424.83102081298	0
0	13430	2429.448455702454	1
0	13437	2431.067393424778	0
0	13443	2432.891245559091	1
0	13447	2434.673722321799	2
0	13450	2435.274949334748	3
0	13451	2435.296763306433	2
0	13457	2435.29745640787	3
0	13458	2435.535867809562	2
0	13462	2435.576598877077	3
0	13466	2436.419663278804	2
0	13471	2436.725064244769	1
0	13476	2436.981445308604	0
0	13489	2443.068791332804	1
0	13493	2444.617843432555	0
0	13527	2450.612101602273	1
0	13531	2452.005919579033	0
0	13619	2470.254873529477	1
0	13620	2471.110276271544	0
0	13645	2475.113028249943	1
0	13646	2475.758124030649	0
0	13656	2476.805301114177	1
0	13657	2477.196994309268	0
0	13669	2478.899292392092	1
0	13673	2479.271938007135	2
0	13674	2480.047166639631	1
0	13679	2481.310389544244	0
0	13721	2489.298434640248	1
0	13723	2490.022041078693	0
0	13729	2490.419843381764	1
0	13730	2490.530766977307	0
0	13786	2499.967209816376	1
0	13787	2500.728574782033	0
0	13802	2502.340580467481	1
0	13803	2503.107467991072	0
0	13832	2509.105387161725	1
0	13833	2510.768896463028	0
0	13865	2515.319643843285	1
0	13866	2515.933821891129	0
0	13879	2517.75087016303	1
0	13882	2518.875732843717	0
0	13890	2519.746860361608	1
0	13892	2520.034067385669	2
0	13893	2520.295012559326	1
0	13899	2521.127942742562	0
0	13913	2522.57178386559	1
0	13916	2523.640543796175	0
0	13924	2525.877687213021	1
0	13925	2526.857854030119	0
0	13929	2527.411398566315	1
0	13932	2529.036788147972	0
0	13938	2529.431177644927	1
0	13939	2530.156696651934	0
0	13945	2531.315074984527	1
0	13948	2532.601068738951	0
0	13959	2537.188661171722	1
0	13960	2537.228232648146	0
0	14003	2543.435183204255	1
0	14005	2543.545397181216	0
0	14012	2545.371753118212	1
0	14013	2545.960926005707	0
0	14034	2551.226805126245	1
0	14036	2551.535906564607	0
0	14042	2551.913801721588	1
0	14043	2553.937764581845	0
0	14067	2559.453431012754	1
0	14068	2559.819563438334	0
0	14178	2576.055025342574	1
0	14179	2576.284058498815	0
0	14185	2576.56724674845	1
0	14186	2577.462039479412	0
0	14200	2578.349823181541	1
0	14201	2578.757394606898	0
0	14212	2579.865474842119	1
0	14214	2581.446057481929	2
0	14217	2582.455276950673	1
0	14223	2583.564415896839	2
0	14225	2584.259557715097	3
0	14227	2584.355436445062	4
0	14230	2585.231795110928	3
0	14234	2585.758074161939	4
0	14238	2587.352418958973	5
0	14240	2587.428585503998	6
0	14241	2588.973213852547	5
0	14245	2588.991322947183	6
0	14247	2589.068476194236	7
0	14250	2590.041744103755	6
0	14256	2590.365849184372	7
0	14259	2591.184818313469	6
0	14266	2595.141771128393	5
0	14273	2598.747684549457	4
0	14278	2599.930323650457	3
0	14283	2600.516242455659	2
0	14288	2601.566699394563	1
0	14292	2601.569399035562	2
0	14295	2601.68218515449	1
0	14299	2602.327339418786	2
0	14302	2605.298711437216	1
0	14306	2607.047478705987	2
0	14311	2609.35368599706	1
0	14317	2610.974268181397	2
0	14319	2611.706574382362	3
0	14321	2611.789778820723	4
0	14323	2611.968534402387	5
0	14329	2613.96679061773	4
0	14334	2614.541131968144	3
0	14338	2614.569298113192	4
0	14341	2615.000521141195	3
0	14348	2616.685339743056	4
0	14349	2617.307600643203	3
0	14354	2617.445291321733	2
0	14359	2619.273232728303	1
0	14364	2620.171254257648	0
0	14381	2623.063481735228	1
0	14382	2623.246165083655	0
0	14398	2625.593775454723	1
0	14399	2626.022755901365	0
0	14418	2627.467675411099	1
0	14422	2627.959997746678	2
0	14424	2628.410961107531	3
0	14428	2630.83911478697	2
0	14433	2631.005555068026	1
0	14438	2631.079269989627	0
0	14482	2641.825261833076	1
0	14483	2642.191019274806	0
0	14487	2643.133596246108	1
0	14489	2643.745303993155	2
0	14491	2643.957782977162	3
0	14493	2644.018050576581	4
0	14495	2644.549370541243	5
0	14500	2644.912538593787	4
0	14504	2647.323062246047	5
0	14507	2647.896360107324	4
0	14511	2650.204426250999	5
0	14513	2650.428013779799	6
0	14515	2651.570588613858	7
0	14517	2651.633972537999	8
0	14521	2653.119977250344	9
0	14524	2653.672960922621	8
0	14530	2654.273111072734	7
0	14536	2654.543580122298	8
0	14538	2654.699357892379	9
0	14539	2655.6526257335	8
0	14545	2656.228335633678	7
0	14551	2656.229900918036	8
0	14552	2656.496998877379	7
0	14558	2657.03725507034	8
0	14559	2657.497583820041	7
0	14564	2658.188467928705	6
0	14572	2659.682623175105	7
0	14573	2659.776804221467	6
0	14577	2660.9946427246	7
0	14586	2662.018319108418	8
0	14588	2662.521836990398	9
0	14589	2662.653689113223	8
0	14595	2662.799688599263	9
0	14598	2663.711123659056	8
0	14603	2664.214753822096	7
0	14609	2664.975522616814	8
0	14611	2665.091558189832	9
0	14612	2665.543256020041	8
0	14617	2667.510643089758	7
0	14623	2672.275162372264	8
0	14625	2673.707287158364	9
0	14627	2675.083874898008	10
0	14631	2676.146037215848	11
0	14632	2677.322773995448	10
0	14637	2678.623245907712	9
0	14642	2679.626065156877	8
0	14648	2681.544326729484	9
0	14650	2683.027675306679	10
0	14651	2683.48826336508	9
0	14656	2685.034515784271	8
0	14661	2685.130197750732	7
0	14667	2685.209063092628	8
0	14671	2685.538161226963	9
0	14673	2686.255439694028	8
0	14678	2686.634483061474	7
0	14683	2687.556451347449	6
0	14687	2687.881354573453	7
0	14690	2688.128431671048	6
0	14694	2689.123666974839	7
0	14697	2690.343581232225	6
0	14702	2692.614155614732	5
0	14707	2694.077383308461	4
0	14713	2695.141475563486	5
0	14714	2696.663324177501	4
0	14719	2698.760765082669	3
0	14723	2701.242964275624	4
0	14726	2701.532449522024	3
0	14732	2702.035027114687	4
0	14733	2702.040915843846	3
0	14746	2705.679986572916	2
0	14750	2709.600126517063	3
0	14752	2710.339448799963	4
0	14754	2711.580326422326	5
0	14760	2712.513267622444	4
0	14766	2712.963243266631	5
0	14767	2712.98091452367	4
0	14771	2713.404273412818	5
0	14774	2714.012914317285	4
0	14781	2715.629610105195	3
0	14786	2716.756310302814	2
0	14792	2716.872231211481	3
0	14793	2716.918129204894	2
0	14800	2717.608955485024	3
0	14803	2718.391268984325	4
0	14804	2718.398708866697	3
0	14811	2719.468487034269	2
0	14819	2720.725538186947	3
0	14820	2720.787704036199	2
0	14824	2722.330856259283	3
0	14828	2723.874273996798	2
0	14833	2724.418372690651	1
0	14838	2724.732573328113	0
0	14842	2724.807938337111	1
0	14848	2726.350837394261	2
0	14849	2726.58840138881	1
0	14854	2728.625010900609	0
0	14866	2730.986267914104	1
0	14869	2733.299986924396	2
0	14877	2734.924230097551	1
0	14882	2735.400640403929	0
0	14890	2736.334229975385	1
0	14891	2737.435912335471	0
0	14904	2738.634763367057	1
0	14906	2739.240854338853	2
0	14907	2739.293926181486	1
0	14915	2741.412100197204	0
0	14921	2741.63676394877	1
0	14925	2742.370370828819	0
0	14936	2742.519339961674	1
0	14937	2742.834396756412	0
0	14960	2744.072336054243	1
0	14963	2744.672340285896	2
0	14964	2744.917397470848	1
0	14974	2747.330693719121	0
0	14980	2747.395777440632	1
0	14982	2748.17812605095	0
0	14988	2748.887636378813	1
0	14989	2749.278642322284	0
0	15006	2751.362220988765	1
0	15008	2751.424259587226	2
0	15009	2751.444524882408	1
0	15017	2752.971252542908	2
0	15018	2753.715680564753	1
0	15026	2754.677125639267	2
0	15028	2754.960597035041	1
0	15037	2755.740356573168	0
0	15043	2755.92862558961	1
0	15046	2756.518370279337	0
0	15069	2757.558400677057	1
0	15070	2757.615207459298	0
0	15081	2758.951153395622	1
0	15082	2759.166843252998	0
0	15086	2759.792566616886	1
0	15088	2760.075152136194	2
0	15090	2760.300603392455	3
0	15096	2761.881671427362	2
0	15100	2762.478177773909	3
0	15102	2762.708020640772	4
0	15104	2764.825115062449	5
0	15106	2764.994734831279	6
0	15110	2765.895538487101	5
0	15116	2766.173919970331	4
0	15121	2766.248357747314	3
0	15126	2767.407818816119	2
0	15132	2768.015265657188	3
0	15137	2769.516707006254	2
0	15142	2770.095085101989	1
0	15148	2770.226256348273	2
0	15149	2770.389952587077	1
0	15156	2771.36973488527	0
0	15166	2772.249447082519	1
0	15168	2772.331912905629	2
0	15169	2773.527190780147	1
0	15176	2775.519246895031	0
0	15182	2776.178252496343	1
0	15184	2776.50903826843	2
0	15188	2777.469500299174	3
0	15189	2777.578262291697	2
0	15193	2779.013241925717	3
0	15196	2780.720847290184	2
0	15200	2781.993891035749	3
0	15202	2782.01012245508	4
0	15206	2783.372548267435	5
0	15207	2783.686265054282	4
0	15211	2784.138078624448	5
0	15217	2784.47796116126	6
0	15218	2785.980581419772	5
0	15223	2786.742173018213	4
0	15233	2791.353288802977	5
0	15235	2791.691200264181	6
0	15236	2792.217814654171	5
0	15243	2796.271520768374	6
0	15244	2797.981879305425	5
0	15252	2799.473782455855	4
0	15258	2800.582046378117	5
0	15260	2801.014980154768	6
0	15262	2801.587902177164	7
0	15263	2802.33153277965	6
0	15272	2805.428030203633	5
0	15276	2806.27790209731	6
0	15278	2806.581001182102	7
0	15280	2808.584957409018	8
0	15282	2808.890523506332	9
0	15290	2812.635643005626	10
0	15292	2812.93485559018	11
0	15296	2813.023528614944	12
0	15297	2813.442953101317	11
0	15302	2814.116081063788	10
0	15307	2814.387198447172	9
0	15315	2816.427515818235	8
0	15320	2816.464449931092	7
0	15325	2820.622278075663	6
0	15332	2820.896182658399	5
0	15336	2820.939908351809	6
0	15340	2821.097282850992	7
0	15343	2821.637267027828	6
0	15353	2823.141916202295	5
0	15358	2823.702676052052	4
0	15363	2824.126430141922	3
0	15369	2825.82705949092	4
0	15371	2825.874364119342	5
0	15373	2827.873011251553	4
0	15379	2827.873752939221	5
0	15381	2829.243069483714	4
0	15388	2829.435353246902	5
0	15390	2829.507042187934	6
0	15391	2829.578296342707	5
0	15396	2829.804041054591	4
0	15404	2831.185777779643	5
0	15405	2831.407488018139	4
0	15409	2831.777626576562	5
0	15415	2833.047533672653	6
0	15420	2834.484126701548	7
0	15421	2835.836042898132	6
0	15426	2835.861229867691	5
0	15432	2836.325719463899	6
0	15433	2836.435857930651	5
0	15437	2836.741964248935	6
0	15439	2837.132083290685	7
0	15441	2837.797239865863	8
0	15444	2839.623693490863	7
0	15449	2841.048184440962	6
0	15455	2842.989031011354	7
0	15456	2843.49757083228	6
0	15462	2844.328598141992	5
0	15467	2845.37459786948	4
0	15476	2847.600915100219	3
0	15480	2848.747040683287	4
0	15483	2849.148643105574	3
0	15487	2849.158249126081	4
0	15490	2851.058625940997	3
0	15496	2852.318489590028	4
0	15498	2852.995203195925	3
0	15504	2853.670260022256	4
0	15506	2856.411433190275	5
0	15508	2857.052459448945	6
0	15510	2857.227172770822	7
0	15511	2858.422915946685	6
0	15516	2860.789212122744	5
0	15522	2861.70506280141	6
0	15523	2861.78818993141	5
0	15529	2863.350236650054	6
0	15530	2863.591654113854	5
0	15535	2863.975265360008	4
0	15540	2864.779603749067	3
0	15546	2866.04199814079	4
0	15547	2866.529218604617	3
0	15552	2866.917319303392	2
0	15556	2867.297286679014	3
0	15561	2868.98295693589	2
0	15568	2869.73709376788	1
0	15572	2870.316000569483	2
0	15577	2872.371052988583	1
0	15583	2872.870137379046	2
0	15588	2874.511629010884	1
0	15592	2874.801919965006	2
0	15595	2876.126470392117	1
0	15601	2877.545112967195	2
0	15602	2877.597321122646	1
0	15606	2877.830261544092	2
0	15609	2878.189436867909	1
0	15613	2878.293853406824	2
0	15620	2879.878432207548	1
0	15624	2880.417581911525	2
0	15627	2881.592072417098	1
0	15631	2881.797267554462	2
0	15637	2882.734737200072	3
0	15639	2882.994183463362	4
0	15643	2883.408683959739	3
0	15652	2885.189217131351	2
0	15657	2887.270554660498	1
0	15663	2888.290002582244	2
0	15666	2888.621178105608	3
0	15668	2888.842133503799	2
0	15673	2889.329772089207	1
0	15679	2889.703425860664	2
0	15681	2889.799677747412	3
0	15683	2891.083199809293	4
0	15685	2892.102503876322	5
0	15686	2892.664945741765	4
0	15690	2893.42313595629	5
0	15696	2896.989813988415	4
0	15702	2897.516391947827	5
0	15704	2898.512960952223	4
0	15712	2902.064947927766	3
0	15717	2902.350295892917	2
0	15723	2902.652897524216	3
0	15729	2904.733152833768	2
0	15734	2904.754104946896	1
0	15740	2905.272497282433	0
0	15757	2905.732797169421	1
0	15758	2906.164489133048	0
0	15765	2906.452971368851	1
0	15767	2906.965606347017	0
0	15791	2907.959099199258	1
0	15793	2908.042927029759	2
0	15795	2908.339872328244	3
0	15796	2908.425618017789	2
0	15802	2908.51670462683	3
0	15803	2908.614132800679	2
0	15811	2908.82380725605	1
0	15816	2908.898366641468	0
0	15827	2908.993509380299	1
0	15829	2910.307081571924	0
0	15849	2912.397857954525	1
0	15850	2912.955757698732	0
0	15861	2913.774102804413	1
0	15862	2913.871631107582	0
0	15866	2914.199768089759	1
0	15870	2914.81201444555	0
0	15886	2917.980942058941	1
0	15888	2918.558880099055	2
0	15896	2920.732310535922	3
0	15898	2920.874407131384	4
0	15901	2921.888679643613	3
0	15908	2922.012732284384	2
0	15916	2923.990036829404	1
0	15923	2924.458209217536	0
0	15945	2927.013493334158	1
0	15948	2927.80579001269	2
0	15949	2927.862991289813	1
0	15955	2928.056417583794	0
0	15961	2928.352791173496	1
0	15962	2928.969083774407	0
0	15974	2929.653237328865	1
0	15976	2930.757857932021	0
0	15989	2931.52159912202	1
0	15991	2931.530261319432	2
0	15992	2931.530532577732	1
0	15998	2932.292851886056	2
0	15999	2932.316712983357	1
0	16006	2933.827034635517	0
0	16017	2934.908418938395	1
0	16019	2935.935535344695	0
0	16032	2937.338087848624	1
0	16033	2937.394972749154	0
0	16057	2939.126020478564	1
0	16067	2940.618550856053	2
0	16068	2941.301073336278	1
0	16074	2941.379805345926	2
0	16077	2941.463748332706	1
0	16083	2941.830637738965	0
0	16112	2946.076094959547	1
0	16113	2946.591798021725	0
0	16124	2948.124058291885	1
0	16125	2948.350614087576	0
0	16171	2961.279787343125	1
0	16173	2961.951210127695	2
0	16175	2961.961488807143	3
0	16176	2962.252049571583	2
0	16182	2962.581470558037	3
0	16185	2962.962810215216	4
0	16186	2963.469337609341	3
0	16194	2964.157300701891	2
0	16201	2965.196758426031	3
0	16203	2965.603923386682	4
0	16204	2965.651712737906	3
0	16209	2965.741651112853	2
0	16214	2965.804778353922	1
0	16219	2965.829075366503	0
0	16236	2967.229669430502	1
0	16239	2968.607299052937	0
0	16245	2968.707051650768	1
0	16248	2968.989576562882	0
0	16271	2970.769064500105	1
0	16272	2971.022594707378	0
0	16305	2977.027813778414	1
0	16309	2977.53713178735	0
0	16320	2977.911256387888	1
0	16324	2979.880231590925	2
0	16326	2980.290459933798	3
0	16330	2981.112732111701	4
0	16337	2982.013017881301	5
0	16338	2982.896528243576	4
0	16343	2985.461755349033	3
0	16350	2986.398395128758	2
0	16358	2987.555534211006	1
0	16363	2987.836987453738	0
0	16378	2990.665268672362	1
0	16379	2990.697410116437	0
0	16397	2991.397036752428	1
0	16399	2991.884149751426	2
0	16401	2992.962725143567	1
0	16406	2993.282709508188	0
0	16420	2995.691416482543	1
0	16422	2995.890667734328	0
0	16456	2999.795321942563	1
0	16458	2999.971566277634	2
0	16460	2999.975780781077	3
0	16463	3000.59210218508	2
0	16468	3000.962248236211	1
0	16475	3001.085897219511	2
0	16477	3002.005839941305	1
0	16484	3003.283722959517	2
0	16487	3005.379949003903	1
0	16495	3008.01548941572	0
0	16508	3011.264285519085	1
0	16510	3013.307139269806	0
0	16529	3016.791926340731	1
0	16533	3019.050467090109	2
0	16534	3019.059799166514	1
0	16539	3019.951433303611	0
0	16546	3020.240605191984	1
0	16548	3020.313466589379	2
0	16550	3020.844484873501	3
0	16552	3020.958595261699	2
0	16560	3022.489046026518	3
0	16562	3023.354318454884	2
0	16567	3023.461889234578	1
0	16574	3023.816171667264	0
0	16583	3026.206232797452	1
0	16584	3026.482320970183	0
0	16647	3034.316732769102	1
0	16651	3034.760509211885	2
0	16652	3035.03313051627	1
0	16658	3035.289097330525	0
0	16665	3035.709014509929	1
0	16668	3036.089122864471	0
0	16687	3039.092327794747	1
0	16688	3039.163401193164	0
0	16702	3040.210366127336	1
0	16708	3042.003097885839	2
0	16711	3042.222215986249	1
0	16717	3042.29041833213	2
0	16719	3043.446349730989	1
0	16724	3043.976033382414	0
0	16731	3044.392146959139	1
0	16732	3044.612705871265	0
0	16750	3047.253790149973	1
0	16752	3047.633219083747	2
0	16757	3048.97123018097	1
0	16762	3049.269472003059	0
0	16803	3054.405836431892	1
0	16804	3054.479130027593	0
0	16817	3057.024728274749	1
0	16818	3057.228307227385	0
0	16827	3058.268530563587	1
0	16829	3058.633251949105	2
0	16836	3061.911675542262	1
0	16841	3062.006610023553	0
0	16889	3068.956329477022	1
0	16890	3069.392470882755	0
0	16912	3072.699318826646	1
0	16913	3072.857257386463	0
0	16932	3073.790299583915	1
0	16935	3074.70880571673	0
0	16944	3075.596482144248	1
0	16947	3076.131096979119	0
0	16951	3076.488886156411	1
0	16953	3077.001609155257	2
0	16956	3078.005940962599	1
0	16962	3078.607031357631	0
0	16979	3079.725448670666	1
0	16981	3080.253133634902	0
0	16996	3082.072365088319	1
0	16998	3082.174448563067	2
0	17001	3082.929610500679	1
0	17008	3083.97398915519	2
0	17012	3085.142389826762	1
0	17017	3085.205882128585	0
0	17021	3085.889977650461	1
0	17025	3088.762740602924	2
0	17029	3089.686458404257	3
0	17030	3089.800069730284	2
0	17035	3089.837076459376	1
0	17039	3090.201307029978	2
0	17043	3090.998509272607	1
0	17049	3095.959330756994	2
0	17051	3096.827011884725	1
0	17058	3097.399166823575	2
0	17061	3098.414043750118	1
0	17067	3100.196985803186	2
0	17070	3103.441038036346	1
0	17076	3103.545610373481	2
0	17077	3104.390041659093	1
0	17083	3104.955368324895	2
0	17085	3105.089585972821	3
0	17086	3105.348390479261	2
0	17091	3106.769124557388	1
0	17100	3110.556964172587	0
0	17116	3113.34038448929	1
0	17117	3113.61476182921	0
0	17143	3115.586759370998	1
0	17145	3115.750169365554	2
0	17147	3116.024559858146	3
0	17151	3117.020790345036	2
0	17157	3117.548048608021	1
0	17162	3117.862365737997	0
0	17169	3118.921319011603	1
0	17172	3119.04666782472	2
0	17177	3120.755912273482	3
0	17182	3121.043196272268	2
0	17187	3121.2323545168	1
0	17192	3121.294083289063	0
0	17211	3123.103291242011	1
0	17215	3123.378848153998	2
0	17216	3123.985309574632	1
0	17222	3124.807720074155	0
0	17240	3125.925752598348	1
0	17241	3126.225857006647	0
0	17271	3127.864920632865	1
0	17273	3128.31551761931	2
0	17274	3128.411636480341	1
0	17280	3129.590807542742	0
0	17289	3131.913981632127	1
0	17293	3132.903138114981	2
0	17295	3133.643408090327	1
0	17300	3133.825540930726	0
0	17337	3140.745966034242	1
0	17339	3140.984091573868	2
0	17341	3141.933251872775	1
0	17348	3142.767704343671	2
0	17349	3142.913554348278	1
0	17354	3143.590845488006	0
0	17365	3143.849930067494	1
0	17369	3144.036460719626	2
0	17371	3144.315692426265	3
0	17373	3144.379421147343	2
0	17379	3145.199377472938	1
0	17384	3145.53815806742	0
0	17390	3145.79294945944	1
0	17391	3146.119454722365	0
0	17397	3147.44742008567	1
0	17402	3148.908233874612	2
0	17407	3150.322291758392	3
0	17409	3151.294352816264	4
0	17410	3151.510333201926	3
0	17416	3152.725231817914	2
0	17421	3152.928436914521	1
0	17425	3154.37574707823	2
0	17428	3154.398526367766	1
0	17434	3154.934841704314	2
0	17437	3155.867807494097	1
0	17442	3158.710175849818	0
0	17457	3160.673122965456	1
0	17462	3161.515265794638	2
0	17465	3161.969739110883	3
0	17467	3162.77289627041	2
0	17472	3163.157693417854	1
0	17477	3163.63480784815	0
0	17497	3164.810897842395	1
0	17499	3165.373516359758	0
0	17508	3166.229042744889	1
0	17512	3168.330920076464	0
0	17519	3169.107577155508	1
0	17522	3170.333782076825	2
0	17523	3170.61321810565	1
0	17530	3170.810027439868	2
0	17532	3171.289519028924	1
0	17538	3171.964231467353	0
0	17579	3176.432363153625	1
0	17582	3177.027077391082	0
0	17588	3177.077424043947	1
0	17590	3177.866387718105	0
0	17599	3179.418707197147	1
0	17601	3182.335995959571	2
0	17606	3183.683709042489	3
0	17607	3183.719804399522	2
0	17612	3184.077224648327	1
0	17617	3184.217047115596	0
0	17623	3184.315582123802	1
0	17624	3184.774969847961	0
0	17641	3186.863983605179	1
0	17642	3187.251634739708	0
0	17651	3187.623744346076	1
0	17655	3189.511132782782	2
0	17656	3189.522202834667	1
0	17660	3189.536024201778	2
0	17664	3190.841321585593	3
0	17666	3192.130618249404	4
0	17670	3192.31864453667	3
0	17678	3192.665658001315	2
0	17684	3192.965520468564	1
0	17689	3193.32283004123	0
0	17695	3193.421354534442	1
0	17698	3193.845093977497	0
0	17715	3196.245763553221	1
0	17717	3196.274580037923	2
0	17719	3196.685723379984	3
0	17724	3197.08077189488	2
0	17734	3198.209978550533	3
0	17736	3198.588528213398	4
0	17738	3200.010480456851	3
0	17744	3200.207683595648	4
0	17746	3201.259394773703	5
0	17749	3201.627551406241	6
0	17750	3201.876161004117	5
0	17756	3202.940533857343	6
0	17757	3203.134036960056	5
0	17763	3203.50032860307	6
0	17765	3204.181533248461	5
0	17773	3205.838537852401	4
0	17779	3205.907956855828	5
0	17783	3206.282073926237	4
0	17790	3210.382604474251	3
0	17795	3212.137848406134	2
0	17802	3214.724848896514	1
0	17807	3214.81816373348	0
0	17811	3215.299679637229	1
0	17814	3217.164663712334	0
0	17824	3219.121139884966	1
0	17826	3219.725108867947	2
0	17827	3220.470701425304	1
0	17833	3220.786522836328	2
0	17837	3222.791194686492	3
0	17841	3223.181608131858	4
0	17844	3225.057077189389	3
0	17850	3227.722155507912	2
0	17856	3228.121346588858	1
0	17862	3228.237274585755	2
0	17864	3228.783098379087	3
0	17867	3229.669872264648	2
0	17871	3230.680695168384	3
0	17876	3231.774903109373	2
0	17881	3231.945801244793	1
0	17887	3232.312986896323	2
0	17893	3234.21241397566	3
0	17894	3235.129503412081	2
0	17900	3235.1613120091	3
0	17903	3235.696048191012	4
0	17905	3236.487752395703	5
0	17906	3237.115674271437	4
0	17912	3237.625798787947	3
0	17917	3238.110906633929	2
0	17922	3238.154004721482	1
0	17926	3238.299008618683	2
0	17930	3238.598268122149	3
0	17933	3239.374239103925	2
0	17939	3240.234548862964	3
0	17947	3241.57952529223	4
0	17949	3241.862945256313	5
0	17951	3241.9676926908	6
0	17952	3242.099336196778	5
0	17957	3244.02295935896	4
0	17961	3244.623037205207	5
0	17963	3245.431165649154	6
0	17965	3246.53419504273	7
0	17969	3249.851190270473	8
0	17971	3250.401722460481	9
0	17972	3250.622557601394	8
0	17983	3252.656732950665	9
0	17985	3252.723073917825	10
0	17989	3253.632058128574	9
0	17994	3254.078300819452	8
0	17999	3254.548690743373	7
0	18007	3254.613230012414	6
0	18014	3255.27415657869	5
0	18020	3256.289950116406	6
0	18022	3256.607897295612	5
0	18029	3257.544323388388	4
0	18035	3257.825849370432	5
0	18038	3258.191269537412	4
0	18044	3259.741580762224	5
0	18046	3259.806878424904	6
0	18048	3260.452736750362	7
0	18051	3261.813478698891	6
0	18060	3264.574440594321	5
0	18064	3264.603037358099	6
0	18068	3265.446700129531	7
0	18070	3266.076671171886	8
0	18073	3267.273751880938	7
0	18079	3268.072335552118	8
0	18081	3268.151308133972	9
0	18082	3269.413940329654	8
0	18086	3269.674188103739	9
0	18090	3270.799343199774	10
0	18091	3271.126628803996	9
0	18096	3271.818896385746	8
0	18102	3272.419600068838	9
0	18104	3273.92495686332	10
0	18108	3274.357979297209	9
0	18114	3275.054128540181	10
0	18115	3275.245262000254	9
0	18120	3275.50235747085	8
0	18125	3278.198605449388	7
0	18132	3279.171037688394	6
0	18138	3281.506742905874	5
0	18143	3281.67452374203	4
0	18150	3284.429331976997	5
0	18153	3286.190938322216	4
0	18158	3286.522576007162	3
0	18163	3288.202542000202	2
0	18168	3288.868021056206	1
0	18172	3290.233511989883	2
0	18177	3291.182365080089	1
0	18188	3292.343272153124	0
0	18204	3292.956555852085	1
0	18205	3293.007258370067	0
0	18233	3295.531202962062	1
0	18235	3296.354299039803	0
0	18249	3298.461930085149	1
0	18251	3298.47841972984	2
0	18253	3298.720068970801	1
0	18258	3298.828966951268	0
0	18269	3299.673697886298	1
0	18271	3301.1193467158	0
0	18277	3301.181536589223	1
0	18283	3303.030010025858	2
0	18284	3303.158217406755	1
0	18292	3304.433054257687	0
0	18309	3304.81655945154	1
0	18317	3306.457941728157	0
0	18328	3307.520251597909	1
0	18333	3308.962538873607	0
0	18349	3310.043677747255	1
0	18352	3310.413978896937	0
0	18392	3315.915589544984	1
0	18396	3317.134122824285	0
0	18408	3317.816938799221	1
0	18412	3319.171748854963	2
0	18414	3319.222072365438	3
0	18417	3320.333312719962	4
0	18421	3321.032502791602	5
0	18422	3321.396545048124	4
0	18430	3322.210402157644	5
0	18431	3322.934785673469	4
0	18436	3324.089170530517	3
0	18441	3324.145122006303	2
0	18447	3324.344878547637	3
0	18448	3324.382899099716	2
0	18457	3326.138251029027	3
0	18458	3326.382590188472	2
0	18463	3326.910243186844	1
0	18471	3329.209466093111	0
0	18505	3331.441151046304	1
0	18507	3332.87477126577	2
0	18508	3333.785396831646	1
0	18513	3334.590316002451	0
0	18519	3335.53922443298	1
0	18521	3337.144842743245	0
0	18534	3338.988727835389	1
0	18537	3339.228358842764	0
0	18546	3340.790435797584	1
0	18548	3341.153939646874	2
0	18552	3342.471102365041	3
0	18558	3344.134648599105	4
0	18560	3344.393323973483	3
0	18565	3344.500645061681	2
0	18571	3345.265932617773	1
0	18576	3346.024097208713	0
0	18580	3346.665230426152	1
0	18583	3346.81177986492	0
0	18589	3348.70033982962	1
0	18592	3349.595314207386	0
0	18596	3349.958746687743	1
0	18600	3350.651112393189	2
0	18602	3350.673924636483	1
0	18608	3351.045920087954	2
0	18609	3351.283682186151	1
0	18616	3351.817030217293	0
0	18624	3352.244425002815	1
0	18625	3352.42443872888	0
0	18631	3352.757903123408	1
0	18632	3353.798454089289	0
0	18638	3353.897042662955	1
0	18642	3354.16339755919	2
0	18645	3354.60950812314	1
0	18652	3356.754036441919	0
0	18683	3360.354925921406	1
0	18684	3361.284261088148	0
0	18752	3368.891350757786	1
0	18754	3369.388337637705	2
0	18755	3370.087966325791	1
0	18762	3370.343293803361	2
0	18763	3370.471420953099	1
0	18768	3370.595045993262	0
0	18780	3371.177884098852	1
0	18781	3371.732978970764	0
0	18810	3374.378862414248	1
0	18813	3375.594325926965	0
0	18819	3375.775292359756	1
0	18821	3376.044864506054	0
0	18827	3376.272939895581	1
0	18829	3376.626642917596	2
0	18832	3376.730522093361	1
0	18837	3376.886317376294	0
0	18841	3377.40779548672	1
0	18847	3378.748147736116	0
0	18864	3381.274162823959	1
0	18866	3382.327727984218	0
0	18877	3382.544793596338	1
0	18878	3382.76716046875	0
0	18882	3382.910278037292	1
0	18888	3384.475845063833	2
0	18892	3385.792579043754	3
0	18894	3386.391638634046	2
0	18899	3386.711872979389	1
0	18911	3394.59959738155	0
0	18934	3397.052260589961	1
0	18936	3397.655749446475	2
0	18937	3397.903020115023	1
0	18942	3398.609679901267	0
0	18973	3401.845722611135	1
0	18975	3401.971746924971	2
0	18978	3403.514463969482	1
0	18988	3403.989864712988	2
0	18992	3404.533201909512	3
0	18993	3404.794975341354	2
0	18999	3404.868159989354	3
0	19002	3405.628035527379	2
0	19007	3406.544621477959	1
0	19017	3408.115017448607	2
0	19018	3408.827099059025	1
0	19024	3411.154450563829	2
0	19030	3412.281913891993	1
0	19034	3412.901021216145	2
0	19037	3413.054846224527	1
0	19045	3414.079432796482	2
0	19050	3415.144388106828	1
0	19058	3416.071729026155	2
0	19059	3416.538312404618	1
0	19064	3417.486889506672	0
0	19077	3420.486109014279	1
0	19079	3420.652946576019	2
0	19083	3421.530909273173	1
0	19088	3422.254866549438	0
0	19094	3423.529328438728	1
0	19096	3423.57759690058	2
[...]
5	160482	27797.667524181326	12.720032644131
5	160492	27798.658596031613	10.866218995447
5	160504	27799.270361634121	10.57855661788
5	160514	27799.828078789999	8.524124567632
5	160536	27809.362726935615	11.570159567233
5	160928	27888.928253826635	79.691800945317
5	160933	27889.176810769236	77.539570754902
5	160942	27889.503103982569	75.078778047527
5	160955	27891.186771141531	75.993129961633
5	160962	27892.314527022301	76.295137949027
5	160985	27896.449805887818	80.245176617448
5	160999	27898.705537735144	82.161099534954
5	161023	27900.912706203878	81.932624826514
5	161044	27904.121388307392	80.967484372593
5	161177	27933.350260339711	109.7214858723
5	161182	27933.350554237286	106.71060654753
5	161188	27934.124743789901	106.48616855073
5	161196	27935.881519835519	102.61882796649
5	161212	27937.626405826282	90.440434818376
5	161242	27941.679574271279	90.267378539551
5	161257	27943.979663756925	91.422898382813
5	161342	27954.879807864794	99.428634813021
5	161347	27954.88508250496	96.954662272482
5	161352	27955.106365927111	97.003076384079
5	161360	27958.068305988512	84.857026577529
5	161380	27960.269158541439	81.943821367647
5	161418	27963.706459225009	74.259735327647
5	161424	27963.862650227213	68.500330871298
5	161430	27964.044211939012	64.714270524403
5	161435	27964.522138800495	64.261008648455
5	161452	27969.94761530901	67.499628464826
5	161477	27972.712708227297	58.590129938006
5	161488	27977.439955198301	54.686495959422
5	161508	27979.62687627936	51.250629260791
5	161519	27981.165842073871	45.007073316462
5	161527	27981.764332227897	34.510882238663
5	161632	27998.058112226841	50.057324031918
5	161638	27998.327499230103	38.896878304385
5	161644	27999.279162450661	37.061427312511
5	161652	28000.210187301969	37.57303860812
5	161664	28000.545358991248	34.304505487526
5	161678	28001.807741010359	35.165625426232
5	161715	28009.338412180307	40.513063002189
5	161754	28015.608726397311	45.397863948649
5	161792	28022.289706757954	36.818301274628
5	161799	28022.460582596298	34.043809257761
5	161817	28023.30196659957	33.290551570928
5	161823	28024.05868401145	33.958475331089
5	161830	28025.729001822249	29.414226985427
5	161848	28027.827499400432	31.299283292723
5	161873	28033.78804804665	26.170101702586
5	161888	28036.919204791947	23.412538312614
5	161929	28039.811197020725	25.776457973652
5	161934	28040.094994760761	21.840015218347
5	161938	28040.152891566112	1.562977737992
5	161984	28060.333567991905	1.547280617364
5	162147	28087.950182239656	27.177906826648
5	162159	28089.789221890321	25.30535483965
5	162165	28090.998534353339	25.198366967233
5	162170	28091.425458416951	19.122630466502
5	162175	28091.598773212041	15.459347123315
5	162183	28093.946940428255	13.945320718492
5	162201	28099.073720238503	14.270670582352
5	162205	28099.133815227619	0.362062096246
5	162224	28106.497505866373	1.512153039952
5	162228	28107.62719720217	2.053563297344
5	162262	28112.102250197172	1.322187121877
5	162269	28112.744827361249	1.708663564901
5	162277	28114.917617436163	2.826741562624
5	162282	28115.08705002668	2.743471804921
5	162299	28121.184254152322	6.507896568939
5	162407	28143.011878685415	21.704244685156
5	162412	28144.094841519113	10.980641693229
5	162421	28145.84406325122	9.923496499584
5	162429	28146.228083015304	9.882801787436
5	162436	28146.8626724797	10.097077003182
5	162441	28146.958509164676	10.153617465258
5	162446	28147.395140290142	8.767112498327
5	162451	28147.522528934829	6.501914892488
5	162460	28147.918210954709	6.087607808741
5	162481	28149.285001004062	3.53637997222
5	162511	28153.779556098087	7.552215469259
5	162516	28153.786934932716	5.512669527587
5	162527	28155.506164749854	6.519866852308
5	162572	28165.198591654621	13.912165112408
5	162584	28166.021925100244	8.095575662282
5	162589	28166.586915236525	5.382650391999
5	162593	28166.612234565336	0.618912834187
5	162606	28170.15228192922	2.753766235605
5	162622	28172.236759070442	1.008386036888
5	162626	28172.583142575092	0.509441372855
5	162634	28180.809697734818	6.307233923336
5	162657	28188.945079174923	4.441773532357
5	162681	28191.79619474751	4.640072543834
5	162688	28192.301502119782	2.062919110969
5	162722	28198.095563470022	0.465811647129
5	162743	28200.710081495263	2.52920331554
5	162760	28205.215293661271	0.030341320306
5	162794	28210.834165095203	0.349608838502
5	162843	28220.209730591644	3.171059071055
5	162848	28220.44960766637	3.055333957051
5	162871	28228.513366149875	10.227617769138
5	162968	28240.459047706919	20.808169468648
5	163037	28252.965656190744	30.124376440654
5	163236	28296.942416866222	61.56676785413
5	163242	28297.359785597818	58.42295025739
5	163249	28299.690736640609	59.965415065412
5	163606	28384.752897353971	144.50892558379
5	163617	28385.070023548419	142.62006827521
5	163627	28386.756890994653	142.50168892299
5	163673	28394.703385167797	142.67784111929
5	163724	28407.286359175409	148.41672217208
5	163759	28412.404157779698	150.83367486489
5	163773	28413.375830323569	148.91132740385
5	163793	28416.340146884395	150.36889609842
5	163807	28418.369192721259	149.78024440237
5	163868	28427.067375165587	155.41100387945
5	163885	28428.537319146762	154.28825363412
5	164084	28462.892544796956	184.02522480145
5	164119	28467.480042277524	186.13393460376
5	164135	28469.940768114837	186.16903968612
5	164169	28476.671382954715	191.64199419346
5	164174	28477.261925658105	190.05666628271
5	164179	28477.293051221577	181.16453992651
5	164186	28478.643317425239	181.88984848794
5	164193	28479.239595629586	168.82701570736
5	164198	28480.331482549719	151.7330927788
5	164205	28481.023487790848	141.69629489426
5	164217	28482.688230361602	139.64322781533
5	164222	28484.366513324223	127.13656823632
5	164232	28486.037164432266	127.09855867237
5	164252	28489.598668784902	124.41290038666
5	164257	28490.347879355296	124.3212041861
5	164262	28490.82150435695	121.42485746365
5	164269	28496.046715165206	126.24785569816
5	164286	28498.426023290782	128.0443264243
5	164295	28499.031696772145	128.45403185212
5	164310	28501.133724640781	126.27699101343
5	164316	28503.400632867392	127.15427296864
5	164325	28504.435339277959	127.26859362026
5	164444	28525.762967601976	148.29853309799
5	164449	28526.119722461641	141.00744593092
5	164455	28526.662858184621	136.37123631687
5	164465	28527.732571311258	129.72449757382
5	164480	28530.289606327347	131.27156378967
5	164499	28534.864483436221	133.29461876127
5	164504	28534.88270201748	124.85892376651
5	164509	28535.231664102588	117.01657800085
5	164515	28538.126734160875	117.13103561743
5	164520	28539.11515910782	117.71648978962
5	164536	28541.654113736793	114.19291195325
5	164574	28546.650320747822	117.83453442852
5	164583	28549.986552486428	119.80671691261
5	164588	28550.233176123999	115.45542148425
5	164600	28552.433594400489	116.94017583808
5	164615	28554.205393799542	113.34758482653
5	164638	28556.979452091839	113.63004694789
5	164646	28558.600248788669	114.79985245188
5	164656	28559.448223826673	111.44282800207
5	164665	28560.163103093061	104.83117339084
5	164677	28560.775272483299	105.44123218547
5	164688	28563.062421382628	107.12889124594
5	164705	28566.299677888462	110.1558088512
5	164716	28567.674117074163	106.0427512804
5	164727	28570.901259592315	103.13652853918
5	164753	28573.472085829506	103.66382267484
5	164763	28574.13214854178	95.055972377933
5	164768	28574.240419818881	92.026904209515
5	164778	28575.904323774965	70.441418420586
5	164783	28575.976131411289	69.924108920053
5	164788	28576.258226067552	58.73182962073
5	164799	28579.220511732771	60.742087129015
5	164809	28579.669302286219	58.159534697309
5	164815	28579.803765698513	52.659459672135
5	164830	28583.361441726758	43.176106799869
5	164896	28591.570210248889	47.965822973053
5	164901	28591.801325499404	48.134127356772
5	164909	28593.145709792052	48.162783719029
5	164914	28593.361805767336	46.284139799164
5	164919	28593.881175211782	42.239663488723
5	164932	28596.801912547412	44.78400303653
5	164951	28599.442710435853	46.149780952664
5	164964	28601.365633049046	45.45613200822
5	164975	28603.671845453381	43.02194641583
5	165001	28608.439476703867	46.324296364101
5	165063	28616.200512913734	50.57642465526
5	165084	28619.335658894878	53.285103245434
5	165108	28623.675250441522	54.920318686099
5	165125	28625.154297725057	53.895244762425
5	165137	28627.443779415743	55.193185334973
5	165143	28627.750550045005	52.870486444969
5	165148	28628.552832771624	53.099038098303
5	165154	28632.005107772933	55.114581154221
5	165162	28632.466035477281	50.632781071496
5	165180	28633.030842818088	48.060962497912
5	165186	28634.647292515271	44.832325493854
5	165191	28635.123268063899	42.358316476591
5	165205	28637.954185786382	37.495123106794
5	165210	28639.093776981154	37.695822908746
5	165216	28640.414968669787	37.722664625928
5	165221	28641.907485500597	39.058640813205
5	165233	28646.874505575554	40.914540909962
5	165259	28648.464294411977	41.621419097894
5	165268	28652.481946612318	43.010174556178
5	165278	28652.879954597625	43.218831567214
5	165299	28658.071836467437	43.344234595383
5	165334	28661.494857699411	46.678021052815
5	165339	28661.704166694109	44.541594795335
5	165345	28662.461593030527	44.837358371988
5	165354	28663.414153474451	28.009999230707
5	165367	28665.456750128511	28.411019293427
5	165376	28666.713459478698	29.350887115616
5	165395	28669.210443683632	26.299946242536
5	165452	28680.128907840731	31.855972869502
5	165459	28680.405549524991	23.417848130658
5	165469	28681.747345666625	24.144358236772
5	165482	28686.493227778572	28.003108274166
5	165566	28696.805382173527	33.523866938153
5	165571	28697.932032049655	32.296266922485
5	165576	28698.488357570365	31.700270156637
5	165581	28698.675336014448	31.401035731892
5	165586	28699.560716356195	31.794842266491
5	165594	28700.885143361714	25.780208777937
5	165606	28703.39219177368	27.347769758747
5	165615	28705.465608952667	27.945018450321
5	165624	28706.017465895278	27.545500353869
5	165635	28707.029025089788	24.688407056249
5	165652	28713.312448230821	25.651181758833
5	165679	28718.804983454252	25.145518721295
5	165707	28722.61001899311	27.354680528051
5	165747	28726.673782093763	22.088774213427
5	165768	28730.316758086815	24.390467253301
5	165787	28733.358795918793	26.035288479581
5	165794	28733.568510345874	24.79939680292
5	165800	28734.953858054169	16.333175746614
5	165807	28735.612525127745	15.274911689073
5	165819	28736.40655776265	10.426170391142
5	165825	28737.719300250307	11.30458187252
5	165835	28738.915774907807	8.908604514467
5	165848	28739.18570768479	7.889851028571
5	165852	28739.30077741861	0.137458552426
5	165901	28751.920568287487	0.796617800547
5	165943	28758.47807205299	5.846433610663
5	165970	28760.39543312618	7.028545998058
5	165980	28761.629805938796	3.735247822089
5	165993	28762.992301529052	4.413636954219
5	166006	28764.456307934923	4.138090666324
5	166015	28769.267983884826	6.469067363394
5	166038	28772.319583443527	8.55123040167
5	166050	28773.286401005563	0.669441528171
5	166069	28774.387260926031	0.974051510086
5	166087	28778.485732640501	1.053482912758
5	166101	28785.118874527476	0.134352791773
5	166143	28792.836485289346	3.135817511224
5	166158	28794.54975218873	4.516965376431
5	166169	28795.634808589368	4.827197421616
5	166176	28796.842152754339	3.082111527878
5	166206	28799.665072781842	0.927191102133
5	166238	28805.071717983878	5.894666209505
5	166254	28807.993887320408	4.867207799403
5	166271	28811.473942596334	0.649116375381
5	166313	28815.025628682547	2.983830873791
5	166323	28816.696043215298	4.629958129397
5	166445	28835.296358949224	21.265958995772
5	166606	28869.891890466536	48.729426781474
5	166611	28869.990723698725	46.892889548713
5	166618	28870.615732035376	36.842589454683
5	166624	28871.213907808671	34.622885215347
5	166635	28873.62164821817	35.217167139588
5	166645	28873.782920276119	31.30351533641
5	166653	28875.803221419388	32.551721990948
5	166668	28876.735250546352	33.356427517499
5	166688	28878.088570481435	34.026581621165
5	166865	28914.249575652229	65.629049809705
5	166880	28917.762572552753	68.677942117578
5	166897	28920.338407292213	64.093310273979
5	166904	28921.208312803535	64.644237683092
5	166916	28926.376476187852	67.662878847748
5	166928	28927.203803259589	64.998379470112
5	166967	28932.13239608572	61.98317735199
5	167012	28941.571176317449	62.014525596135
5	167022	28941.819307586699	57.558791253799
5	167035	28944.497054628418	54.271576569058
5	167058	28949.421367384065	56.719821075241
5	167076	28952.192321792706	52.96368740823
5	167082	28953.288848614103	45.328538321848
5	167088	28953.890262775103	41.104116131313
5	167099	28956.606112151388	43.567659674121
5	167163	28968.151410477556	53.6638373272
5	167168	28968.245962988657	50.730117961524
5	167174	28969.026850010561	49.547162751365
5	167183	28970.533339437294	39.954849265549
5	167192	28970.752514367251	32.451668926819
5	167218	28973.510374280853	35.175881888938
5	167223	28973.589864944526	30.162864387813
5	167232	28977.566402750912	33.236388798965
5	167260	28982.779485507506	38.261466800608
5	167274	28983.91992371	37.973297861486
5	167299	28987.89469310092	40.510650295759
5	167306	28988.826818291314	38.351582789183
5	167317	28991.25526941619	36.971015853375
5	167322	28991.845920036397	29.209159882104
5	167332	28994.872607113738	31.763706994883
5	167344	28995.7358789523	30.987514814321
5	167349	28997.628884249262	32.00327980994
5	167357	28999.370862701637	31.884491094861
5	167391	29003.942641019044	36.331136039777
5	167405	29005.852535255723	27.114417363672
5	167410	29006.49295656278	4.060192448668
5	167414	29006.650196856199	1.411105471905
5	167428	29009.100009798832	2.250478336398
5	167432	29009.345666098119	0.940527813198
5	167491	29027.53202120314	3.945680119494
5	167500	29028.890546372206	2.721948688694
5	167542	29036.902947407604	8.567604272897
5	167549	29037.583304634686	3.291998636249
5	167564	29038.796812340648	1.256568846088
5	167592	29041.910183647115	3.335001771865
5	167615	29045.752648981158	1.444460441058
5	167655	29052.835260040268	3.407758797231
5	167663	29053.780728494848	0.8305470172
5	167705	29061.834351429227	1.977249502147
5	167735	29064.729394591973	4.482144054288
5	167741	29065.64075114599	4.674226444321
5	167751	29068.41116435344	5.593765082643
5	167764	29070.306970944564	7.349742806742
5	167774	29071.546475928255	8.119854474325
5	167784	29071.829830588994	3.944731068793
5	167788	29072.092001370754	0.63928561155
5	167805	29080.758717671681	1.122548863842
5	167822	29084.663357813293	3.372414354335
5	167855	29091.079894363648	1.598873136441
5	167900	29098.429721116679	1.278741575857
5	168097	29140.088685909136	25.054226733172
5	168104	29140.750812499736	24.394750364027
5	168109	29141.004457896764	24.227515159192
5	168115	29142.036732749681	24.52388090621
5	168123	29142.902900207811	23.234444463214
5	168146	29145.41053691342	24.619124956167
5	168151	29146.264528259044	23.462323074611
5	168156	29146.782044544302	21.63767624059
5	168161	29147.014654065166	18.777349620895
5	168167	29147.892852835375	16.055327833094
5	168174	29149.451141882523	15.611268463913
5	168186	29151.45061237563	13.604302979032
5	168203	29158.401771486748	13.256080702819
5	168234	29160.54623754729	4.953063004509
5	168289	29167.921428677788	10.401357328222
5	168322	29174.408881681403	10.791096281491
5	168334	29175.54108852571	7.228701504441
5	168339	29175.672740642253	4.330305853239
5	168347	29176.521679034991	1.98169162937
5	168376	29181.055215895105	1.45992792344
5	168384	29182.397571493498	0.058076869791
5	168395	29184.654886180525	0.659666207812
5	168401	29185.271911905114	0.752989360466
5	168424	29190.479630818426	0.119416885586
5	168447	29194.406032532765	0.279551832813
5	168478	29199.787610443715	1.259287316602
5	168505	29202.549034125939	0.308023333915
5	168518	29204.912283963016	2.035923907454
5	168542	29209.792862734218	1.765680909283
5	168553	29210.513458613768	0.427604945924
5	168571	29213.838462977399	1.172511540405
5	168594	29218.717119534562	0.623834598031
5	168637	29225.94431686493	0.262264700294
5	168653	29228.253240533453	2.543429799299
5	168708	29232.790028372133	6.071024460402
5	168713	29232.823532952935	2.756785063983
5	168718	29233.125418294317	1.766629639453
5	168735	29238.699999210909	2.814847361655
5	168774	29247.764593688732	8.662333579551
5	168779	29247.880560954528	4.172493665469
5	168784	29248.224664578331	2.151292447649
5	168788	29248.480647050943	1.256258878681
5	168806	29254.230840808111	0.140066550559
5	168814	29254.507658344292	0.144141013605
5	168871	29260.934423409937	4.059282225118
5	168875	29261.158707209637	0.808974752953
5	168906	29267.52776468428	4.730910202043
5	168918	29269.041122518468	4.702249439219
5	168922	29269.334781411743	1.21730278736
5	168957	29273.637548103052	1.54474079888
5	168970	29274.957293166565	2.288074723138
5	168991	29277.078356622945	2.234792956004
5	169011	29279.676655936518	2.015078163755
5	169049	29283.495525060419	5.152991631062
5	169069	29289.865607376618	7.740916166471
5	169150	29309.082068354558	25.245438860878
5	169168	29310.634325993802	26.242244595684
5	169189	29316.016451916171	30.011850324116
5	169201	29318.132131420543	29.981974623149
5	169209	29318.895131610366	28.712083201045
5	169221	29320.856072455744	26.811996309348
5	169229	29321.671566444632	25.185194158803
5	169237	29325.414582650941	24.814588685103
5	169248	29326.121064600307	21.288292695535
5	169259	29327.336554276413	22.39810685402
5	169648	29400.639540577103	91.100636662428
5	169654	29401.244758528602	91.159687128002
5	169662	29402.624707730139	91.122754245821
5	169669	29403.167758601459	82.025637702502
5	169683	29403.649150506141	72.327618470133
5	169731	29412.370681817163	64.68576869337
5	169769	29415.537104352702	67.614280079878
5	169775	29416.381643844249	62.596551192903
5	169789	29419.029133068251	64.859560603598
5	169805	29420.307724857727	62.97318457328
5	169810	29421.226975739392	59.566530317236
5	169832	29425.24507317989	62.839785479926
5	169900	29437.87852408271	69.696430862687
5	169907	29438.494269784092	69.400052138205
5	169917	29442.127537664368	63.17099765791
5	169927	29442.978953400285	49.401336855259
5	170012	29462.914717499777	68.659517807676
5	170027	29465.96793981409	60.87679040265
5	170032	29466.278553570701	59.61327633526
5	170038	29467.834632901766	58.186340795421
5	170048	29469.771796888645	52.819672117125
5	170093	29479.589677273566	61.481507902855
5	170128	29483.178876675601	61.312017661045
5	170133	29483.930017918056	60.943876572541
5	170138	29483.939119492641	60.934864455562
5	170143	29486.136253447782	62.221109299943
5	170148	29486.185039149809	61.539134905109
5	170157	29489.367462767962	63.809273250524
5	170881	29633.863312490275	205.9787770128
5	170919	29639.890450146138	207.59870895303
5	170926	29642.156325768017	201.68436514403
5	170931	29642.390448902752	197.06671334113
5	170938	29642.625997151529	195.74373726773
5	170943	29642.713152885893	191.33592050878
5	170950	29643.903971612383	180.99372977595
5	170972	29651.18706853495	188.17133315017
5	171022	29656.511665466895	191.06938264282
5	171039	29658.063493037702	189.48319650186
5	171055	29660.802442519122	189.53115857152
5	171084	29665.150182201706	186.15749366883
5	171089	29665.326546004306	185.29669391221
5	171094	29665.451135013267	183.56227178827
5	171099	29665.872593324815	183.41501606653
5	171105	29667.579658636553	177.91443425827
5	171110	29667.725531401879	171.73028608155
5	171119	29670.228134329538	170.88634821736
5	171148	29674.568760743921	174.43756340298
5	171214	29684.400158820589	184.08223231785
5	171224	29688.383359068682	186.04559398569
5	171232	29688.716909703978	186.24830367574
5	171238	29688.820141744934	182.44861364518
5	171250	29692.383735170591	180.84124217734
5	171499	29739.08405972034	227.45714971978
5	171520	29740.571820093057	225.96299159476
5	171541	29742.901522865685	225.18632647658
5	171579	29747.79168158993	226.79126381045
5	171624	29759.266363470261	233.47716866046
5	171630	29759.960330558169	231.84087359038
5	171635	29760.101795960472	231.34548755454
5	171640	29760.805071321794	231.1153464243
5	171651	29762.340211385408	229.62469889647

