version 2
run First-n2-13-20191016-14:52:58-6676
attr configname First-n2
attr datetime 20191016-14:52:58
attr experiment First-n2
attr inifile omnetpp.ini
attr iterationvars ""
attr iterationvarsf ""
attr measurement ""
attr network org.omnetpp.queueing.Pizza
attr processid 6676
attr repetition 13
attr replication ""
attr resultdir results
attr runnumber 13
attr seedset 13
param **.PS.maxInventoriedPS 2
param **.U1.interArrivalTime exponential(2s)
param **.U2.interArrivalTime exponential(4s)
param **.PS.serviceTimeForInventoryU1 exponential(0.8s)
param **.PS.serviceTimeForInventoryU2 exponential(1.0s)
param **.PS.serviceTimeDirectU1 exponential(1.2s)
param **.PS.serviceTimeDirectU2 exponential(1.4s)
param **.PS.probabilityProducing 0.5
param **.CS.serviceTimeU1 exponential(0.8s)
param **.CS.serviceTimeU2 exponential(1.0s)

vector 0 Pizza.EntryQueueU1 queueLength:vector ETV
attr interpolationmode sample-hold
attr title "queue length, vector"
vector 1 Pizza.CS queueLength:vector ETV
attr interpolationmode sample-hold
attr title "queue length, vector"
vector 2 Pizza.EntryQueueU2 queueLength:vector ETV
attr interpolationmode sample-hold
attr title "queue length, vector"
vector 3 Pizza.sink lifeTime:vector ETV
attr interpolationmode none
attr title "lifetime of arrived jobs, vector"
attr unit s
vector 4 Pizza.sink lifeTimeU2:vector ETV
attr interpolationmode none
attr title "lifetime of arrived jobs, vector"
attr unit s
0	0	0	0
0	5	3.549890252068	1
0	13	7.02760041119	2
0	14	8.239772737911	1
0	18	8.905913062476	2
0	21	10.18247065087	1
0	26	11.10461582422	0
0	38	11.893908381753	1
0	41	12.70405841711	0
0	45	13.169682580827	1
0	49	14.133667392739	0
0	62	15.447601080038	1
0	65	15.771880634189	0
0	101	22.352264943218	1
0	102	23.536007363466	0
0	141	30.138211036865	1
0	143	30.794615129974	2
0	145	30.935283025614	3
0	147	31.171034724125	4
0	148	31.582445713708	3
0	153	32.368232880874	2
0	158	32.451413811381	1
0	162	33.488301270984	2
0	168	34.051857965412	3
0	170	34.443205729595	4
0	173	36.037976440747	3
0	178	36.439804060089	2
0	182	36.722730710656	3
0	184	37.36729065058	4
0	188	37.518327199514	5
0	189	37.894550120253	4
0	195	38.557789152361	5
0	197	38.726129554213	4
0	203	39.959570998711	5
0	205	39.984634220157	6
0	207	42.082618305506	5
0	212	43.002435049756	4
0	217	43.37053923083	3
0	222	43.939526814153	2
0	226	44.140104167323	3
0	228	45.157799894553	4
0	230	45.45099461716	5
0	232	45.816317194003	6
0	234	46.355687618815	7
0	238	46.43730594337	8
0	240	48.097177047821	9
0	242	48.984686777512	10
0	243	49.07230966205	9
0	248	49.215714638771	8
0	253	51.685107806195	7
0	260	55.179259348425	6
0	266	55.369872178824	7
0	272	57.368874378092	8
0	275	57.914417098775	7
0	280	58.11057971378	6
0	286	59.046370360551	5
0	291	59.063678925697	4
0	296	59.417312321115	3
0	302	61.091846430207	4
0	306	61.155211392584	5
0	307	61.839753810166	4
0	313	63.541440950484	5
0	315	64.192129991927	6
0	318	64.309461590826	5
0	324	66.865125877889	6
0	329	68.131963252702	5
0	334	68.187956997419	4
0	339	69.295348406178	3
0	344	69.684034025479	2
0	348	69.941995022956	3
0	351	70.228209570098	2
0	355	70.451282232192	3
0	357	70.520096064229	4
0	361	71.645313698469	3
0	366	71.802238606202	2
0	374	75.080265450507	3
0	376	76.640338038615	4
0	377	76.744668862102	3
0	385	80.152917517079	2
0	390	80.170653051304	1
0	396	80.68968103668	0
0	435	85.553145834407	1
0	439	86.071346499499	0
0	445	88.156764987106	1
0	450	88.61856700719	0
0	454	88.935010549368	1
0	457	90.00262367507	0
0	477	93.237460730263	1
0	479	93.498432714765	2
0	480	93.596093113237	1
0	486	94.055189747269	2
0	487	95.084539710344	1
0	492	95.233181779052	0
0	528	105.41786170588	1
0	529	105.893916678109	0
0	545	108.048548043552	1
0	546	108.617601076532	0
0	555	108.810236310932	1
0	557	109.065017220804	2
0	559	109.194684310923	3
0	561	110.190472372451	4
0	569	112.729175553684	5
0	570	113.498864915311	4
0	575	113.681993107739	3
0	583	114.100326854914	2
0	590	115.008519978082	1
0	594	115.123207512003	2
0	598	115.990980965383	1
0	602	117.413317326019	2
0	604	117.835663842248	3
0	606	117.983872383056	4
0	608	118.35607530888	5
0	611	119.36339543362	4
0	615	119.642763960767	5
0	619	119.990830554719	6
0	621	120.219747263144	7
0	623	120.713983265379	8
0	626	122.509392445394	7
0	633	128.064884786639	6
0	638	129.860086973023	5
0	642	129.949897819757	6
0	646	130.4353475947	7
0	648	130.882793153811	8
0	650	131.055779104356	9
0	651	132.891616301829	8
0	656	134.881423823878	7
0	662	135.060633081958	8
0	666	135.55640576083	7
0	672	136.169622947967	8
0	674	136.854358169652	9
0	677	138.105933267675	8
0	683	139.995857916041	7
0	690	140.278132005213	6
0	695	141.841355476996	5
0	699	142.056396761551	6
0	706	144.186877547132	5
0	713	144.371768934363	6
0	715	145.152695359085	7
0	716	145.619092423067	6
0	721	146.474199835199	5
0	726	146.784778803595	4
0	730	147.422882383513	5
0	733	149.743637994148	4
0	737	149.799827630585	5
0	742	151.951579324885	4
0	753	153.670701071844	3
0	757	153.890157783427	4
0	760	154.454407220524	3
0	766	154.636998845673	2
0	773	154.942517117532	1
0	779	156.817023782902	0
0	786	157.691576650582	1
0	788	157.808642593147	2
0	789	158.03701582566	1
0	795	158.038931220968	2
0	797	158.199770077859	3
0	798	158.485239732301	2
0	803	158.68068336419	1
0	808	159.378869666007	0
0	846	164.995742215197	1
0	848	165.088945892658	2
0	850	165.663217417853	3
0	852	166.258150163765	2
0	857	166.271182980509	1
0	862	166.30583859558	0
0	891	170.267762903176	1
0	892	170.679563350964	0
0	913	173.470957908689	1
0	918	174.456097833339	0
0	948	187.788104983934	1
0	949	187.863318355934	0
0	955	188.182561962051	1
0	956	188.29350927318	0
0	972	192.076299585112	1
0	975	195.05958139407	0
0	982	195.746087301075	1
0	985	196.099454718136	0
0	992	196.470190762801	1
0	994	196.487407056562	2
0	995	196.703033218302	1
0	1000	196.752787521201	0
0	1014	197.748543567118	1
0	1017	198.267840046935	0
0	1021	198.997673863242	1
0	1025	200.706608999726	2
0	1031	201.383861411365	1
0	1035	202.284471955032	2
0	1037	202.591032669585	3
0	1049	205.013493405732	4
0	1059	207.378330504646	5
0	1060	207.808999779979	4
0	1067	208.248603690606	3
0	1074	209.035789975602	2
0	1080	209.837097167515	1
0	1085	210.594108176081	0
0	1094	211.225524414569	1
0	1096	211.301993884258	2
0	1097	211.401597403446	1
0	1103	212.611671533571	2
0	1106	213.163103016184	1
0	1114	214.224808359554	2
0	1118	214.716453369865	1
0	1123	214.734188472362	0
0	1134	215.529434920316	1
0	1136	215.815172652079	2
0	1139	216.412946163963	1
0	1145	217.333298220268	2
0	1146	217.603091740543	1
0	1150	219.28342840843	2
0	1160	222.233303801982	1
0	1165	223.616023166648	0
0	1169	224.30244167577	1
0	1171	225.554421136282	2
0	1173	226.04305572546	3
0	1175	227.80817012685	4
0	1177	228.242101549956	5
0	1183	229.65449488869	6
0	1187	231.000213443799	7
0	1188	231.070324128952	6
0	1193	232.46948750398	5
0	1197	232.719494398056	6
0	1204	237.670218808677	5
0	1210	238.503817381665	6
0	1213	238.815859961758	5
0	1217	239.8420363989	6
0	1221	241.785617736285	7
0	1227	242.826378578547	6
0	1232	243.155437952514	5
0	1238	244.005310946875	4
0	1243	244.347459050252	3
0	1248	245.140560270643	2
0	1254	246.351914992745	1
0	1259	246.671965091822	0
0	1263	247.784001343397	1
0	1268	249.30719469837	0
0	1272	250.936806978964	1
0	1275	251.684687523178	0
0	1279	252.455054870994	1
0	1282	254.706438537968	0
0	1293	256.084204960294	1
0	1295	256.503985120353	0
0	1299	257.177573715988	1
0	1303	258.996328446321	0
0	1309	260.277521915823	1
0	1310	260.531004990305	0
0	1316	262.066857019542	1
0	1320	262.857270660548	2
0	1321	263.461350467958	1
0	1328	264.746601942846	0
0	1332	264.787523469893	1
0	1335	266.857032447001	0
0	1343	268.760419033699	1
0	1346	269.162480091477	2
0	1348	269.539272399483	1
0	1355	271.236959964811	2
0	1356	271.378730791222	1
0	1361	271.643262038755	0
0	1396	276.409053304198	1
0	1397	276.598745259062	0
0	1406	277.738900214058	1
0	1408	278.119880136392	2
0	1412	278.751868621228	3
0	1415	280.837225395751	2
0	1420	281.017438895574	1
0	1427	282.103781749438	2
0	1428	282.461323361281	1
0	1434	282.574465090751	2
0	1437	285.94556017151	1
0	1443	286.923225763469	2
0	1447	287.449826771238	3
0	1449	287.560260324747	4
0	1453	289.236631930889	5
0	1454	290.509411015492	4
0	1459	291.48698729864	3
0	1464	291.804567629502	2
0	1469	292.334586031644	1
0	1475	293.144322500867	2
0	1476	293.454603621526	1
0	1483	293.878588966534	0
0	1487	293.944396626226	1
0	1492	296.304891208646	0
0	1496	296.728716127056	1
0	1502	302.665436480838	2
0	1504	302.877039814297	3
0	1506	304.191205880222	4
0	1510	304.641168615223	3
0	1515	304.862967892298	2
0	1520	305.88953386426	1
0	1526	308.305380781551	2
0	1529	309.084569634721	1
0	1540	310.448374760562	2
0	1546	311.834220952421	3
0	1547	311.837379508288	2
0	1557	313.263527181164	3
0	1558	313.606107087691	2
0	1563	313.818042433754	1
0	1568	316.077893382326	0
0	1572	317.513135734389	1
0	1575	317.705791623709	0
0	1587	319.20832461057	1
0	1592	319.937574605305	2
0	1593	322.529232762718	1
0	1598	322.633578072929	0
0	1602	323.114381875803	1
0	1607	324.208715694518	0
0	1642	328.472761206691	1
0	1643	328.50319450833	0
0	1649	329.485539789051	1
0	1651	329.93796064299	0
0	1672	332.859738002864	1
0	1673	333.728722408917	0
0	1679	334.022266306648	1
0	1681	334.297897728609	0
0	1690	334.992941623015	1
0	1692	336.004298165156	2
0	1695	337.255645371409	1
0	1700	337.960173460996	0
0	1718	340.823069504007	1
0	1719	341.084808365241	0
0	1725	341.898865990111	1
0	1730	343.530499242161	0
0	1770	353.51609642259	1
0	1772	354.27402356113	2
0	1773	354.371012666385	1
0	1778	354.566299368772	0
0	1790	355.642658463241	1
0	1793	356.47647866856	2
0	1796	356.700203018336	3
0	1798	357.125210996746	4
0	1800	357.328978056174	5
0	1803	358.829679680969	4
0	1810	359.929874240561	5
0	1811	360.454447711468	4
0	1816	360.754499888183	3
0	1821	361.599000981859	2
0	1828	366.28258016322	1
0	1833	366.555536901042	0
0	1854	369.819558108236	1
0	1856	370.928543725947	2
0	1859	372.042651423658	1
0	1868	373.794795127013	0
0	1877	373.84211352832	1
0	1884	374.775441953444	0
0	1888	375.288799740158	1
0	1891	376.282162699502	0
0	1895	376.812560823799	1
0	1899	378.675606871411	2
0	1900	378.963836046537	1
0	1907	381.101168769425	0
0	1911	381.294313639573	1
0	1913	382.15076361036	2
0	1916	382.507489781247	1
0	1921	383.188240168495	0
0	1927	383.276584998046	1
0	1930	385.792504353903	0
0	1941	388.669174952483	1
0	1942	388.992584389529	0
0	1948	390.415725024819	1
0	1950	391.771801063399	2
0	1954	395.294484156921	3
0	1958	397.125540624132	4
0	1962	398.291173312106	3
0	1968	398.334975594065	4
0	1976	401.203626308458	3
0	1981	401.923059058251	2
0	1985	403.432148837569	3
0	1987	403.69335353977	4
0	1992	405.820856937067	3
0	1996	405.967716478084	4
0	2000	407.353805258449	5
0	2004	407.625882958905	6
0	2010	409.270124729658	7
0	2011	409.55478086322	6
0	2015	410.039039426387	7
0	2017	410.673436374231	8
0	2022	411.657421076035	7
0	2028	412.665522632609	6
0	2033	412.794390030605	5
0	2040	413.502508392176	6
0	2042	413.88434364543	5
0	2047	414.441480861036	4
0	2052	414.620406615571	3
0	2057	414.843587913519	2
0	2063	415.979924601329	3
0	2064	415.982499810353	2
0	2072	417.209414344423	3
0	2073	417.263270597569	2
0	2077	417.795599576069	3
0	2081	419.446336216625	4
0	2082	419.85611141046	3
0	2088	420.106978871744	2
0	2094	420.329236078742	1
0	2099	421.150905939208	0
0	2103	422.212513905051	1
0	2107	422.334228365583	2
0	2108	422.909762999901	1
0	2112	424.696441750822	2
0	2114	426.218167120033	3
0	2120	427.388021212075	4
0	2123	427.71126109546	5
0	2124	428.785930573271	4
0	2129	428.967870276849	3
0	2137	429.348565712689	2
0	2142	429.699606360857	1
0	2151	431.527564526031	0
0	2157	431.617893325991	1
0	2159	431.832850743965	2
0	2161	431.909713054572	3
0	2162	432.237273569714	2
0	2167	434.928976625449	1
0	2171	435.818640646787	2
0	2177	437.857375661083	1
0	2182	438.187716929775	0
0	2206	441.650409105264	1
0	2208	441.715153568378	2
0	2210	444.508673364102	3
0	2211	445.972775029719	2
0	2218	446.649653599505	3
0	2221	447.979082142096	4
0	2223	448.824232679775	5
0	2224	449.14015067051	4
0	2229	449.20043189828	3
0	2237	449.811936227408	2
0	2243	450.661682067783	3
0	2245	451.235328464834	4
0	2251	452.716976814191	5
0	2252	452.787207225648	4
0	2258	455.928280589263	5
0	2261	457.431189930523	4
0	2265	457.966341519643	5
0	2269	459.276785825496	4
0	2274	461.076872725755	3
0	2279	462.210773373688	2
0	2283	462.800359331687	3
0	2286	463.018590007165	2
0	2291	464.439982154173	1
0	2296	465.108935148793	0
0	2302	466.147354298497	1
0	2304	466.176405402233	2
0	2305	466.486996693939	1
0	2309	467.01222890338	2
0	2311	467.923375517205	3
0	2313	469.322926568552	4
0	2317	469.626253849658	5
0	2318	469.866947330473	4
0	2326	471.674330057359	3
0	2331	472.167889674519	2
0	2337	472.30734772689	3
0	2338	473.102663099302	2
0	2342	473.249376826483	3
0	2349	474.481292429845	4
0	2350	474.528713131041	3
0	2355	474.626190748056	2
0	2359	476.118189986066	3
0	2364	478.27665405295	2
0	2373	480.474561134816	1
0	2382	481.088383609253	0
0	2402	484.862053558328	1
0	2403	486.834814045769	0
0	2412	487.665225547185	1
0	2413	487.915139826985	0
0	2424	488.144515330217	1
0	2427	488.763807677383	2
0	2428	489.490794287385	1
0	2433	489.722118150539	0
0	2439	490.033153117117	1
0	2440	490.779551389746	0
0	2456	492.695580798426	1
0	2457	493.045527967626	0
0	2463	494.853362885507	1
0	2466	495.573001728069	0
0	2479	500.42447274491	1
0	2485	504.540928442353	0
0	2498	506.618497418062	1
0	2500	506.796466449089	2
0	2502	509.447898374654	1
0	2506	509.854474078587	2
0	2509	510.651549550876	1
0	2513	511.195251291833	2
0	2515	511.535481213478	3
0	2517	512.658612303311	4
0	2521	513.583582514215	5
0	2523	513.767244354903	4
0	2528	513.927008464336	3
0	2532	514.355113673945	4
0	2539	517.806492143815	3
0	2544	517.863038619753	2
0	2550	518.96927806426	1
0	2558	520.583184111169	2
0	2559	520.951067823143	1
0	2566	522.884401575523	0
0	2570	523.25821086232	1
0	2572	523.405808605075	2
0	2575	524.499067230946	1
0	2581	524.849620566273	2
0	2583	526.127895165454	1
0	2588	526.204515572067	0
0	2592	526.810182086455	1
0	2597	527.710004541614	0
0	2612	529.07840418242	1
0	2614	529.501236971602	2
0	2619	531.755788601591	3
0	2622	533.451685634639	2
0	2628	533.640954713262	3
0	2630	534.316694573581	2
0	2635	535.007307683126	1
0	2644	535.806365607276	0
0	2657	537.058683088393	1
0	2660	537.511923213094	0
0	2666	538.808978369543	1
0	2668	539.310787841485	2
0	2669	540.332654724922	1
0	2676	541.000102280365	0
0	2680	542.106010020413	1
0	2685	543.608547380822	0
0	2703	546.599185359679	1
0	2704	546.637542097115	0
0	2710	546.650883183477	1
0	2712	547.416657081031	0
0	2757	554.275864741772	1
0	2761	554.612527686508	2
0	2762	555.643715792563	1
0	2768	556.885322769248	0
0	2777	558.307116051785	1
0	2778	558.35089089109	0
0	2812	560.973224451699	1
0	2814	561.778444648874	2
0	2817	563.490457363824	1
0	2821	563.664209227389	2
0	2823	563.690077655787	3
0	2825	563.831178011845	4
0	2827	565.168016173359	5
0	2830	565.536837441756	4
0	2837	566.656245119045	5
0	2840	566.995002935134	4
0	2848	568.207606803805	5
0	2851	568.527791801214	6
0	2853	570.672823873134	5
0	2858	571.408217512753	4
0	2865	572.057973231016	3
0	2870	572.333449104379	2
0	2876	572.501610771893	3
0	2878	573.778752381861	4
0	2879	574.082444074754	3
0	2884	575.090592550352	2
0	2890	576.567569151802	3
0	2891	576.939456683348	2
0	2896	579.066888362617	1
0	2900	579.129382795455	2
0	2906	583.757523230904	3
0	2910	584.907101831754	4
0	2911	585.25308277298	3
0	2915	586.510589132235	4
0	2917	587.077335157564	5
0	2919	587.799278560049	6
0	2922	588.633975509345	5
0	2926	589.362092940002	6
0	2933	591.80660007281	5
0	2937	592.966268225726	6
0	2940	593.915200758092	5
0	2946	594.570494282167	6
0	2948	594.733718370273	7
0	2952	595.27774992951	8
0	2953	596.150909045429	7
0	2957	597.013886304856	8
0	2959	598.998285947845	9
0	2961	600.171729112592	10
0	2965	601.411641562878	9
0	2971	602.821153977607	8
0	2977	603.205278599484	9
0	2979	603.383759898731	10
0	2981	603.856028366941	11
0	2982	603.943893865622	10
0	2988	604.859407935762	9
0	2994	605.056245501162	10
0	2995	605.20821815299	9
0	2999	605.803835620711	10
0	3008	609.227513031318	9
0	3012	609.821532402529	10
0	3015	611.317471791344	9
0	3019	611.398392056309	10
0	3021	612.775468524582	11
0	3023	614.011019357631	12
0	3025	615.909567913128	13
0	3029	616.829328656278	14
0	3033	618.491978814928	15
0	3034	618.889343622851	14
0	3041	619.870797756478	13
0	3045	620.027023496944	14
0	3047	620.483443724012	15
0	3055	622.16701847574	14
0	3063	622.532018624388	15
0	3064	622.540128655999	14
0	3070	624.48212140033	15
0	3074	625.545265720894	16
0	3075	625.740957865786	15
0	3081	626.626256330422	16
0	3083	626.631446598674	17
0	3084	626.729749370599	16
0	3088	627.065022546494	17
0	3092	628.344177095565	18
0	3094	628.858079333297	19
0	3095	629.229975822635	18
0	3101	631.159346109823	19
0	3103	631.531382903329	20
0	3105	631.542453471121	21
0	3110	633.128188496087	20
0	3114	634.261977860414	21
0	3117	634.838871717043	20
0	3125	637.390057933035	21
0	3127	637.963854815874	20
0	3133	638.282766679231	21
0	3135	639.453950504629	22
0	3137	639.774500348741	23
0	3140	640.486250658428	22
0	3144	641.80415203891	23
0	3146	642.255548134399	24
0	3149	642.961773416526	23
0	3155	643.740864147531	22
0	3162	645.266108718413	21
0	3169	646.017217361003	22
0	3170	646.486828813915	21
0	3175	646.651506637737	20
0	3180	646.860576502445	19
0	3187	648.898932631363	18
0	3194	650.43694320982	17
0	3200	650.446859674848	18
0	3201	650.44995759156	17
0	3208	650.996362542414	16
0	3213	651.115769242739	15
0	3218	651.158101640166	14
0	3224	651.968730652488	15
0	3226	652.158046928136	16
0	3228	652.699838363446	17
0	3231	654.954885937689	16
0	3238	656.505189755857	15
0	3242	657.187576052599	16
0	3244	657.955039818339	17
0	3249	660.543273259305	16
0	3254	660.947704756629	15
0	3260	661.429604624223	14
0	3266	662.047698716952	13
0	3271	662.14853016663	12
0	3275	662.443182650734	13
0	3279	662.692012346918	14
0	3281	663.897492667711	13
0	3287	664.129192063765	14
0	3288	665.029089358023	13
0	3294	666.160400101059	14
0	3298	667.127890120595	15
0	3299	667.263076439273	14
0	3306	669.449874432362	13
0	3312	672.032714678069	14
0	3319	673.946684965884	13
0	3324	674.006965579479	12
0	3330	674.980931640704	13
0	3331	675.177978738654	12
0	3335	675.738887857669	13
0	3338	677.251689332727	12
0	3344	678.352011668362	13
0	3348	680.180225095042	14
0	3350	680.392488645295	15
0	3353	681.136580616749	14
0	3358	682.306726615373	13
0	3364	682.322285269046	14
0	3365	683.007396601768	13
0	3370	684.699207808282	12
0	3377	685.835728881063	11
0	3383	686.104396249073	10
0	3389	687.108467113413	11
0	3392	687.837443080713	10
0	3399	689.243028263407	11
0	3400	689.499626666782	10
0	3405	689.739611361358	9
0	3410	689.800847115387	8
0	3414	689.833460129541	9
0	3417	691.746621253767	8
0	3421	697.137935126806	9
0	3426	697.591771069606	8
0	3432	697.821675745214	7
0	3437	698.099681483842	6
0	3441	699.271086442909	7
0	3443	700.844614103879	8
0	3445	701.127284764308	9
0	3447	701.24835738209	10
0	3450	701.978655823426	9
0	3456	703.311503109091	8
0	3463	704.062591282406	7
0	3468	704.387295696458	6
0	3473	704.404664708509	5
0	3480	706.101170905511	4
0	3485	706.371427217019	3
0	3491	706.762249980416	4
0	3492	706.991296820766	3
0	3498	708.484027524439	4
0	3499	708.622455582001	3
0	3503	709.43876229427	4
0	3506	710.384020194915	3
0	3511	713.406889721897	2
0	3517	714.613130881516	1
0	3522	715.495696921266	0
0	3534	716.587842740711	1
0	3538	717.446619747335	2
0	3539	717.816684888028	1
0	3546	718.302612215113	2
0	3547	718.656003590734	1
0	3552	718.861524177531	0
0	3569	719.514997430847	1
0	3571	719.524280673257	2
0	3574	720.693466569332	1
0	3580	721.476841471402	0
0	3584	721.486968903457	1
0	3586	722.67628203162	2
0	3591	723.552135596689	1
0	3597	724.355766232507	2
0	3598	724.379953878839	1
0	3606	725.220520498493	2
0	3607	725.353378577928	1
0	3614	725.883710318447	2
0	3619	727.693083570549	1
0	3625	727.895263426578	2
0	3627	728.228962009619	1
0	3633	728.327968500649	0
0	3639	728.396630740138	1
0	3641	729.032709833092	0
0	3652	730.061549817824	1
0	3654	730.636176064222	2
0	3657	731.055969594547	1
0	3665	731.697194401066	2
0	3667	731.795132742938	3
0	3668	731.906133926949	2
0	3674	731.944649314248	3
0	3675	732.170013919239	2
0	3679	733.102235977374	3
0	3681	733.335580657482	4
0	3683	733.467006773091	5
0	3689	739.179166369137	6
0	3690	739.34862085055	5
0	3700	740.453182387819	6
0	3705	742.104411539807	7
0	3706	742.403816056686	6
0	3712	743.168175980271	7
0	3713	743.307919259321	6
0	3718	743.975253531964	5
0	3724	744.476735715734	4
0	3729	744.53884331458	3
0	3734	744.689777795509	2
0	3738	745.678125301048	3
0	3742	746.483154501116	4
0	3744	747.17256313583	5
0	3746	747.35382340017	6
0	3750	748.732039027185	7
0	3751	749.000060337198	6
0	3761	752.885461245947	5
0	3767	752.997760298619	6
0	3769	753.124181196257	7
0	3771	753.8675576199	8
0	3772	754.306648641819	7
0	3787	756.798519703604	6
0	3791	759.101358660814	7
0	3794	761.906052108486	6
0	3798	762.321655101496	7
0	3800	762.619226026421	8
0	3802	763.340379023747	9
0	3807	763.940308379418	8
0	3814	764.491364625973	9
0	3816	764.712100645429	10
0	3817	764.781611533229	9
0	3826	768.080870340568	8
0	3832	768.753870819969	9
0	3833	769.086379170646	8
0	3838	769.676051615353	7
0	3843	770.721364835639	6
0	3849	770.899715469366	7
0	3850	771.378928649925	6
0	3856	772.329246868995	5
0	3861	773.299995297276	4
0	3867	773.737850945692	5
0	3868	774.462716435116	4
0	3872	774.53413122911	5
0	3874	775.592937678177	6
0	3876	776.136323177513	7
0	3879	776.269286034039	6
0	3883	776.800543469144	7
0	3885	777.784546670991	8
0	3891	778.761982810718	7
0	3897	778.805630142723	8
0	3902	779.791763486533	7
0	3907	780.238424567661	6
0	3912	781.79753059192	5
0	3917	782.178047476552	4
0	3921	782.303245954614	5
0	3923	783.752723798374	6
0	3925	784.547029797003	7
0	3928	785.185461895791	6
0	3934	787.034354997524	5
0	3940	787.389215336733	6
0	3942	787.771981365553	7
0	3943	788.698848011775	6
0	3949	790.944934134534	7
0	3951	791.235611279109	8
0	3953	791.567447596406	9
0	3955	791.893841398304	10
0	3959	793.020296309569	11
0	3961	793.262668673774	12
0	3963	793.654716023227	11
0	3973	795.619493757236	10
0	3979	796.10470339085	11
0	3982	797.647033314722	10
0	3988	798.415280713893	9
0	3993	798.713727149825	8
0	3999	798.877213393814	7
0	4004	799.279074294077	6
0	4013	802.14101725429	5
0	4021	805.051287446169	6
0	4026	806.041716913884	5
0	4032	806.701462366331	6
0	4036	807.95840410708	5
0	4041	808.027410043253	4
0	4047	808.555429855568	5
0	4049	809.033668426613	6
0	4053	809.552557448566	7
0	4055	810.381449726733	8
0	4056	810.747506709491	7
0	4064	813.015777874013	6
0	4069	813.194281698013	5
0	4077	814.470646965972	6
0	4078	814.932746530572	5
0	4083	815.019089922158	4
0	4088	815.216478089064	3
0	4092	816.654731919592	4
0	4095	819.620154836362	3
0	4103	822.869492516186	2
0	4108	823.329059711498	1
0	4112	824.13007958744	2
0	4114	824.579027117413	3
0	4116	824.824097007	4
0	4119	826.12711018605	3
0	4123	828.115353719766	4
0	4128	829.371344432209	3
0	4133	830.417146494467	2
0	4143	834.045165304355	1
0	4148	834.490444528025	0
0	4179	840.573269029841	1
0	4183	841.681477957245	2
0	4184	842.404094984351	1
0	4190	844.240217731044	0
0	4226	850.298270991144	1
0	4229	851.01880571897	0
0	4240	852.714552104336	1
0	4248	855.72776303641	2
0	4250	855.741072190264	3
0	4253	857.757044062199	2
0	4258	858.452129682839	1
0	4265	860.416850522516	2
0	4267	861.505088840537	1
0	4272	861.517877790488	0
0	4282	863.234778610472	1
0	4284	863.525686183912	2
0	4286	863.749713551617	3
0	4287	864.619612409073	2
0	4292	865.02306826343	1
0	4298	867.317360496701	0
0	4319	868.01393169501	1
0	4320	868.051251028431	0
0	4324	870.114477721546	1
0	4326	871.770378247867	2
0	4329	872.721337968684	1
0	4336	873.148303250603	0
0	4353	877.121228128246	1
0	4359	877.655721461291	0
0	4363	877.8426875138	1
0	4365	877.928499175784	2
0	4367	878.08841127625	3
0	4370	878.504803971539	2
0	4375	881.199960330684	1
0	4383	881.83713224719	0
0	4389	882.309359588823	1
0	4392	883.05936320888	0
0	4403	886.136632709613	1
0	4406	886.521055608269	0
0	4410	886.544914059683	1
0	4413	888.542278561772	0
0	4417	888.821797578788	1
0	4420	889.586003872002	0
0	4433	890.835545090171	1
0	4437	891.52271795379	2
0	4438	891.695029723559	1
0	4443	892.040657433245	0
0	4459	895.230588402904	1
0	4460	895.478485998133	0
0	4474	895.838855884088	1
0	4478	897.711147672391	2
0	4482	897.750353499997	3
0	4484	897.80706120293	4
0	4488	898.364710213455	5
0	4491	899.136741886864	4
0	4496	899.409167891645	3
0	4502	899.563177058242	4
0	4504	900.005653189803	5
0	4507	901.93456778938	4
0	4512	902.170980761943	3
0	4518	902.396883035403	4
0	4519	902.496367622604	3
0	4526	904.218891034728	2
0	4530	904.856635356619	3
0	4533	905.481130622289	2
0	4538	905.774400904635	1
0	4543	907.240719033327	0
0	4568	911.957784298184	1
0	4569	912.059057186199	0
0	4573	912.387989934232	1
0	4575	912.480006682704	2
0	4580	914.427023335042	1
0	4588	916.437633161573	2
0	4589	916.514810197546	1
0	4593	916.889755256082	2
0	4595	916.934482155559	3
0	4601	917.988212887944	4
0	4602	918.13178412282	3
0	4606	918.553473307494	4
0	4610	919.67932511328	5
0	4613	920.963761989548	4
0	4618	921.764634136589	3
0	4627	923.286867584444	2
0	4632	925.110086946464	1
0	4637	926.038853295001	0
0	4641	926.33783051607	1
0	4644	927.59151413974	0
0	4648	928.840274869099	1
0	4652	931.345027719602	2
0	4654	931.544297174166	3
0	4658	934.428248623284	2
0	4663	934.692114480164	1
0	4669	936.111381725506	2
0	4672	936.45156883342	1
0	4678	938.083746263366	0
0	4702	939.818380735545	1
0	4706	941.042232493375	2
0	4707	941.132919536195	1
0	4712	941.453950756468	0
0	4727	941.872378911722	1
0	4729	942.083163686564	2
0	4731	942.695164865141	3
0	4733	942.7173640191	4
0	4738	943.910668756282	5
0	4739	944.394678143239	4
0	4744	944.692527887265	3
0	4748	944.837838020639	4
0	4750	945.703211015171	5
0	4752	945.89922177916	6
0	4758	949.772890849924	5
0	4764	950.098577395849	4
0	4768	950.983189740804	5
0	4772	951.0825183401	6
0	4773	951.655097634	5
0	4780	952.165284067032	6
0	4781	952.26685885313	5
0	4786	952.599226682826	4
0	4792	953.546553010581	5
0	4794	953.764761028144	6
0	4795	953.784517431004	5
0	4801	955.706378472501	6
0	4802	955.725532192125	5
0	4809	959.55114617375	4
0	4813	961.424123571003	5
0	4815	961.956042272	6
0	4817	962.003119524308	7
0	4820	962.984038459476	6
0	4825	964.462618581033	5
0	4832	965.384506394544	4
0	4836	965.673508663051	5
0	4839	967.555758362864	4
0	4845	968.30828874723	5
0	4846	968.337736379389	4
0	4852	969.290541035561	3
0	4859	970.21719015621	2
0	4863	971.281894813604	3
0	4868	972.368080808041	2
0	4874	975.339397176331	3
0	4875	975.755768108856	2
0	4881	977.247271587628	3
0	4883	977.915859776949	4
0	4884	977.993514213596	3
0	4888	978.266058773689	4
0	4890	978.504680921116	5
0	4894	979.537607805456	6
0	4896	979.552702002688	7
0	4897	979.974210636739	6
0	4904	981.774181905759	5
0	4910	981.936632858164	6
0	4912	982.601292618477	7
0	4913	983.31729055407	6
0	4919	984.166152640563	7
0	4921	984.944173659308	6
0	4927	986.953798934072	7
0	4930	989.677303475123	6
0	4939	990.783219951782	5
0	4943	990.97032895124	6
0	4947	991.143391356851	7
0	4953	995.18541081665	8
0	4959	995.89674697867	9
0	4960	996.077053545699	8
0	4969	996.847813612126	9
0	4970	997.134445171434	8
0	4976	997.743038111007	9
0	4978	998.334284642377	8
0	4986	1000.359342287147	7
0	4991	1000.53634543264	6
0	4996	1001.189626536785	5
0	5000	1001.623573955929	6
0	5004	1002.015003361407	7
0	5006	1002.150290529674	6
0	5011	1002.313565396321	5
0	5017	1003.57244639472	4
0	5024	1005.462935324871	3
0	5028	1005.575408188576	4
0	5030	1005.713476777868	5
0	5034	1005.920361371007	6
0	5035	1006.387220142301	5
0	5039	1007.59362965667	6
0	5042	1008.944436497243	5
0	5049	1010.040236080847	6
0	5050	1010.819999269094	5
0	5056	1011.355133979077	4
0	5064	1011.693283854171	3
0	5069	1011.85753229215	2
0	5074	1012.091293591375	1
0	5080	1013.4727324296	2
0	5082	1013.740703034082	3
0	5083	1014.138421666052	2
0	5087	1016.021507410169	3
0	5092	1017.497369698375	2
0	5100	1021.573274762936	1
0	5106	1021.765816379313	2
0	5108	1021.931818655199	3
0	5109	1021.979258853536	2
0	5113	1022.091350972041	3
0	5117	1022.151807660873	4
0	5118	1022.193201665554	3
0	5122	1022.472486527417	4
0	5125	1023.40334221603	3
0	5135	1024.564908526433	4
0	5137	1024.730813279695	5
0	5139	1025.76669862713	4
0	5144	1025.844891771834	3
0	5154	1029.535749612942	4
0	5155	1029.635672766422	3
0	5159	1029.679477111062	4
0	5166	1031.778400882733	3
0	5170	1032.021856839303	4
0	5177	1033.474675322938	5
0	5178	1033.506285169997	4
0	5187	1036.72272416174	3
0	5192	1036.958971376094	2
0	5198	1037.417984842372	3
0	5199	1037.803218631521	2
0	5203	1038.492467614898	3
0	5205	1038.807786848147	4
0	5207	1039.523042890064	5
0	5210	1040.421876925445	4
0	5214	1041.804088023234	5
0	5219	1043.207019956143	6
0	5220	1043.559708462595	5
0	5225	1043.676693835552	4
0	5231	1044.190762459328	5
0	5233	1045.04907827117	6
0	5235	1045.065845215537	7
0	5237	1045.161196247489	8
0	5239	1046.177493981931	9
0	5243	1047.471077738137	10
0	5244	1047.96416541032	9
0	5251	1050.654691678167	8
0	5255	1050.965666893591	9
0	5258	1052.042820922906	8
0	5262	1052.223860290547	9
0	5267	1055.774206779159	8
0	5271	1056.258900822423	9
0	5273	1060.08673384896	10
0	5276	1060.430847707633	9
0	5283	1061.009075422089	10
0	5285	1061.211259145464	11
0	5287	1061.548334566317	12
0	5288	1061.59679253499	11
0	5293	1062.744707593278	10
0	5297	1064.426928908529	11
0	5299	1064.516046800013	12
0	5302	1066.661650089226	11
0	5307	1068.252398070813	10
0	5313	1070.405748511697	9
0	5320	1071.519080805829	10
0	5321	1071.617891041366	9
0	5326	1071.840100502035	8
0	5332	1073.118859546346	9
0	5334	1073.151093481368	10
0	5337	1075.791973389634	9
0	5341	1077.287515889124	10
0	5344	1078.091380344785	9
0	5348	1080.54940183977	10
0	5351	1083.984035174793	9
0	5355	1086.268927487102	10
0	5362	1088.810985272494	9
0	5367	1089.055573305443	8
0	5372	1089.142952989376	7
0	5376	1089.651719799105	8
0	5379	1090.850631886244	7
0	5385	1091.71319924073	8
0	5386	1092.351456750056	7
0	5391	1093.477226723612	6
0	5397	1094.831623047011	7
0	5400	1097.302170760296	6
0	5405	1100.293221998042	5
0	5409	1100.749172816422	6
0	5411	1101.323958206983	7
0	5420	1102.511868991073	6
0	5424	1102.834618827864	7
0	5426	1103.143870493208	8
0	5432	1105.318533623746	9
0	5435	1106.414387335256	8
0	5439	1106.967002015473	9
0	5442	1108.406846623047	8
0	5448	1109.492595306245	7
0	5453	1109.579705135831	6
0	5457	1110.584542325282	7
0	5462	1111.51979031751	6
0	5470	1114.52578213401	5
0	5476	1114.572021599892	6
0	5478	1115.1247506468	7
0	5480	1115.214344698741	8
0	5481	1115.317981957179	7
0	5486	1115.432372664914	6
0	5494	1116.537899690517	7
0	5495	1116.637301400502	6
0	5500	1117.727255707268	5
0	5505	1118.66176584686	4
0	5511	1121.144916962557	5
0	5512	1122.19186229065	4
0	5519	1122.929903895548	3
0	5523	1123.859432640018	4
0	5525	1124.30981125627	5
0	5528	1124.579442393155	4
0	5534	1124.875822945267	5
0	5535	1125.808594140634	4
0	5539	1125.928556849641	5
0	5541	1127.326334713479	6
0	5543	1127.365269137755	7
0	5545	1127.600431506403	8
0	5550	1131.455553973035	7
0	5554	1131.668177238175	8
0	5558	1132.619086867172	9
0	5560	1133.29757105147	10
0	5562	1134.242618612259	11
0	5563	1135.889132707318	10
0	5569	1137.943246349124	11
0	5571	1138.866439792021	10
0	5581	1141.325186929141	9
0	5588	1141.916675189172	10
0	5589	1141.983270019193	9
0	5594	1142.581961296455	8
0	5599	1143.029048816749	7
0	5603	1143.521186209204	8
0	5605	1143.75568491552	9
0	5609	1144.505454894242	10
0	5613	1145.108977019882	11
0	5614	1145.705134194882	10
0	5622	1147.224243086087	11
0	5624	1147.692665074317	12
0	5626	1148.932844138531	13
0	5627	1149.342073234521	12
0	5632	1149.34732590581	11
0	5639	1150.301384912582	12
0	5641	1150.517698759316	11
0	5646	1151.231565486381	10
0	5654	1152.624214752922	11
0	5655	1153.007188339739	10
0	5660	1154.115855089027	9
0	5665	1154.46910862487	8
0	5669	1154.556446180773	9
0	5671	1154.815341722932	10
0	5676	1155.829812258087	9
0	5680	1156.322894858339	10
0	5682	1156.484329693804	11
0	5684	1157.105144067919	12
0	5689	1162.129354802855	11
0	5697	1163.187459282477	12
0	5698	1163.192767032134	11
0	5705	1163.722478465282	10
0	5714	1165.772817177148	9
0	5719	1166.682052585711	8
0	5727	1168.499935242724	7
0	5733	1170.794551972658	8
0	5734	1170.955493573062	7
0	5743	1172.970955317362	6
0	5747	1173.013148387972	7
0	5749	1173.263317028602	8
0	5753	1174.429014409917	7
0	5758	1174.859761216987	6
0	5763	1175.01677886179	5
0	5768	1175.125535333461	4
0	5775	1177.867750066733	3
0	5780	1178.47098022554	2
0	5785	1178.583109956338	1
0	5790	1178.958758463527	0
0	5794	1179.51879150917	1
0	5797	1181.108062994062	0
0	5810	1184.076160381	1
0	5812	1184.115877110933	2
0	5813	1184.280224164149	1
0	5817	1184.467303323979	2
0	5821	1185.265109592148	3
0	5826	1186.442168144702	2
0	5830	1186.509728499795	3
0	5832	1186.52897361867	4
0	5837	1187.556006311885	3
0	5843	1188.998504955567	2
0	5847	1190.254000571328	3
0	5849	1192.350496803295	4
0	5851	1193.212334183446	5
0	5855	1193.700516672647	6
0	5857	1194.378221612006	7
0	5861	1195.644339250685	6
0	5866	1195.770289601384	5
0	5870	1195.777202566008	6
0	5872	1196.50713568284	7
0	5878	1197.866894182848	8
0	5880	1198.553252137049	9
0	5882	1199.801780916695	10
0	5883	1200.374535006761	9
0	5887	1200.455318232841	10
0	5891	1201.552546372502	11
0	5895	1201.82485611072	12
0	5896	1202.294913475946	11
0	5901	1202.422181262004	10
0	5907	1202.767867304214	11
0	5912	1204.032617775918	10
0	5918	1205.769693403315	11
0	5921	1206.319417611762	10
0	5926	1206.66203818021	9
0	5933	1210.371861634935	8
0	5937	1211.21156034002	9
0	5940	1211.55102821688	8
0	5944	1211.5597833317	9
0	5948	1211.983930343788	10
0	5949	1212.434521381736	9
0	5955	1213.616284054497	10
0	5956	1213.648316101303	9
0	5960	1214.318668895852	10
0	5964	1215.01703837272	11
0	5965	1215.345772691803	10
0	5970	1216.415020268901	9
0	5976	1218.458544673038	10
0	5981	1219.128612933364	9
0	5987	1220.381727888859	10
0	5993	1221.375288786902	11
0	5994	1221.65401570076	10
0	6000	1221.881141978972	11
0	6003	1223.531210684493	10
0	6008	1223.672730446693	9
0	6015	1224.929879928701	8
0	6019	1225.089390995032	9
0	6023	1225.983116632919	8
0	6028	1226.118556106063	7
0	6034	1227.122992478321	8
0	6038	1228.479674847127	7
0	6043	1228.529869479461	6
0	6047	1229.724094810003	7
0	6052	1231.169718997621	6
0	6056	1231.702472789548	7
0	6058	1232.105636582417	8
0	6060	1232.62733178278	9
0	6064	1233.856477165025	8
0	6069	1233.899040956568	7
0	6076	1238.237362657919	6
0	6083	1238.772641271827	7
0	6084	1239.136092573106	6
0	6090	1239.974795521249	5
0	6098	1240.347518897761	6
0	6100	1240.416387624586	7
0	6108	1241.169412674264	6
0	6113	1241.341779709425	5
0	6118	1242.640174918628	4
0	6122	1242.711953441015	5
0	6124	1242.843356078251	6
0	6127	1243.199312340191	5
0	6133	1246.057174771633	6
0	6137	1246.944593583415	5
0	6144	1247.192781351652	6
0	6145	1248.684481049689	5
0	6152	1249.058822497242	6
0	6153	1249.157542929834	5
0	6158	1249.172041425296	4
0	6163	1249.449708008035	3
0	6167	1249.97763258043	4
0	6174	1251.528285967308	3
0	6179	1251.916175616514	2
0	6183	1254.301398534924	3
0	6185	1254.600378858518	4
0	6190	1256.431725937264	3
0	6198	1256.981292536722	2
0	6203	1257.159255121806	1
0	6209	1258.439794794697	0
0	6220	1259.422247549075	1
0	6221	1259.922909530161	0
0	6225	1260.766465076362	1
0	6227	1261.544938475161	2
0	6231	1264.104340539618	1
0	6235	1264.867010677569	2
0	6238	1266.117963618965	1
0	6243	1267.15018970929	0
0	6250	1268.020540048412	1
0	6251	1268.049314339098	0
0	6272	1269.716635956299	1
0	6275	1269.779075940395	2
0	6278	1270.956000884113	1
0	6283	1271.007537945629	0
0	6287	1272.023780508505	1
0	6289	1273.079582313514	2
0	6292	1273.272484347505	1
0	6298	1273.788755079297	2
0	6299	1274.074626892226	1
0	6304	1275.591174145785	0
0	6315	1278.496743532106	1
0	6316	1280.406563569507	0
0	6358	1290.112472012034	1
0	6361	1292.240107582251	0
0	6377	1293.376856786223	1
0	6379	1294.662140720274	2
0	6383	1295.25280158698	3
0	6385	1295.450281812225	4
0	6389	1295.756342340449	5
0	6390	1295.859583060424	4
0	6395	1297.159255820895	3
0	6400	1297.445881196531	2
0	6406	1298.755972620646	3
0	6410	1299.36671948219	2
0	6415	1300.986969613901	1
0	6419	1301.930908718706	2
0	6425	1304.495475498209	3
0	6427	1305.50466264458	2
0	6432	1305.54424070341	1
0	6439	1307.634165499064	0
0	6443	1307.705587361932	1
0	6445	1308.439098058664	2
0	6449	1308.994446837389	3
0	6455	1311.37473063224	4
0	6456	1312.722279774312	3
0	6462	1313.522014338217	2
0	6469	1314.007963586043	3
0	6470	1314.472094213556	2
0	6475	1314.663745554484	1
0	6481	1315.830366615169	2
0	6483	1316.017560636769	3
0	6484	1316.201586150753	2
0	6491	1317.132493556854	1
0	6496	1317.687750584055	0
0	6508	1318.953575340489	1
0	6511	1320.111110259412	0
0	6523	1321.04854039465	1
0	6524	1321.667987771491	0
0	6536	1322.380380570679	1
0	6537	1323.190500607735	0
0	6564	1329.152413335609	1
0	6565	1329.467534316831	0
0	6571	1330.665734025	1
0	6572	1330.893405753025	0
0	6580	1331.024936607227	1
0	6582	1331.758295325293	0
0	6588	1331.84819194713	1
0	6590	1332.36950137508	0
0	6610	1333.884055883512	1
0	6613	1334.757340602235	0
0	6619	1335.35842978865	1
0	6621	1335.412082978882	2
0	6622	1335.720756531426	1
0	6630	1337.126677863333	0
0	6636	1338.564842760088	1
0	6639	1339.068327459595	0
0	6648	1340.732012280334	1
0	6649	1340.926681555625	0
0	6666	1343.56515853722	1
0	6668	1344.017521826006	0
0	6674	1344.390682791846	1
0	6676	1344.505359133953	0
0	6683	1344.938098142346	1
0	6684	1345.100516980075	0
0	6688	1346.580410237982	1
0	6691	1347.582696471381	0
0	6703	1349.05431844527	1
0	6706	1350.59932109223	2
0	6708	1351.324180776961	3
0	6712	1352.585144554293	2
0	6719	1353.719965833358	1
0	6724	1353.77225210389	0
0	6742	1355.64593638193	1
0	6750	1356.97527305976	0
0	6775	1363.57728348763	1
0	6778	1364.915043110374	0
0	6782	1365.510672661643	1
0	6786	1366.039020575315	2
0	6790	1366.807912974706	3
0	6791	1367.014063038177	2
0	6802	1368.342879821094	1
0	6807	1368.75199667152	0
0	6826	1369.787605651347	1
0	6828	1369.879029997312	2
0	6830	1370.892993320152	1
0	6836	1371.911445794565	0
0	6840	1372.197180437715	1
0	6842	1372.837847276329	2
0	6848	1377.308171986699	3
0	6851	1378.429909420022	2
0	6859	1378.698683977776	3
0	6860	1378.739848586786	2
0	6864	1378.931847390444	3
0	6870	1380.415753553411	2
0	6876	1380.481724829894	3
0	6877	1380.821625900656	2
0	6883	1381.768020433121	3
0	6885	1382.102627032744	4
0	6887	1382.700692451355	5
0	6889	1384.299691029099	4
0	6894	1384.492265137797	3
0	6898	1384.748888102721	4
0	6900	1384.955110310023	5
0	6902	1385.455798923379	6
0	6906	1386.562359277851	7
0	6907	1386.707537797416	6
0	6913	1387.584768183065	7
0	6918	1388.708079825467	6
0	6923	1389.438735863185	5
0	6929	1390.237814008441	4
0	6936	1391.295442420702	3
0	6943	1391.941011389798	4
0	6946	1392.753483415384	5
0	6947	1392.801148393006	4
0	6952	1393.016765873757	3
0	6959	1393.461374353307	2
0	6966	1394.985264764729	3
0	6967	1395.073199982544	2
0	6972	1396.270272705854	1
0	6977	1396.931994611433	0
0	6981	1397.041687066037	1
0	6984	1398.187188830086	0
0	6988	1398.885610229921	1
0	6991	1399.222966081208	0
0	6997	1399.771149416927	1
0	6999	1400.521477099693	2
0	7001	1400.931793235087	3
0	7004	1402.069266439844	2
0	7010	1402.730501002688	3
0	7013	1403.629033965727	2
0	7018	1403.859437984731	1
0	7024	1405.108117033328	2
0	7025	1405.819840282793	1
0	7030	1407.315866212233	0
0	7034	1407.407810379918	1
0	7036	1408.984330963911	2
0	7039	1409.314560640883	1
0	7044	1409.858095638822	0
0	7081	1414.832834645755	1
0	7083	1415.039157796311	2
0	7084	1415.141192488987	1
0	7090	1415.526579930063	0
0	7111	1419.54993559187	1
0	7116	1420.282080414119	0
0	7144	1427.638846654984	1
0	7148	1430.805176824143	2
0	7150	1431.316588071361	1
0	7156	1431.730323448774	0
0	7174	1438.000544336232	1
0	7178	1439.28334261958	2
0	7179	1440.523207192871	1
0	7184	1440.66670329541	0
0	7190	1440.784797627766	1
0	7193	1442.419569465256	0
0	7204	1443.334423376928	1
0	7205	1443.546384627033	0
0	7209	1444.48854060004	1
0	7211	1444.513762052694	2
0	7213	1445.960504134756	3
0	7219	1447.598046204901	4
0	7221	1448.239358338575	5
0	7223	1449.405234117506	4
0	7229	1449.760085712765	5
0	7232	1450.675614973547	6
0	7233	1452.045992495992	5
0	7242	1454.450245914748	4
0	7248	1454.553134549487	5
0	7250	1454.619738982534	6
0	7255	1455.495771067353	7
0	7256	1455.968870077167	6
0	7262	1456.196897370886	7
0	7266	1456.567327282664	8
0	7267	1457.275768810784	7
0	7273	1457.311788671754	8
0	7274	1458.226721055521	7
0	7281	1459.023135491555	8
0	7282	1459.54425456565	7
0	7288	1459.680306288973	8
0	7289	1460.459383142604	7
0	7295	1461.537773448272	8
0	7297	1464.102158306236	9
0	7310	1469.017965010775	8
0	7315	1469.398676059353	7
0	7323	1470.702230634909	8
0	7325	1471.220271022761	9
0	7326	1471.470463759775	8
0	7330	1472.153574027239	9
0	7338	1473.959326842786	10
0	7339	1474.330742467014	9
0	7346	1478.394889018809	8
0	7354	1479.680652973374	9
0	7358	1480.30732880733	10
0	7363	1481.318906172233	9
0	7373	1482.143236497818	10
0	7375	1482.279359799649	11
0	7376	1482.61175001297	10
0	7380	1482.904556279393	11
0	7384	1483.558353430389	10
0	7390	1483.770333011243	11
0	7393	1484.57599224972	10
0	7399	1486.358079151273	9
0	7404	1486.35960247564	8
0	7409	1488.116587105222	7
0	7414	1488.231409219593	6
0	7421	1490.347810262911	5
0	7428	1495.109608599377	4
0	7433	1495.672257623256	3
0	7439	1496.180002189282	4
0	7445	1497.412075120203	5
0	7446	1497.644914504988	4
0	7451	1498.056025486307	3
0	7457	1498.923615408759	2
0	7463	1499.775156334303	3
0	7464	1500.644745358134	2
0	7469	1500.955088154441	1
0	7475	1503.516935923664	2
0	7477	1504.587834686255	3
0	7478	1504.865837784172	2
0	7483	1506.30307105293	1
0	7489	1507.872380041236	0
0	7509	1509.679036681371	1
0	7514	1509.995016914242	2
0	7515	1510.556501868634	1
0	7520	1510.610037797853	0
0	7537	1512.135229191951	1
0	7538	1512.184961605631	0
0	7544	1513.381082776896	1
0	7546	1513.783030019303	2
0	7549	1515.512559323776	1
0	7556	1516.575832550054	2
0	7557	1516.944123954837	1
0	7562	1517.080060274211	0
0	7568	1518.031249056427	1
0	7570	1518.980274679578	2
0	7574	1519.907527166409	1
0	7580	1520.876541934268	0
0	7596	1524.974487396076	1
0	7597	1525.219458418168	0
0	7605	1527.132950307414	1
0	7606	1527.937086647592	0
0	7636	1532.492885079527	1
0	7637	1533.318016253584	0
0	7648	1533.838108217236	1
0	7650	1533.857357764118	2
0	7651	1533.967033221499	1
0	7657	1534.27986135274	0
0	7663	1534.435556135288	1
0	7665	1534.634938012108	2
0	7667	1536.02284624664	1
0	7672	1536.331606103708	0
0	7685	1538.254544263104	1
0	7686	1538.725473460852	0
0	7693	1540.536473046004	1
0	7695	1540.653323383278	2
0	7696	1540.770086147298	1
0	7700	1541.052946968244	2
0	7703	1541.242452535809	1
0	7711	1543.072266100525	0
0	7717	1543.327638001359	1
0	7720	1543.749849853504	2
0	7723	1544.119082974503	1
0	7728	1544.568593812604	0
0	7734	1544.942463678389	1
0	7735	1545.255435385961	0
0	7741	1546.124130731821	1
0	7742	1546.624422131925	0
0	7751	1548.791358008826	1
0	7753	1548.906940551173	2
0	7756	1549.147237390081	1
0	7762	1549.444733970947	0
0	7770	1550.059463049956	1
0	7771	1550.268563256327	0
0	7784	1552.076975525819	1
0	7787	1553.177543980188	0
0	7855	1573.732646928011	1
0	7860	1574.649485050567	0
0	7872	1576.752757674401	1
0	7874	1577.637088137599	2
0	7878	1578.811276246986	3
0	7879	1578.875811754171	2
0	7890	1580.033366061803	3
0	7891	1580.143736305768	2
0	7899	1581.124707701945	1
0	7905	1581.234708873684	0
0	7924	1583.778461174024	1
0	7927	1585.964401728725	0
0	7959	1589.313682293833	1
0	7961	1589.949892104965	0
0	7975	1590.985695726353	1
0	7976	1595.107193674304	0
0	7992	1598.031120820119	1
0	8000	1599.411635044161	2
0	8001	1600.435034456336	1
0	8006	1600.926953255903	0
0	8010	1600.998176316124	1
0	8013	1601.932914148133	0
0	8024	1605.536863920408	1
0	8025	1606.624043940528	0
0	8029	1607.629802306096	1
0	8033	1607.822031397563	2
0	8035	1607.933125525802	3
0	8036	1608.235809238663	2
0	8041	1608.470469352558	1
0	8049	1609.660976075382	0
0	8053	1610.453199126033	1
0	8057	1611.003764390364	2
0	8065	1614.059992838685	1
0	8070	1614.12891539451	0
0	8101	1617.812034724341	1
0	8103	1619.312308250436	2
0	8105	1620.611102523358	3
0	8107	1621.597315087003	4
0	8110	1623.342836735014	3
0	8121	1624.925399990871	4
0	8122	1625.71815161221	3
0	8127	1625.892782438456	2
0	8133	1627.182244196124	3
0	8134	1627.203465503307	2
0	8138	1627.800293267253	3
0	8141	1629.700958914382	2
0	8146	1630.05621894074	1
0	8151	1631.059452936167	0
0	8155	1631.361453695199	1
0	8158	1632.213545590235	0
0	8182	1636.117955441286	1
0	8183	1636.288163374259	0
0	8193	1638.415540617695	1
0	8196	1640.094693459176	0
0	8203	1640.340682666694	1
0	8207	1641.018740467712	0
0	8227	1643.227639657398	1
0	8228	1643.354269190485	0
0	8243	1645.768400409647	1
0	8246	1647.908699575251	0
0	8255	1651.226297593136	1
0	8262	1653.200008127682	2
0	8264	1653.414615567463	3
0	8265	1653.744078461516	2
0	8270	1653.961365490748	1
0	8277	1654.324615747145	0
0	8281	1654.504615774899	1
0	8283	1655.241001628149	2
0	8287	1655.842246603448	1
0	8291	1655.953147659834	2
0	8297	1658.410377889564	1
0	8302	1658.445496954645	0
0	8308	1658.653905451135	1
0	8310	1658.772248543195	2
0	8312	1659.62580920578	3
0	8314	1659.753117943292	4
0	8315	1660.130954843185	3
0	8320	1661.435605570998	2
0	8325	1662.805884719405	1
0	8329	1663.09560684528	2
0	8331	1663.102485924696	3
0	8334	1663.56701230793	2
0	8340	1665.942680840879	3
0	8341	1666.000452856794	2
0	8345	1666.332254109156	3
0	8348	1667.188962207807	2
0	8352	1667.377854178933	3
0	8355	1669.674152708228	2
0	8359	1670.585371547792	3
0	8361	1671.102002825432	4
0	8365	1672.492815885748	3
0	8370	1672.906134376784	2
0	8375	1673.37797703091	1
0	8379	1673.671662783653	2
0	8381	1673.686756105848	3
0	8386	1677.594414651934	2
0	8394	1683.579422315138	1
0	8399	1683.776218923	0
0	8426	1689.179113667757	1
0	8428	1689.334030662832	2
0	8432	1690.021236625646	1
0	8442	1690.658225597647	2
0	8443	1691.05614748038	1
0	8449	1691.667232487307	0
0	8457	1691.739453348376	1
0	8458	1692.555170872828	0
0	8464	1693.380532135672	1
0	8469	1697.961308707726	2
0	8473	1698.83574386562	3
0	8474	1698.975937154549	2
0	8479	1699.137637755683	1
0	8483	1699.321697357023	2
0	8485	1700.270483951925	3
0	8487	1702.172293611501	4
0	8490	1703.060126691496	3
0	8495	1704.131107311116	2
0	8499	1704.553726479345	3
0	8504	1706.239205688778	4
0	8505	1706.887980451563	3
0	8510	1708.572762870327	2
0	8514	1712.185047446427	3
0	8519	1714.18185749856	2
0	8524	1714.460670317702	1
0	8529	1714.71659827262	0
0	8538	1720.945533885488	1
0	8540	1721.836317241636	0
0	8546	1722.872485288008	1
0	8547	1723.038112514432	0
0	8571	1725.938557868237	1
0	8572	1726.105137222118	0
0	8578	1726.828268156154	1
0	8580	1727.890375150008	2
0	8581	1728.081792644929	1
0	8586	1729.311577297075	0
0	8592	1729.76677288928	1
0	8594	1730.611628302108	2
0	8597	1730.922251456682	1
0	8604	1733.266291763479	0
0	8616	1735.072543186966	1
0	8617	1735.512221337134	0
0	8659	1742.384285409232	1
0	8662	1743.892325472811	0
0	8669	1744.850182252389	1
0	8670	1745.74638792277	0
0	8676	1745.771836680973	1
0	8677	1746.000276112132	0
0	8688	1747.220357514002	1
0	8689	1748.321161600558	0
0	8709	1750.426945540718	1
0	8715	1752.680661050118	0
0	8721	1753.746262206915	1
0	8723	1754.059817291826	0
0	8729	1756.418253197208	1
0	8731	1756.577930183941	2
0	8732	1757.880888637195	1
0	8737	1759.748388838989	0
0	8741	1759.887581596628	1
0	8743	1759.915631555156	2
0	8746	1760.112699959942	1
0	8751	1762.302100719833	0
0	8763	1763.136039438639	1
0	8765	1763.456773521372	2
0	8770	1764.733308918615	1
0	8775	1764.971268890847	0
0	8783	1766.112297920633	1
0	8784	1766.73497523708	0
0	8788	1766.92990893465	1
0	8790	1767.271037288128	2
0	8792	1767.357139727143	3
0	8795	1769.678036788355	2
0	8799	1769.838190116783	3
0	8804	1772.641310406854	2
0	8809	1772.989997591875	1
0	8815	1773.600432547096	0
0	8826	1774.287436568372	1
0	8828	1774.849560696521	0
0	8852	1779.451660862138	1
0	8856	1780.835434544362	0
0	8860	1781.913619864372	1
0	8866	1784.845514776179	0
0	8897	1789.387642633009	1
0	8902	1789.848912112367	0
0	8921	1793.31489238572	1
0	8926	1794.567884296645	2
0	8928	1795.287311739737	3
0	8930	1795.288507951438	4
0	8933	1798.895035407185	3
0	8939	1799.060517399827	2
0	8945	1799.711558470758	1
0	8952	1801.713644426871	0
0	8962	1803.00914883446	1
0	8963	1803.291733730502	0
0	8986	1810.060039576428	1
0	8987	1811.189548845448	0
0	8996	1812.233271151019	1
0	9006	1815.567662641936	0
0	9030	1819.900453156817	1
0	9031	1820.009964287774	0
0	9044	1820.855531277188	1
0	9045	1821.100230808616	0
0	9056	1821.33553743098	1
0	9058	1821.656144266688	0
0	9079	1824.071032188954	1
0	9082	1824.547621741454	0
0	9088	1825.70604508456	1
0	9089	1826.186244994805	0
0	9104	1829.063381999184	1
0	9105	1829.179439703519	0
0	9127	1832.487528857177	1
0	9128	1832.926633954317	0
0	9134	1833.128315121503	1
0	9136	1833.631645057932	0
0	9154	1837.048056691709	1
0	9156	1837.846571346613	2
0	9160	1839.980807794546	3
0	9161	1840.441279927515	2
0	9167	1840.523942703487	3
0	9168	1840.935243220592	2
0	9174	1841.043520938127	3
0	9176	1841.457294947796	4
0	9179	1842.672824688488	5
0	9180	1842.690986876679	4
0	9189	1844.658642115262	3
0	9196	1845.500734708907	4
0	9202	1847.732969800066	5
0	9205	1848.109137129654	4
0	9211	1849.442310924753	3
0	9216	1849.852831992237	2
0	9224	1850.914476306296	3
0	9228	1852.278815661124	2
0	9233	1852.386159339752	1
0	9237	1853.48701117159	2
0	9240	1855.628043662986	1
0	9245	1856.327912319098	0
0	9258	1857.591852955461	1
0	9259	1858.163298979625	0
0	9272	1859.866898743782	1
0	9274	1860.079938903418	2
0	9279	1861.800596823137	3
0	9281	1862.101591142211	4
0	9284	1862.701136810258	3
0	9289	1863.442075144895	2
0	9295	1864.680851324987	3
0	9296	1864.687080995431	2
0	9301	1865.570623238963	1
0	9306	1866.064546561979	0
0	9322	1867.150952486148	1
0	9323	1867.39715739617	0
0	9332	1869.99669911237	1
0	9334	1870.68192294365	2
0	9337	1872.120717581518	1
0	9345	1873.28212836804	0
0	9355	1874.46295367259	1
0	9359	1874.536304287064	2
0	9362	1874.734945187257	1
0	9368	1874.930669352462	0
0	9374	1876.518120266419	1
0	9378	1877.108762240164	0
0	9412	1884.399444628272	1
0	9414	1884.410033434575	2
0	9416	1885.062356754992	3
0	9417	1886.323498597193	2
0	9423	1887.067162600999	1
0	9429	1887.082890384376	2
0	9430	1887.217264260952	1
0	9437	1887.766264518149	0
0	9441	1888.952974509865	1
0	9445	1889.736048917917	0
0	9451	1889.896338019924	1
0	9452	1891.086882215048	0
0	9465	1893.348399187614	1
0	9468	1894.807172744657	0
0	9474	1894.825205678197	1
0	9479	1896.230478511772	2
0	9480	1898.399263838294	1
0	9485	1898.79340689286	0
0	9491	1898.853683691016	1
0	9492	1899.809537691694	0
0	9498	1900.918348720046	1
0	9503	1901.71804412496	2
0	9504	1901.794325565316	1
0	9510	1901.96788846527	2
0	9513	1902.918098285656	1
0	9519	1903.705022724039	2
0	9523	1904.035203239494	3
0	9524	1904.162574558895	2
0	9529	1905.536408439335	1
0	9536	1906.585816594658	0
0	9542	1906.838734154983	1
0	9543	1906.935846680568	0
0	9547	1907.172305099373	1
0	9554	1910.281112200347	0
0	9558	1910.997492054042	1
0	9561	1911.30836359954	0
0	9565	1911.475991392453	1
0	9568	1912.502744307697	0
0	9572	1912.704352967181	1
0	9576	1913.057859909094	2
0	9577	1913.257142278556	1
0	9581	1915.33598585264	2
0	9584	1915.586962154805	1
0	9592	1917.278655210524	0
0	9598	1917.315037260682	1
0	9599	1918.018496678492	0
0	9605	1918.204898743791	1
0	9607	1919.269200697104	2
0	9615	1920.67694434752	1
0	9620	1921.176889628742	0
0	9626	1922.850133986462	1
0	9627	1923.088662478336	0
0	9640	1926.355479310217	1
0	9642	1926.374331440884	2
0	9647	1927.30734211603	3
0	9648	1927.522221505856	2
0	9652	1927.993235933085	3
0	9656	1928.730638375748	4
0	9658	1929.346116282516	5
0	9661	1929.689791420545	4
0	9668	1931.917679514891	3
0	9675	1934.012350183292	4
0	9677	1934.242048335366	5
0	9678	1934.882924516481	4
0	9683	1934.884357042164	3
0	9690	1936.187094999414	4
0	9691	1936.441046604915	3
0	9697	1936.89545601253	2
0	9702	1937.396489780563	1
0	9709	1939.358275833462	0
0	9722	1941.836597147033	1
0	9729	1942.914484574141	0
0	9735	1943.940024189823	1
0	9737	1944.106199922744	2
0	9739	1946.224098650271	1
0	9745	1946.812664112169	0
0	9782	1953.009944932194	1
0	9783	1953.073818672336	0
0	9795	1954.229666922073	1
0	9799	1955.591530568377	2
0	9801	1955.884156178633	3
0	9802	1956.704251615816	2
0	9807	1956.731692183229	1
0	9812	1956.82189939944	0
0	9816	1957.320671756099	1
0	9820	1958.304242697054	0
0	9844	1963.12226182042	1
0	9846	1964.171703052685	0
0	9850	1964.649229124568	1
0	9852	1965.170075110973	2
0	9855	1965.388614838806	1
0	9859	1966.551167759449	2
0	9861	1966.560821402275	3
0	9864	1966.938898143624	2
0	9868	1967.659336751349	3
0	9873	1968.40011004642	4
0	9874	1968.743900068087	3
0	9880	1969.037265472132	4
0	9882	1969.983806135251	5
0	9885	1970.292630250669	4
0	9891	1971.250621195379	3
0	9897	1971.663903342137	4
0	9901	1972.491837382371	5
0	9905	1972.664884036107	6
0	9907	1974.019169222841	7
0	9908	1974.205011749874	6
0	9914	1975.277482992832	5
0	9919	1975.551082533954	4
0	9924	1978.073623566589	3
0	9930	1978.848005108069	4
0	9932	1979.13676653585	3
0	9937	1980.71171724046	2
0	9941	1980.777653872066	3
0	9943	1982.024233182692	4
0	9946	1982.160882777585	3
0	9952	1983.718580635884	4
0	9953	1984.023423457259	3
0	9957	1984.352408112929	4
0	9959	1984.508623925834	5
0	9963	1986.455144004939	4
0	9968	1986.501127056772	3
0	9976	1989.057755977942	4
0	9977	1989.12251394356	3
0	9981	1989.560692916589	4
0	9985	1991.056110713342	3
0	9990	1991.566185840429	2
0	9996	1992.377453694595	1
0	10002	1992.844262731392	2
0	10003	1993.337840123464	1
0	10008	1993.529832133146	0
0	10012	1993.79899711243	1
0	10016	1996.669925479198	2
0	10021	1998.039733147648	1
0	10025	1999.504723664221	2
0	10027	1999.612834389867	3
0	10033	2003.264756833147	2
0	10038	2004.270906607591	1
0	10045	2005.702968462339	2
0	10046	2007.07387312527	1
0	10055	2008.825014916994	0
0	10066	2009.18369171002	1
0	10070	2010.089686291278	0
0	10076	2010.952150212506	1
0	10077	2011.587758274422	0
0	10095	2013.18789337904	1
0	10099	2013.872371089678	2
0	10100	2014.837559701948	1
0	10105	2014.838233827209	0
0	10113	2016.631788923739	1
0	10115	2016.819727584901	2
0	10117	2017.57592772697	3
0	10118	2019.634220789756	2
0	10123	2019.779353433893	1
0	10132	2022.320695692847	2
0	10135	2022.497340661185	1
0	10140	2022.772482285779	0
0	10168	2027.805862593353	1
0	10172	2028.141068792794	2
0	10175	2028.540120240723	1
0	10182	2029.183939681245	2
0	10183	2029.19003133031	1
0	10189	2029.862813047666	0
0	10200	2030.395691442718	1
0	10204	2031.374385653996	2
0	10208	2033.655779714357	1
0	10214	2034.123244457745	2
0	10217	2034.57651019987	1
0	10221	2035.113248136335	2
0	10225	2035.957297612981	3
0	10227	2036.672662871823	2
0	10233	2036.784686011134	3
0	10234	2036.863758769529	2
0	10238	2037.643572573392	3
0	10243	2038.546741417647	2
0	10247	2038.809680411336	3
0	10249	2039.88450707925	4
0	10252	2039.977735515335	3
0	10256	2040.387201866621	4
0	10258	2044.384079010754	5
0	10263	2047.280523220503	4
0	10272	2049.406438917751	3
0	10277	2049.592263106861	2
0	10287	2051.667142912729	1
0	10292	2052.302911422301	0
0	10298	2052.822336434657	1
0	10300	2053.887747945307	0
0	10332	2059.699137551846	1
0	10334	2059.754114691751	2
0	10335	2061.526147833675	1
0	10340	2061.570985881347	0
0	10349	2062.385869984851	1
0	10350	2062.406020044679	0
0	10399	2071.284900831662	1
0	10401	2071.337900659306	2
0	10402	2072.484601650972	1
0	10414	2075.420241647986	0
0	10433	2076.131185444418	1
0	10435	2076.540288029046	2
0	10438	2077.021651233252	1
0	10445	2078.181731720511	2
0	10446	2078.942021689344	1
0	10450	2079.427723830808	2
0	10460	2081.341237759271	3
0	10462	2081.365313910536	4
0	10465	2082.28556531836	5
0	10466	2082.350068700204	4
0	10472	2082.707481969005	5
0	10473	2082.914774956486	4
0	10481	2084.11888398325	5
0	10482	2084.815055010917	4
0	10486	2084.885684157492	5
0	10490	2085.329540022486	6
0	10494	2086.746681435221	5
0	10499	2087.428660093085	4
0	10509	2089.31841070924	3
0	10515	2089.973337675039	2
0	10520	2090.003820265437	1
0	10525	2090.668458081055	0
0	10547	2095.363631174671	1
0	10552	2096.013747132879	2
0	10553	2096.049440529138	1
0	10558	2096.39968803069	0
0	10573	2098.30118899232	1
0	10574	2098.728049034052	0
0	10583	2099.322972223947	1
0	10584	2099.502290622295	0
0	10593	2100.373100694264	1
0	10595	2100.700684465512	2
0	10599	2102.166987536814	3
0	10600	2103.228815020408	2
0	10605	2103.346962458022	1
0	10609	2104.207587271733	2
0	10613	2105.555963658325	3
0	10617	2106.066283688322	4
0	10619	2106.953252410601	5
0	10622	2108.269063551148	4
0	10627	2108.688139952527	3
0	10633	2108.955536537537	4
0	10636	2110.852100851199	3
0	10641	2111.418086998478	2
0	10648	2112.5835095306	3
0	10650	2112.636405739915	4
0	10651	2115.072948912605	3
0	10657	2116.949314618381	4
0	10661	2117.770810154326	5
0	10662	2117.859852472247	4
0	10670	2120.048708239727	5
0	10672	2120.604286809256	6
0	10674	2121.234137874916	7
0	10675	2122.043688653709	6
0	10680	2122.324471189695	5
0	10685	2122.676092249839	4
0	10689	2123.104986127728	5
0	10692	2123.930765615507	4
0	10696	2124.117974209553	5
0	10700	2124.728920923551	6
0	10702	2125.876115096738	7
0	10708	2126.616256277187	8
0	10709	2127.154099504872	7
0	10717	2128.654302989227	8
0	10719	2128.682647084995	9
0	10721	2129.017214604247	10
0	10724	2129.882792194551	9
0	10735	2132.248323530185	10
0	10736	2132.476733931239	9
0	10741	2133.001189951306	8
0	10746	2133.238270426186	7
0	10750	2133.326857952406	8
0	10753	2133.909714463617	7
0	10759	2134.868301620531	8
0	10761	2134.993247905073	7
0	10766	2135.151222442631	6
0	10771	2136.97242419037	5
0	10777	2138.041598094524	6
0	10779	2138.622174669852	5
0	10785	2138.70578110547	6
0	10787	2138.810060508474	7
0	10790	2139.240560646024	6
0	10796	2139.7889135182	5
0	10801	2139.912337641181	4
0	10807	2140.148680324218	5
0	10808	2141.974084125746	4
0	10815	2144.106560795257	3
0	10819	2144.64725943179	4
0	10826	2147.500545392984	3
0	10834	2148.499126245274	4
0	10836	2148.561011145759	5
0	10839	2148.601541838985	4
0	10848	2150.649778996026	3
0	10853	2150.770072023534	2
0	10860	2151.36247837477	1
0	10866	2151.453453528307	2
0	10869	2151.735223693301	1
0	10876	2152.01215905971	2
0	10880	2152.49939532354	3
0	10881	2152.68180835597	2
0	10886	2152.773603271587	1
0	10892	2152.823845891075	2
0	10896	2155.518126837983	3
0	10898	2156.360340749641	4
0	10899	2156.546029882002	3
0	10904	2156.680853286952	2
0	10910	2157.140314805302	3
0	10912	2157.21465852054	4
0	10914	2157.572304326517	5
0	10916	2158.032098703423	4
0	10921	2158.280726732672	3
0	10926	2158.834375127803	2
0	10931	2159.106909141954	1
0	10937	2159.957726217921	2
0	10939	2160.002113763868	3
0	10940	2160.949699088758	2
0	10947	2163.031474689983	1
0	10955	2163.998545502699	2
0	10960	2168.228095423942	1
0	10967	2169.030158959766	0
0	10973	2169.895563246303	1
0	10974	2171.339064629103	0
0	10978	2171.385911690637	1
0	10982	2172.200327876474	2
0	10984	2173.203593013713	3
0	10985	2174.541431309871	2
0	10991	2176.651029086065	3
0	10992	2179.498955206907	2
0	11002	2182.113129579954	3
0	11003	2185.758465568365	2
0	11007	2186.406900308633	3
0	11013	2188.809358808704	2
0	11022	2191.930943657365	1
0	11028	2192.751086213531	2
0	11032	2193.544601071712	1
0	11037	2193.668156435554	0
0	11062	2198.03476070193	1
0	11064	2198.484027333299	0
0	11085	2202.06618202954	1
0	11086	2202.068734604067	0
0	11111	2206.486711387047	1
0	11112	2207.226949513465	0
0	11118	2207.633678046593	1
0	11119	2207.97902773555	0
0	11131	2210.143602493757	1
0	11132	2210.772310184458	0
0	11156	2214.372191745541	1
0	11159	2214.623038328087	2
0	11160	2215.06718487772	1
0	11168	2216.522691311485	2
0	11169	2216.687065674242	1
0	11176	2217.182844164546	0
0	11182	2217.536916007977	1
0	11185	2218.503609281779	0
0	11250	2226.852069201238	1
0	11251	2227.595790173275	0
0	11264	2229.385543336738	1
0	11265	2229.813999611573	0
0	11269	2230.294291599046	1
0	11272	2231.123536128476	0
0	11283	2231.4706904285	1
0	11285	2231.639642363544	2
0	11288	2231.995917496763	1
0	11296	2232.787180092708	2
0	11297	2233.715846809108	1
0	11302	2234.983587524713	0
0	11331	2238.379282933909	1
0	11336	2240.151888658775	0
0	11354	2242.431869226423	1
0	11355	2242.487216080608	0
0	11359	2242.616363481875	1
0	11363	2243.381274844241	2
0	11374	2245.532853756552	1
0	11380	2245.930223954037	2
0	11381	2245.962475264799	1
0	11387	2246.731468616982	2
0	11389	2246.963408346915	3
0	11391	2247.510985877844	4
0	11395	2248.191718331511	5
0	11396	2248.91970980008	4
0	11408	2252.204356335183	5
0	11410	2252.578661085275	6
0	11412	2252.997389122957	7
0	11414	2253.008256478562	8
0	11415	2253.785632041598	7
0	11421	2254.344626757711	8
0	11424	2254.889445105419	7
0	11435	2258.339191673051	6
0	11439	2258.570209812321	7
0	11441	2259.793283962316	8
0	11446	2261.492185386201	7
0	11453	2262.21378053071	8
0	11454	2262.509622062488	7
0	11461	2263.252651568105	6
0	11467	2263.689517823476	7
0	11469	2265.227886577222	8
0	11470	2266.870827733336	7
0	11476	2267.140843776433	8
0	11478	2268.015279681527	7
0	11485	2268.052761319453	8
0	11486	2268.893831163191	7
0	11491	2269.181301933626	6
0	11496	2270.280757315291	5
0	11502	2272.022377449249	6
0	11504	2272.184549646347	5
0	11509	2272.261482856625	4
0	11515	2272.695313587544	5
0	11516	2272.696110066821	4
0	11520	2272.735776528844	5
0	11526	2273.755377300857	6
0	11529	2274.744534903369	5
0	11535	2275.216298780624	6
0	11536	2275.28479062274	5
0	11542	2275.969476605365	6
0	11545	2277.047515326322	5
0	11549	2277.864759881805	6
0	11555	2280.817919655339	5
0	11561	2281.558300512521	6
0	11562	2281.699059615438	5
0	11568	2281.758976874999	6
0	11571	2283.293237642095	5
0	11577	2284.428663390453	6
0	11579	2285.130955505183	5
0	11585	2285.700869515388	6
0	11586	2286.190778372582	5
0	11596	2288.390516453165	6
0	11599	2288.603293624631	5
0	11606	2291.53484848796	6
0	11607	2291.592469545	5
0	11613	2291.816503558263	6
0	11614	2291.909312518871	5
0	11620	2292.345115494856	4
0	11626	2292.440466278695	5
0	11627	2292.578381016503	4
0	11631	2293.604204163056	5
0	11633	2293.745522298401	6
0	11641	2297.717016059336	7
0	11643	2297.980991251957	8
0	11644	2298.616191149376	7
0	11651	2299.923990524365	6
0	11655	2301.540199357188	7
0	11661	2302.353078851394	6
0	11667	2303.215073348213	7
0	11669	2303.358377758507	8
0	11670	2303.411684435717	7
0	11674	2303.769618985537	8
0	11680	2305.084410220314	7
0	11686	2305.286247087658	8
0	11693	2307.629291250731	9
0	11695	2307.827057867095	10
0	11696	2308.011653986384	9
0	11701	2308.384788604611	8
0	11708	2312.059653736072	9
0	11710	2312.249414924324	10
0	11712	2312.606123316739	11
0	11715	2313.029679055028	10
0	11720	2313.066943049916	9
0	11724	2313.141633881614	10
0	11726	2315.974069325457	11
0	11730	2319.008022482148	12
0	11732	2319.302362169304	13
0	11733	2319.631848430882	12
0	11737	2321.325078072675	13
0	11744	2325.076118083318	12
0	11750	2326.016833049521	11
0	11755	2326.030237277035	10
0	11760	2327.626560625095	9
0	11765	2328.500049866654	8
0	11769	2328.507981704701	9
0	11771	2330.75838089616	10
0	11777	2333.531839849247	11
0	11779	2333.569290150225	12
0	11780	2333.89739788853	11
0	11784	2335.093340753483	12
0	11786	2337.440560845014	13
0	11789	2338.628073050791	12
0	11796	2341.53949887608	11
0	11800	2341.768459550507	12
0	11802	2341.789735809738	13
0	11805	2343.262406451663	12
0	11810	2345.241385981592	11
0	11814	2345.366508986915	12
0	11816	2345.545359038182	13
0	11820	2347.583928910815	12
0	11826	2347.687886993376	13
0	11827	2347.99641754148	12
0	11832	2348.245407930865	11
0	11838	2348.736941313816	12
0	11840	2349.347364896971	11
0	11847	2350.112082174119	12
0	11848	2351.011714824076	11
0	11854	2351.281437003231	10
0	11859	2351.865932250275	9
0	11866	2353.012093815127	10
0	11868	2353.451394919543	11
0	11871	2354.112134408467	10
0	11877	2354.552474609233	11
0	11878	2355.389126269411	10
0	11882	2355.506488067079	11
0	11887	2358.277736434573	10
0	11896	2359.225716835985	11
0	11897	2359.248968020601	10
0	11902	2359.677637958012	9
0	11906	2360.116237650086	10
0	11911	2361.142633343648	9
0	11916	2362.016434557198	8
0	11920	2362.521448846928	9
0	11923	2365.360898212098	8
0	11928	2366.153111769008	7
0	11933	2368.358495920165	6
0	11938	2368.871167114775	5
0	11948	2372.288736043289	4
0	11960	2374.938922217391	5
0	11962	2375.176236782045	6
0	11963	2376.642824393418	5
0	11967	2376.69428084462	6
0	11971	2377.237300455316	7
0	11974	2378.152243604123	6
0	11980	2378.393090436689	7
0	11981	2379.285103266735	6
0	11986	2379.735290891016	5
0	11990	2379.783317871506	6
0	11997	2380.767449408221	7
0	11998	2381.325898578683	6
0	12004	2381.461075685248	7
0	12006	2382.006694698632	8
0	12007	2382.335816766954	7
0	12012	2382.605070881806	6
0	12020	2385.82735614311	5
0	12025	2386.288852751562	4
0	12031	2388.227692942388	3
0	12037	2388.373844276757	4
0	12040	2388.562205870556	5
0	12043	2390.692016792671	4
0	12048	2390.8915535033	3
0	12056	2392.278489599919	4
0	12057	2392.354053494269	3
0	12063	2392.882934634684	4
0	12064	2392.97612726082	3
0	12071	2393.542519396465	2
0	12077	2395.726912059106	3
0	12080	2397.782011860156	2
0	12085	2398.818050738273	1
0	12093	2400.079727943521	2
0	12096	2401.089560221229	1
0	12100	2402.34163590302	2
0	12107	2403.805327839578	3
0	12109	2403.888314402881	2
0	12114	2404.810763784401	1
0	12119	2406.261217605694	0
0	12130	2406.592784893441	1
0	12131	2406.823847045311	0
0	12148	2408.706489124186	1
0	12149	2409.468666257079	0
0	12164	2410.150677392431	1
0	12170	2414.048516841581	2
0	12174	2416.152244085018	1
0	12179	2416.37244324732	0
0	12186	2416.883511587672	1
0	12187	2417.309831065854	0
0	12200	2418.398138215742	1
0	12203	2421.235146557999	0
0	12209	2422.493053456203	1
0	12213	2423.095913038606	0
0	12221	2423.346067715788	1
0	12223	2424.03530815787	0
0	12242	2424.599053178437	1
0	12245	2424.982210223545	2
0	12246	2425.21874176952	1
0	12251	2425.464461593125	0
0	12257	2425.985280202697	1
0	12258	2426.183860632638	0
0	12264	2426.751339836488	1
0	12265	2427.486001658359	0
0	12269	2428.329719880725	1
0	12271	2428.504255853698	2
0	12274	2429.374388922431	1
0	12280	2431.541242576578	2
0	12281	2432.019665473817	1
0	12286	2433.682481419207	0
0	12294	2435.415946476287	1
0	12296	2435.583518694372	2
0	12297	2436.071842864978	1
0	12303	2437.047166978587	0
0	12321	2440.032395483251	1
0	12322	2440.065308622665	0
0	12393	2455.14865682848	1
0	12396	2456.097534026027	0
0	12405	2456.200884379805	1
0	12407	2456.241505850177	2
0	12413	2457.670137210078	3
0	12415	2458.300060361576	4
0	12418	2458.499628191342	3
0	12423	2459.005934584989	2
0	12428	2460.485160439809	1
0	12432	2460.597525143918	2
0	12434	2460.714074000383	3
0	12438	2461.248568366207	2
0	12443	2461.567987995608	1
0	12448	2461.794367531679	0
0	12452	2462.83222388599	1
0	12454	2462.868830894322	2
0	12459	2465.376150896694	1
0	12466	2466.447863865219	2
0	12468	2466.666215362374	3
0	12469	2466.869953128897	2
0	12475	2467.119546519146	3
0	12476	2467.583334660386	2
0	12484	2470.128196687709	3
0	12485	2470.177803892	2
0	12489	2470.404585626593	3
0	12496	2471.954104168787	4
0	12498	2472.195654637595	3
0	12503	2472.30808899796	2
0	12509	2472.764988311884	1
0	12516	2473.653366379828	0
0	12534	2474.654159972488	1
0	12538	2475.078869821776	2
0	12540	2476.483300962233	1
0	12548	2477.072296854096	0
0	12562	2479.418479992105	1
0	12571	2484.634934671171	0
0	12586	2487.051905442526	1
0	12587	2487.303659005873	0
0	12593	2487.324961532213	1
0	12596	2488.177528769328	0
0	12614	2489.700812755824	1
0	12615	2490.125095408593	0
0	12628	2492.127697501453	1
0	12629	2492.303507748951	0
0	12635	2492.939808439725	1
0	12636	2493.168960857356	0
0	12647	2494.971072318541	1
0	12651	2496.810353933578	2
0	12656	2497.956887441861	3
0	12660	2498.943832950813	2
0	12666	2499.075584372362	1
0	12671	2499.880506274293	0
0	12680	2500.776721474378	1
0	12682	2501.911211083134	2
0	12686	2502.386022163972	3
0	12687	2503.268095206962	2
0	12694	2503.770778517624	1
0	12699	2505.877077600963	0
0	12711	2509.649337215327	1
0	12714	2510.397885064288	2
0	12717	2512.005216980215	1
0	12722	2512.8624492389	0
0	12739	2516.287302012034	1
0	12741	2517.756804057672	2
0	12744	2518.035676798809	1
0	12749	2518.135720513625	0
0	12755	2520.020700792434	1
0	12757	2520.032671165723	2
0	12759	2520.186402007608	3
0	12764	2521.47638881314	2
0	12771	2522.892267447439	1
0	12775	2523.753293060581	2
0	12778	2524.349974878114	1
0	12782	2524.35676685282	2
0	12784	2524.553124643259	3
0	12788	2524.973635779046	2
0	12794	2525.32619008781	3
0	12795	2525.802686740833	2
0	12803	2527.786996345916	3
0	12804	2528.718014958064	2
0	12810	2529.22551337375	1
0	12815	2530.591749468298	0
0	12846	2534.851502356243	1
0	12851	2536.780853720498	0
0	12867	2538.278464321041	1
0	12870	2539.238840704192	2
0	12871	2539.492647143207	1
0	12881	2540.549023668363	2
0	12887	2542.963660067292	1
0	12892	2544.142026833778	0
0	12898	2545.047527515978	1
0	12899	2547.069458326578	0
0	12903	2547.592775679383	1
0	12907	2551.367032296147	2
0	12908	2551.62800696826	1
0	12912	2552.277927605661	2
0	12915	2552.899647269729	1
0	12919	2554.319306561181	2
0	12921	2554.403872001872	3
0	12923	2555.215200522945	4
0	12931	2556.964984651736	3
0	12936	2559.200799251209	2
0	12940	2559.360548594345	3
0	12943	2561.0645264416	2
0	12948	2561.659891529768	1
0	12954	2562.610080639249	2
0	12955	2563.790231891356	1
0	12961	2566.589438686643	2
0	12964	2567.420590793521	1
0	12969	2568.502424209177	0
0	12973	2570.792146252791	1
0	12978	2571.489215113067	0
0	12982	2572.743432833586	1
0	12985	2573.313646980103	0
0	13032	2579.082514022323	1
0	13033	2579.408409559758	0
0	13047	2581.641146315428	1
0	13048	2581.650778993459	0
0	13054	2582.086356209777	1
0	13057	2582.912631957998	0
0	13065	2583.675525498635	1
0	13066	2583.995437327843	0
0	13104	2588.260939359592	1
0	13105	2588.574679292387	0
0	13134	2593.265738622604	1
0	13138	2593.797490449678	2
0	13139	2593.823119495336	1
0	13144	2594.127076090691	0
0	13165	2596.254350657577	1
0	13169	2597.435744085571	2
0	13171	2597.459043118977	3
0	13176	2599.910792963385	4
0	13178	2600.95832757146	5
0	13182	2601.956698594648	6
0	13183	2603.009278305463	5
0	13192	2603.926198295678	6
0	13193	2603.93781566473	5
0	13198	2604.74149698827	4
0	13205	2605.304704019355	5
0	13206	2606.354092363526	4
0	13211	2607.238900437454	3
0	13217	2607.605255529915	4
0	13221	2609.612657429708	3
0	13228	2610.204684750238	4
0	13230	2610.763552507657	5
0	13232	2611.665201833512	4
0	13238	2612.252149769197	3
0	13243	2613.3164599648	2
0	13248	2614.004305076084	1
0	13253	2614.553246301269	0
0	13275	2618.853238740395	1
0	13276	2620.704288858703	0
0	13287	2622.084645933239	1
0	13289	2623.623839011162	2
0	13292	2625.026432374914	1
0	13297	2625.230880400329	0
0	13303	2627.412712231244	1
0	13304	2627.503161128395	0
0	13325	2630.772378754823	1
0	13327	2630.929065808017	2
0	13329	2632.431157144406	1
0	13334	2632.591649292409	0
0	13358	2635.158501116338	1
0	13360	2635.234306136761	2
0	13362	2635.391417041265	3
0	13368	2636.854215180408	2
0	13376	2637.524731495765	1
0	13382	2638.363890275265	0
0	13390	2640.76982376604	1
0	13392	2640.851387180401	2
0	13393	2640.896296508679	1
0	13398	2641.574871157066	0
0	13402	2641.854161079196	1
0	13404	2642.680127538089	2
0	13406	2643.263477973003	3
0	13408	2643.486042628168	4
0	13411	2643.834909816276	3
0	13420	2644.641745792223	4
0	13425	2646.435420264537	5
0	13426	2646.835510538026	4
0	13433	2647.685195056215	3
0	13439	2647.745565040681	4
0	13440	2648.523088218026	3
0	13447	2650.446893244142	4
0	13451	2650.962297160025	3
0	13457	2651.205842753903	4
0	13458	2651.25343948818	3
0	13463	2651.270220406641	2
0	13467	2651.553089322183	3
0	13470	2652.360926882002	2
0	13475	2654.535713073412	1
0	13481	2655.692009562405	2
0	13482	2656.334678067472	1
0	13486	2656.648420659822	2
0	13489	2657.351088991943	1
0	13495	2657.610867244888	2
0	13497	2658.924308238164	3
0	13500	2659.811667169247	2
0	13504	2659.986997290756	3
0	13507	2660.120529559046	2
0	13513	2661.682388059095	3
0	13514	2661.892770300979	2
0	13518	2663.779808308925	3
0	13520	2664.590892064916	4
0	13526	2666.190733629119	5
0	13527	2666.291098432124	4
0	13533	2666.755988545114	5
0	13535	2666.769938567601	4
0	13541	2666.999009351261	5
0	13543	2667.333169455407	6
0	13544	2667.578677294249	5
0	13548	2667.976244095475	6
0	13551	2668.558922190431	5
0	13557	2668.967941721424	6
0	13560	2671.047597723388	5
0	13566	2673.191716351518	4
0	13571	2673.206859754331	3
0	13575	2673.47126005638	4
0	13579	2674.498458718585	5
0	13580	2674.680273653594	4
0	13586	2676.679501765792	3
0	13592	2676.992810554982	2
0	13597	2678.354021411676	1
0	13601	2679.288128758918	2
0	13603	2679.416129701887	3
0	13607	2679.598741269205	4
0	13609	2679.985208580676	5
0	13610	2681.073820029593	4
0	13616	2681.390111582312	5
0	13618	2682.834518294783	6
0	13621	2682.969416174972	5
0	13629	2683.835262443623	6
0	13630	2683.850528222315	5
0	13634	2684.551018148254	6
0	13640	2684.91837814637	7
0	13642	2685.53095930089	6
0	13648	2686.17742968913	5
0	13654	2686.476424076694	6
0	13656	2687.752795580598	5
0	13662	2688.873754293175	4
0	13667	2689.338520869245	3
0	13672	2690.206018995157	2
0	13680	2691.972675765377	3
0	13682	2692.238242534509	4
0	13684	2693.428554232882	5
0	13685	2693.85668142825	4
0	13689	2694.946822520242	5
0	13692	2695.153350180942	4
0	13699	2697.438162410638	5
0	13700	2698.179684617774	4
0	13706	2698.391864086321	5
0	13711	2699.300505723639	4
0	13718	2702.162618586556	3
0	13726	2705.043307792115	4
0	13730	2705.801387642001	5
0	13731	2706.816829043835	4
0	13736	2708.184031486726	3
0	13741	2708.704460606358	2
0	13745	2708.725058502925	3
0	13747	2709.126183275655	4
0	13750	2709.316249275912	3
0	13756	2710.236691156503	2
0	13761	2710.421483754003	1
0	13765	2710.565630550414	2
0	13771	2713.025385805822	3
0	13772	2713.058290301836	2
0	13777	2714.558929978846	1
0	13785	2714.903077673789	2
0	13786	2715.04466939855	1
0	13790	2717.109056037831	2
0	13792	2717.118520613813	3
0	13794	2718.726595603639	4
0	13797	2720.275590901833	3
0	13802	2720.647018454205	2
0	13809	2722.135347040837	1
0	13813	2722.21236046791	2
0	13815	2723.627050133521	3
0	13819	2724.402824206184	4
0	13821	2724.561075063261	5
0	13824	2724.766534973731	4
0	13831	2725.737581321331	5
0	13835	2727.623593104781	4
0	13840	2727.73900368556	3
0	13846	2729.102860023149	4
0	13848	2729.385673407029	5
0	13849	2729.636210242189	4
0	13856	2732.092139887133	3
0	13861	2732.393834023253	2
0	13866	2732.640615940682	1
0	13870	2732.80437869091	2
0	13874	2733.632623930372	3
0	13876	2733.9195429373	4
0	13878	2735.020671313642	5
0	13879	2735.290125742223	4
0	13885	2735.504954624791	5
0	13887	2735.709528604164	6
0	13889	2736.995135203939	5
0	13897	2737.60433476747	6
0	13898	2738.449116157143	5
0	13905	2739.417297131815	6
0	13908	2739.700697253275	5
0	13914	2740.139943927398	6
0	13915	2740.497780909016	5
0	13920	2740.797531950874	4
0	13925	2740.985913932345	3
0	13932	2743.135616850501	2
0	13937	2744.455258993877	1
0	13944	2745.009209889082	0
0	13948	2745.717421028818	1
0	13952	2745.932592940268	0
0	13978	2748.563721483421	1
0	13985	2752.485382668678	2
0	13987	2753.343372374681	3
0	13989	2754.06172420846	4
0	13990	2754.509708293641	3
0	13995	2754.738565820961	2
0	14001	2754.920294102125	3
0	14002	2756.185125951937	2
0	14007	2757.259337583891	1
0	14016	2760.100156366854	0
0	14035	2761.829719129933	1
0	14036	2763.214312122741	0
0	14089	2771.987317501043	1
0	14090	2772.342735821821	0
0	14096	2772.792217890725	1
0	14098	2773.037014389	0
0	14104	2773.177522872761	1
0	14106	2773.328042553584	2
0	14110	2774.530144364116	1
0	14117	2776.556797523336	2
0	14118	2776.947952864066	1
0	14123	2778.485613355144	0
0	14161	2787.998285067626	1
0	14163	2788.27699799485	2
0	14164	2788.561957537048	1
0	14171	2788.984500776276	2
0	14172	2790.261007712156	1
0	14182	2790.785648800337	2
0	14184	2792.072832916952	1
0	14189	2792.422078578381	0
0	14195	2793.087169571504	1
0	14196	2793.361601122391	0
0	14203	2795.72418364398	1
0	14204	2796.744328597586	0
0	14222	2798.756102657927	1
0	14224	2798.845052202194	2
0	14228	2799.693808989243	3
0	14229	2799.847624296994	2
0	14237	2801.567605722742	3
0	14241	2802.455998009234	4
0	14242	2802.483647813897	3
0	14249	2803.244124696024	4
0	14255	2803.937430827211	5
0	14256	2804.171241187124	4
0	14262	2805.872796758501	3
0	14267	2806.10530191292	2
0	14271	2806.320598668627	3
0	14276	2808.205843922049	2
0	14281	2808.395331102992	1
0	14285	2808.704951931314	2
0	14289	2808.924728366159	3
0	14290	2809.714483040314	2
0	14295	2811.041940374	1
0	14299	2811.262569286865	2
0	14302	2815.159675000343	1
0	14306	2816.058689095598	2
0	14308	2816.42384524932	3
0	14310	2816.509342257461	4
0	14312	2816.960068786372	5
0	14315	2817.630777490335	4
0	14319	2818.476665545816	5
0	14325	2821.161590303158	4
0	14330	2821.175633815156	3
0	14335	2822.338154149341	2
0	14339	2822.396283846195	3
0	14343	2823.024402380876	4
0	14346	2823.376658224638	5
0	14348	2823.739318648562	6
0	14350	2824.076032449451	5
0	14355	2825.451915638481	4
0	14360	2825.81806823929	3
0	14366	2826.183002965155	4
0	14369	2826.867930234166	5
0	14370	2827.4819508438	4
0	14375	2827.569300973951	3
0	14381	2828.393239902388	4
0	14382	2829.314215140421	3
0	14387	2830.681360321203	2
0	14391	2832.115124376435	3
0	14393	2835.195686772629	4
0	14395	2835.835383579109	5
0	14397	2836.55536727792	6
0	14399	2837.984573448887	7
0	14401	2839.65067103355	8
0	14406	2841.000159991028	7
0	14414	2841.112409953901	8
0	14417	2841.977259192431	7
0	14423	2842.504020009382	8
0	14425	2843.010990243669	9
0	14427	2843.615609156729	10
0	14428	2843.771075609074	9
0	14433	2844.23312518078	8
0	14438	2845.487155680547	7
0	14444	2847.167880066196	8
0	14446	2847.289734998957	9
0	14447	2847.921753372175	8
0	14454	2848.725873932234	9
0	14456	2849.245605374179	8
0	14461	2849.308728497027	7
0	14466	2849.334847130827	6
0	14470	2849.891117577496	7
0	14475	2852.989035423881	6
0	14479	2854.565155449243	7
0	14485	2855.321863521227	8
0	14486	2856.425334956673	7
0	14491	2858.319280307434	6
0	14498	2858.753852482111	7
0	14499	2858.897604719167	6
0	14504	2859.135794898494	5
0	14511	2862.019173731332	4
0	14516	2864.796166991248	3
0	14521	2865.350272289862	2
0	14529	2869.518474845227	3
0	14530	2869.668244589853	2
0	14536	2870.600027164521	1
0	14543	2871.01337026371	0
0	14549	2871.754861628674	1
0	14550	2872.107571314554	0
0	14587	2883.958158111722	1
0	14589	2884.523525136044	2
0	14591	2884.682759514205	3
0	14594	2885.481416002925	2
0	14600	2885.803922375928	1
0	14605	2886.200906556717	0
0	14617	2888.951746388814	1
0	14618	2888.996859806549	0
0	14632	2891.949928371578	1
0	14636	2896.106282937374	2
0	14637	2896.2892858376	1
0	14642	2896.92251682679	0
0	14651	2897.832715740256	1
0	14661	2902.28466281576	2
0	14663	2902.679541144146	1
0	14669	2903.730319768038	0
0	14710	2910.270374802781	1
0	14712	2911.712297710996	2
0	14717	2914.44826887331	1
0	14722	2914.464847119169	0
0	14728	2914.599419047287	1
0	14733	2915.266843045039	2
0	14734	2915.352664083565	1
0	14742	2916.104200748178	0
0	14787	2924.136708335171	1
0	14791	2924.573544356091	0
0	14804	2925.086105175021	1
0	14806	2925.100884216108	2
0	14809	2926.993112736116	1
0	14814	2927.020736299469	0
0	14836	2928.941688388967	1
0	14842	2931.727941851986	2
0	14844	2932.903683472527	3
0	14847	2934.36170688127	2
0	14852	2935.244422326024	1
0	14857	2935.469464604665	0
0	14870	2938.739507919521	1
0	14873	2939.311694248252	0
0	14877	2940.377358345307	1
0	14880	2940.867275623512	0
0	14884	2941.067944431838	1
0	14891	2941.939821895691	0
0	14905	2942.904231411878	1
0	14909	2943.400343361606	0
0	14915	2943.62911233099	1
0	14916	2943.880356698859	0
0	14922	2944.011352494653	1
0	14928	2945.761483288829	0
0	14947	2949.469614913245	1
0	14954	2949.942544131661	2
0	14956	2951.787039947611	1
0	14961	2952.105654042189	0
0	14967	2952.553943428579	1
0	14973	2954.4612707797	2
0	14974	2954.524436420667	1
0	14978	2956.854552351581	2
0	14980	2957.539365069005	3
0	14983	2958.251574150152	2
0	14993	2962.532826939702	3
0	14994	2962.56110861127	2
0	14998	2962.778226345715	3
0	15000	2963.195437151122	4
0	15002	2963.916656141917	5
0	15004	2965.367654840594	6
[...]
4	141634	27513.858607697382	10248.641049649
4	141640	27515.200299583744	10243.51022468
4	141645	27515.401006900231	10237.99567731
4	141658	27518.6448454551	10237.94380673
4	141696	27524.461969056434	10242.751231354
4	141707	27526.644216295276	10244.280624417
4	141724	27528.033171770542	10241.34909701
4	141739	27533.800368199312	10225.454312726
4	141757	27538.144931932347	10226.852095424
4	141767	27539.4438535192	10222.561247491
4	141787	27544.405170352007	10226.752173658
4	141799	27544.996496825585	10226.529284388
4	141820	27547.649583741509	10226.24108784
4	141895	27559.241132380021	10224.417703288
4	141907	27561.672180950351	10224.492186247
4	141916	27562.787437532171	10224.262086138
4	141950	27570.724993071179	10231.028054561
4	141964	27573.775823698466	10233.516412332
4	141976	27575.669122117468	10222.709380178
4	142002	27580.098592425105	10220.380024246
4	142021	27588.571365977132	10226.088899613
4	142046	27592.19476745281	10226.598814257
4	142057	27593.985058983813	10227.717196386
4	142065	27594.549561144877	10219.535036689
4	142099	27599.119647935838	10222.906213054
4	142115	27603.035204046563	10226.472989895
4	142121	27603.638126271847	10225.083169899
4	142126	27603.677449522241	10223.266435003
4	142133	27604.236605184257	10222.533465563
4	142149	27608.099314539726	10221.575522199
4	142169	27610.256006026683	10218.483581632
4	142175	27610.895431678838	10217.381118783
4	142183	27611.859017502273	10213.071264047
4	142191	27612.995797792889	10213.320084451
4	142197	27613.450975196216	10209.677643753
4	142209	27616.010377543939	10200.059503085
4	142222	27618.073684542646	10198.599945035
4	142255	27623.356288648995	10201.914397996
4	142261	27624.237723089975	10190.264202283
4	142268	27625.56647610676	10190.524438353
4	142273	27625.591482332155	10186.573876829
4	142281	27626.16680337969	10177.965913627
4	142296	27633.587806767208	10182.162054791
4	142320	27635.000325796599	10183.32267612
4	142325	27635.066881506448	10181.0331825
4	142346	27637.405272458327	10182.483389363
4	142599	27682.54260955086	10222.631720711
4	142635	27687.437983679965	10226.006463051
4	142643	27688.16417586574	10226.204959506
4	142665	27692.60420043119	10225.802245017
4	142706	27698.671358739827	10220.088579874
4	142711	27699.930299133999	10219.167384736
4	142716	27700.139390607595	10218.305454524
4	142726	27703.948985542514	10220.930079614
4	142761	27707.769695413333	10219.440133058
4	142777	27711.699521897228	10222.401766806
4	142782	27712.220744826001	10209.296376485
4	142794	27717.631674709629	10212.446210388
4	142810	27719.008904902857	10203.287282689
4	142815	27719.224543417668	10200.412386986
4	142828	27720.543876562423	10201.161170182
4	142848	27722.66324826373	10192.720829814
4	142880	27730.466960300098	10197.728660564
4	142905	27739.025035205226	10190.336100186
4	143023	27757.832533017215	10190.877702838
4	143030	27759.842204044208	10192.738405523
4	143052	27765.561221072447	10197.023732094
4	143062	27766.939246367816	10195.40472586
4	143070	27767.782802101268	10194.001319869
4	143087	27770.500635056348	10187.276779002
4	143097	27771.2096287316	10186.587341124
4	143110	27775.004970274633	10187.28854865
4	143145	27780.468049984486	10187.091408145
4	143174	27785.084144323427	10187.064258551
4	143181	27785.865332168392	10186.983139334
4	143444	27840.406408817651	10238.800373713
4	143449	27841.320980642881	10235.259446665
4	143466	27844.729193203184	10236.146024002
4	143483	27849.634417574677	10240.714228946
4	143499	27855.409644222574	10245.794457713
4	144684	28105.403353255637	10490.068952832
4	144690	28106.128793668307	10489.423526334
4	144696	28107.17279459149	10488.202145208
4	144705	28109.084230521327	10486.640588456
4	144731	28111.70017716444	10488.538020422
4	144736	28111.72827116049	10487.642997278
4	144742	28112.70260389179	10483.573710338
4	144749	28113.576327267969	10479.642232954
4	144754	28113.629465138212	10475.926592311
4	144761	28116.816974815901	10476.636311269
4	144774	28121.703368043631	10480.67290171
4	144805	28132.123398772076	10486.550963182
4	144904	28149.400740822517	10503.566864589
4	144909	28149.652866975958	10494.697577079
4	144914	28149.998165493948	10492.543024631
4	144925	28151.097736840795	10493.23511775
4	144937	28154.660714946674	10495.467400771
4	144952	28155.183619409422	10485.567140931
4	144963	28158.591129966827	10486.856439219
4	144991	28164.435318403466	10490.893798539
4	145002	28166.457291890035	10490.711523482
4	145009	28167.32089870876	10489.491547087
4	145014	28168.695201040882	10490.512926016
4	145022	28170.732651705475	10488.738290799
4	145028	28171.486151103375	10488.37405138
4	145037	28172.532472041687	10487.383759384
4	145055	28174.861099339837	10479.168060864
4	145064	28177.296052585504	10476.357268076
4	145087	28181.755915255723	10459.017016908
4	145092	28182.695049562733	10453.922089779
4	145097	28182.929978179196	10439.777248665
4	145108	28188.318123794716	10445.136031846
4	145169	28201.722680924075	10446.495230641
4	145179	28202.014259234536	10434.148572777
4	145187	28203.547837272097	10429.92687028
4	145251	28215.092853278617	10438.466101266
4	145268	28217.45660759081	10440.439022796
4	145420	28245.502049203108	10466.518803203
4	145429	28248.716874334685	10467.809364191
4	145447	28251.065574803518	10467.060735319
4	145452	28253.637165198971	10466.22170574
4	145459	28255.413115265237	10467.307499207
4	145482	28261.080704954692	10471.61187725
4	145591	28290.746920668145	10498.622446981
4	145596	28290.779499676428	10495.488118135
4	145602	28291.373848215848	10487.478535802
4	145607	28291.401305786973	10486.754448848
4	145616	28292.717960683398	10486.599531942
4	145634	28294.963000207587	10485.683025127
4	145642	28295.962625165253	10486.585559908
4	145648	28296.951959806965	10486.793205884
4	145668	28306.103368895141	10492.56411362
4	145745	28317.607849590223	10502.039827133
4	145753	28318.17338799084	10492.218836954
4	145763	28320.784348509827	10490.7677545
4	145839	28332.146131125798	10496.061113378
4	145866	28338.339226280614	10500.553890208
4	145893	28340.076822199365	10501.271691078
4	145901	28340.82178745913	10498.408774488
4	145925	28343.430640149663	10495.416675955
4	145934	28346.119971655014	10493.64328551
4	145947	28347.12021080205	10493.027967438
4	145959	28347.836866105651	10492.944597567
4	145979	28351.555435299688	10494.117400721
4	145989	28352.58504049597	10490.11463863
4	146355	28426.479879049812	10563.591700837
4	146435	28441.078074242092	10576.908559832
4	146442	28441.675516320182	10570.992754392
4	146463	28447.396033850735	10554.107078594
4	146480	28448.702371067905	10554.574784766
4	146485	28449.005791181359	10553.363061904
4	146500	28452.116114338706	10543.539832456
4	146564	28466.721768795411	10548.953614719
4	146574	28467.525890503447	10548.343620665
4	146586	28469.633546125703	10549.74721112
4	146614	28472.013055304097	10550.56809534
4	146621	28473.021628211421	10541.379828586
4	146635	28474.976127149715	10530.927320263
4	146934	28533.442787073894	10586.968808484
4	146966	28537.068954467913	10582.919999137
4	146973	28537.646126687265	10581.443715554
4	147021	28548.596832715627	10590.748170806
4	147028	28548.715448993122	10582.293181016
4	147038	28550.716662826447	10580.916361407
4	147052	28552.353626926429	10576.431989585
4	147175	28579.675047556627	10601.675447417
4	147180	28579.826459305878	10596.449567636
4	147195	28584.401184346502	10599.794654182
4	147210	28586.269774617871	10600.643458573
4	147220	28586.982978501665	10598.287591965
4	147226	28587.576639530177	10598.700443141
4	147233	28589.263828282715	10591.644303998
4	147240	28591.514728449239	10587.228645832
4	147254	28592.196114743937	10587.17000959
4	147273	28594.473537501282	10585.838414166
4	147292	28597.218473588088	10564.191854194
4	147306	28599.922676779107	10565.74400349
4	147410	28617.603206680254	10579.618022861
4	147416	28617.803512221477	10575.654236131
4	147427	28620.606204496546	10577.472531456
4	147444	28621.631450949746	10577.560512573
4	147451	28622.854338461169	10573.822289523
4	147472	28629.065259121956	10568.122159737
4	147484	28631.713983434846	10565.541940832
4	147495	28631.96150110589	10562.74942422
4	147796	28696.849441979583	10624.620690498
4	147806	28698.291050114426	10622.61113623
4	147814	28699.018939050206	10623.307410997
4	147831	28700.515904790861	10621.884130347
4	147853	28706.21768794187	10626.450754846
4	147884	28710.137454464695	10625.708458089
4	147890	28711.642248357789	10625.228749143
4	147896	28713.382915831103	10614.307479082
4	147904	28716.210618444056	10616.996307907
4	147914	28716.372459543034	10614.094762947
4	147919	28716.480319656539	10613.590802396
4	147934	28721.865470665899	10617.771243464
4	148077	28752.6313546073	10646.069250759
4	148101	28755.645115438263	10644.598922876
4	148108	28756.102917149867	10640.586136393
4	148132	28760.015710653359	10644.268549271
4	148302	28789.584271287112	10671.994669813
4	148307	28790.066863151981	10672.081655913
4	148317	28790.926642115433	10672.038173079
4	148322	28791.395881958908	10670.330222088
4	148327	28793.698206282435	10664.3844309
4	148334	28794.689939709789	10658.65204058
4	148345	28795.728538585027	10653.041674304
4	148356	28800.281374180775	10655.489265568
4	148367	28805.213387514973	10655.158996143
4	148401	28812.565661775182	10655.070763359
4	148406	28812.665562551897	10652.208238257
4	148411	28814.527109559865	10651.604240391
4	148418	28815.669351507852	10651.888216314
4	148425	28817.209541112936	10649.88703049
4	148438	28819.47084776879	10651.197375294
4	148443	28819.741080296188	10650.464307858
4	148452	28821.794792107791	10649.129761995
4	148462	28823.002426193638	10649.030953096
4	148467	28823.05657338379	10643.20094512
4	148479	28825.56865377604	10639.909663259
4	148498	28827.31593864037	10640.926761089
4	148521	28831.384550150753	10641.738512692
4	148541	28832.495224748905	10635.347718583
4	148546	28832.688760857308	10634.11611103
4	148551	28833.824096366663	10623.797139999
4	148562	28838.12936846952	10618.17974234
4	148583	28839.382845432922	10598.532421582
4	148588	28839.787341040084	10598.143387059
4	148593	28840.299965470825	10595.900650853
4	148603	28843.800424652712	10597.612915334
4	148626	28846.468915658183	10598.426647618
4	148631	28847.315754919145	10595.038050271
4	148638	28848.124533033417	10593.931153835
4	148673	28856.082528150167	10597.482401984
4	148678	28856.815193308073	10595.069195535
4	148687	28857.082067072624	10595.272270758
4	148697	28858.858741289216	10592.503434838
4	148716	28867.028558826308	10596.064095366
4	148794	28878.927238968943	10598.891142387
4	148804	28880.293068802177	10598.01370509
4	148828	28884.013727566913	10600.949547487
4	148844	28886.409643935154	10594.647200331
4	148861	28886.991819955794	10594.773182294
4	148868	28889.38198368558	10595.821015736
4	148910	28897.813334448934	10581.09233591
4	148915	28898.364152555449	10576.699214601
4	148932	28901.303273284755	10577.053709774
4	148967	28904.815918925164	10567.637858096
4	148982	28912.552493774752	10573.641641765
4	149010	28914.877302008414	10570.313044663
4	149015	28914.907418904502	10564.512491323
4	149024	28916.547442952592	10556.707980582
4	149029	28917.325243048195	10550.073926288
4	149046	28923.042930596829	10554.780484967
4	149077	28930.839727976076	10559.024581764
4	149082	28931.531671140567	10546.581883907
4	149091	28932.36301464	10546.422905608
4	149118	28933.379435254054	10545.914663456
4	149123	28934.085190335722	10545.687394261
4	149133	28936.779606866276	10522.092498649
4	149138	28937.087356596146	10518.774764649
4	149143	28938.901129416682	10515.250914624
4	149150	28939.946880075618	10513.148475639
4	149266	28967.5612973264	10535.55148052
4	149274	28969.654957749906	10533.443569004
4	149284	28970.337121651469	10533.869421161
4	149290	28970.420942152203	10528.058311161
4	149299	28970.68872381249	10522.912626325
4	149358	28976.166993834515	10520.707580698
4	149365	28977.312048850546	10520.726491266
4	149373	28978.282934243641	10515.550466063
4	149386	28979.763334576224	10515.977115727
4	149391	28981.27880544956	10517.369808217
4	149398	28985.874751353714	10519.905344385
4	149403	28987.193822101928	10515.479045182
4	149412	28991.625422233092	10512.734614221
4	149427	28994.781841982208	10515.776576906
4	149463	29000.749413860739	10518.580534391
4	149468	29001.200909803867	10518.693368689
4	149473	29001.374492027004	10512.591113623
4	149484	29003.222492152254	10507.771661282
4	149771	29074.637220338698	10571.393190924
4	149779	29076.082503914525	10565.688841528
4	149785	29076.187179407648	10565.466686651
4	149790	29077.090232200807	10564.691399957
4	149796	29079.129506802061	10562.070441421
4	149804	29081.466630380265	10562.973708401
4	149848	29086.101456794863	10564.740193212
4	149853	29086.829657190664	10554.837978897
4	149868	29089.945135031145	10556.258123019
4	150023	29122.155054583163	10587.576398359
4	150028	29122.373669171168	10583.544728296
4	150037	29124.316425017492	10582.627432569
4	150050	29126.738478290454	10583.093999344
4	150060	29127.312151091734	10580.028369509
4	150065	29128.178971429995	10578.444929664
4	150072	29130.454261078388	10578.432651872
4	150083	29133.121850634386	10579.162433268
4	150100	29136.449217163182	10582.412461573
4	150126	29140.104160444244	10585.376564111
4	150139	29144.32906784459	10577.892254704
4	150161	29146.643446945689	10574.477168546
4	150170	29147.950938396574	10559.254572589
4	150636	29247.88763711646	10658.713407817
4	150642	29248.282471901007	10656.699595497
4	150650	29249.873263005081	10654.795755937
4	150661	29251.917481149216	10654.307312828
4	150700	29257.34646706536	10653.827247415
4	150708	29259.070349588069	10638.400940435
4	150713	29259.536916438544	10623.658939632
4	150721	29262.31737852365	10599.307646958
4	150770	29270.276113459189	10596.332030546
4	150775	29270.426471114679	10582.236244818
4	150785	29272.396508815627	10577.71361776
4	150818	29276.825869003725	10581.745808072
4	150828	29277.774143568352	10575.801715261
4	150847	29279.526805645349	10564.166813901
4	150859	29280.913401639351	10561.282148238
4	150870	29281.926152961151	10548.963735303
4	150875	29281.98373205893	10542.927967155
4	150885	29285.17697809828	10545.180281377
4	150895	29285.375194568561	10541.376132111
4	150907	29289.673127667619	10544.362884087
4	150974	29300.783999373173	10553.587119203
4	150981	29301.497088655379	10553.891199055
4	150989	29303.216248605281	10552.995218987
4	150994	29303.281196432319	10546.077427154
4	150999	29304.692220802755	10544.696460469
4	151012	29307.324174073881	10546.395017737
4	151152	29327.607752040114	10555.978999959
4	151162	29329.547236069141	10556.259627971
4	151175	29330.732766944747	10556.339592822
4	151182	29331.504804132119	10555.703680004
4	151187	29331.552427721571	10546.441006931
4	151204	29335.205421754692	10539.868720419
4	151253	29349.77283021646	10549.913251373
4	151268	29354.583957102605	10551.744136986
4	151280	29357.730419684686	10553.365069352
4	151288	29359.626106250165	10554.504960026
4	151296	29360.00288231811	10548.474067558
4	151319	29364.022798254453	10535.050256724
4	151324	29364.307188123634	10533.694049208
4	151331	29367.591886633364	10534.793008407
4	151371	29372.458805835779	10537.053016121
4	151396	29375.239732650588	10534.901783734
4	151441	29383.702853163105	10543.232373438
4	151452	29385.939436853515	10542.834588988
4	151463	29386.398654811357	10540.39005529
4	151469	29386.940297481821	10539.769006203
4	151474	29387.133382487386	10536.024177723
4	151484	29388.688426933349	10537.464087453
4	151496	29389.038672555263	10529.536415582
4	151507	29390.205222485334	10514.259762737
4	151556	29399.808534473825	10522.416983149
4	151592	29407.510858506891	10528.293899644
4	151605	29408.447276621692	10525.443765861
4	151619	29411.083764552562	10513.781491694
4	151624	29413.234978234184	10515.709965592
4	151637	29416.727928344929	10513.591750339
4	151797	29455.56512432062	10549.955614648
4	151809	29456.852050710428	10539.818803822
4	151832	29458.520125716493	10537.492128773
4	151843	29462.107629869106	10540.105823935
4	151859	29463.307821191136	10533.677918354
4	151868	29464.481615468137	10532.492020642
4	151874	29465.930517140329	10532.930413655
4	151879	29466.165906622645	10525.800546099
4	151886	29469.704664251718	10529.097080054
4	151896	29473.617894696703	10526.057286427
4	151901	29475.119453286441	10526.620683918
4	151914	29477.373060620518	10518.128632575
4	151932	29478.958640055818	10515.306697583
4	151937	29479.388987665885	10510.954965198
4	151942	29480.706855127485	10509.67276663
4	151948	29483.472633472706	10512.046355885
4	151955	29484.54844330692	10512.957463709
4	151970	29485.783145396601	10513.791686241
4	151975	29487.451413235049	10513.208276031
4	151981	29489.085380901636	10513.95422613
4	151994	29491.386524428556	10513.717310785
4	152015	29493.31680148124	10511.947997313
4	152025	29493.926780912595	10512.542239726
4	152031	29496.18075918426	10512.237900007
4	152042	29499.34664009324	10511.850867852
4	152077	29504.992266232135	10508.744007941
4	152088	29507.455538466453	10501.009163081
4	152112	29510.607547765424	10499.437227698
4	152144	29518.835328358435	10507.652297207
4	152151	29519.500479243827	10506.071135961
4	152157	29521.264528750458	10507.067459573
4	152169	29523.433445654079	10508.555866506
4	152217	29533.291420180289	10514.250003341
4	152230	29537.13303721665	10495.622314891
4	152235	29537.610346137659	10495.766297062
4	152240	29539.348487566508	10495.079576424
4	152247	29541.560946393033	10494.936641681
4	152254	29542.141778282967	10495.444250047
4	152263	29544.485318607803	10495.199387158
4	152278	29545.70196918143	10486.758290617
4	152286	29547.731078055375	10488.539799892
4	152357	29557.491849204309	10493.972991067
4	152365	29558.366479154209	10492.695651119
4	152376	29558.572308895224	10490.226040698
4	152382	29558.793790762501	10482.797986612
4	152391	29560.349968600388	10484.327418616
4	152411	29562.627587882673	10482.042804778
4	152421	29563.057037825582	10479.623548229
4	152430	29564.260642728884	10478.876059164
4	152736	29625.989959935241	10531.661689813
4	152745	29626.620086657131	10528.873896031
4	152759	29628.555043800682	10528.254702968
4	152988	29675.125213092643	10564.705644494
4	152993	29676.270024056079	10565.692544708
4	153001	29677.574682919806	10566.667525125
4	153017	29682.410874483267	10569.67567631
4	153040	29685.319528720918	10570.75714168
4	153053	29686.403473499161	10563.573873968
4	153058	29687.620603988751	10564.276363237
4	153064	29691.810156868634	10566.205744421
4	153069	29692.470030065785	10560.980779204
4	153078	29694.622755458113	10556.85334354
4	153109	29699.8148472477	10555.691356138
4	153120	29703.172700787665	10555.698776538
4	153266	29733.190102537345	10579.492672237
4	153273	29734.346152533735	10574.837087865
4	153293	29740.95933002273	10574.085260385
4	153369	29753.901522758206	10585.116919713
4	153374	29754.755358622164	10585.715605765
4	153380	29755.318884798556	10576.482152591
4	153387	29756.501244533865	10575.942857649
4	153409	29760.701235112054	10573.698383318
4	153450	29767.044485662823	10571.047888275
4	153486	29775.721902963172	10574.287364021
4	153504	29776.974999023958	10574.873424864
4	153519	29778.367022119405	10575.435985062
4	153550	29783.827173279425	10579.711242781
4	153566	29786.238405424457	10579.200666486
4	153690	29814.880388359111	10604.372723122
4	153714	29817.647461095279	10606.087256447
4	153724	29819.74872005318	10605.791205389
4	153734	29820.649490638301	10598.830669184
4	153752	29822.176456049222	10596.220641107
4	153757	29823.168562141934	10589.871788656
4	153762	29823.622785271814	10585.250185094
4	153773	29824.482231902465	10573.004533594
4	153990	29869.704565578882	10613.786321824
4	154074	29888.229245093288	10628.994092627
4	154080	29888.908092666794	10626.581163798
4	154086	29889.607025157873	10625.389781274
4	154107	29894.526098368745	10628.369977304
4	154530	29984.097749639737	10715.198767194
4	154537	29984.957438078524	10713.944102028
4	154564	29986.748435510544	10714.669431472
4	154576	29987.682611252471	10711.668105908
4	154592	29989.516866755818	10707.804635773

