version 2
run First-n2-17-20191016-14:53:09-10280
attr configname First-n2
attr datetime 20191016-14:53:09
attr experiment First-n2
attr inifile omnetpp.ini
attr iterationvars ""
attr iterationvarsf ""
attr measurement ""
attr network org.omnetpp.queueing.Pizza
attr processid 10280
attr repetition 17
attr replication ""
attr resultdir results
attr runnumber 17
attr seedset 17
param **.PS.maxInventoriedPS 2
param **.U1.interArrivalTime exponential(2s)
param **.U2.interArrivalTime exponential(4s)
param **.PS.serviceTimeForInventoryU1 exponential(0.8s)
param **.PS.serviceTimeForInventoryU2 exponential(1.0s)
param **.PS.serviceTimeDirectU1 exponential(1.2s)
param **.PS.serviceTimeDirectU2 exponential(1.4s)
param **.PS.probabilityProducing 0.5
param **.CS.serviceTimeU1 exponential(0.8s)
param **.CS.serviceTimeU2 exponential(1.0s)

vector 0 Pizza.EntryQueueU1 queueLength:vector ETV
attr interpolationmode sample-hold
attr title "queue length, vector"
vector 1 Pizza.CS queueLength:vector ETV
attr interpolationmode sample-hold
attr title "queue length, vector"
vector 2 Pizza.EntryQueueU2 queueLength:vector ETV
attr interpolationmode sample-hold
attr title "queue length, vector"
vector 3 Pizza.sink lifeTime:vector ETV
attr interpolationmode none
attr title "lifetime of arrived jobs, vector"
attr unit s
vector 4 Pizza.sink lifeTimeU2:vector ETV
attr interpolationmode none
attr title "lifetime of arrived jobs, vector"
attr unit s
0	0	0	0
0	9	2.210708385975	1
0	11	2.351339497469	2
0	15	3.783911004085	1
0	20	4.113174257508	0
0	24	5.639619000026	1
0	28	6.525372369066	2
0	30	6.649218235706	3
0	31	7.557453343831	2
0	35	8.339100524735	3
0	37	8.408931952725	4
0	44	10.486816781568	3
0	49	10.771738652399	2
0	57	11.847366126743	1
0	62	12.250773830501	0
0	68	12.6048033868	1
0	69	12.622399173048	0
0	80	13.689038294465	1
0	82	14.119844397643	0
0	105	16.529975669188	1
0	106	16.606096744671	0
0	117	18.089792734033	1
0	120	19.24946732759	0
0	132	21.480752469582	1
0	134	23.027875967122	0
0	145	24.202604384022	1
0	148	25.236540581076	0
0	159	27.998722932346	1
0	161	29.469309150026	2
0	163	30.305275424714	3
0	169	31.663261752663	4
0	173	32.594233505991	5
0	174	33.464880203711	4
0	179	34.023790851764	3
0	184	34.072797574145	2
0	193	35.635114579633	3
0	195	35.666755944135	4
0	199	36.547258182909	5
0	200	36.85963793698	4
0	205	37.339931456657	3
0	210	41.789811960749	2
0	217	42.604810537916	1
0	222	44.057011930404	0
0	226	44.070266325507	1
0	228	44.242985122873	2
0	232	45.239989591078	3
0	233	45.334363537062	2
0	238	46.733845005495	1
0	245	48.777819005566	0
0	251	49.151249390263	1
0	255	49.497904596405	2
0	258	50.132337226692	1
0	264	51.297414453351	0
0	291	57.386423940197	1
0	292	57.751875611636	0
0	315	61.483038373379	1
0	316	62.277805004438	0
0	346	65.399073367846	1
0	347	65.812589727269	0
0	372	71.695629508666	1
0	375	72.833392433919	0
0	388	74.021494317149	1
0	389	74.819306295039	0
0	405	76.086728427179	1
0	407	76.454373801946	0
0	422	82.366398472382	1
0	424	82.90221464925	2
0	428	83.827579784473	3
0	430	83.880791274991	4
0	432	84.775267701757	5
0	434	85.13873908323	6
0	436	85.508685504158	7
0	439	85.883798832081	6
0	444	86.189641583345	5
0	448	87.139122779093	6
0	455	88.118242058295	5
0	461	89.202908738525	4
0	466	89.50986774966	3
0	473	91.082042063253	2
0	477	91.984909557438	3
0	480	93.870988582064	2
0	486	96.138839022079	3
0	490	97.497477215611	4
0	491	97.835836704437	3
0	495	97.961770379396	4
0	498	99.310770789667	3
0	503	101.606254139531	2
0	510	101.800676380834	1
0	515	102.197451134633	0
0	526	104.217477880427	1
0	527	104.288434890113	0
0	531	105.127665102839	1
0	534	105.312280105139	0
0	542	105.432330420217	1
0	544	105.844021506583	2
0	545	106.088558146805	1
0	550	106.330716223832	0
0	569	109.836808735042	1
0	570	110.17594632362	0
0	576	110.212347903225	1
0	577	110.274888738256	0
0	583	110.757136449152	1
0	584	111.676735646677	0
0	588	112.920062480144	1
0	592	113.588599429657	2
0	593	113.653353090048	1
0	598	114.590502802462	0
0	620	120.798172330622	1
0	622	120.807396706667	2
0	624	121.420159610714	3
0	629	122.549028068203	4
0	631	124.000671508033	5
0	632	124.558319762318	4
0	639	124.603827644772	3
0	644	124.787929012624	2
0	652	127.396708395443	3
0	653	127.948986966502	2
0	658	129.159604467318	1
0	664	129.304501802069	2
0	666	130.339407082122	1
0	673	131.380782525922	0
0	690	134.50694469293	1
0	693	135.599179276091	0
0	736	143.761132657492	1
0	738	143.921645782633	2
0	742	145.214138250368	3
0	746	147.850890346232	2
0	755	148.757427583525	3
0	756	149.417332611895	2
0	764	149.994690399399	3
0	765	150.169998511974	2
0	773	152.153603985704	3
0	774	152.624202199697	2
0	778	155.169689442033	3
0	781	157.249376667427	2
0	785	160.893919499129	3
0	787	161.613674227535	4
0	790	162.741606289266	3
0	795	164.305432171543	2
0	799	164.444779368091	3
0	801	164.948635194347	4
0	806	166.94782518362	3
0	811	169.215828009422	2
0	817	169.399917459646	3
0	819	170.014097721349	4
0	820	170.280030175784	3
0	827	171.317017293606	2
0	832	172.249441759378	1
0	839	173.529446994769	0
0	857	176.029895141035	1
0	859	176.247342990103	2
0	863	178.946659884207	3
0	864	179.119400668991	2
0	868	179.332029104222	3
0	871	181.716161898776	2
0	876	182.767735637386	1
0	882	183.944766953702	2
0	884	184.328396108404	1
0	889	184.379645341764	0
0	910	188.549249814156	1
0	911	189.457701151702	0
0	922	189.853578188229	1
0	924	190.733501663127	0
0	936	191.303440948868	1
0	939	191.62962861915	2
0	941	191.874827960108	3
0	944	193.392326150323	2
0	949	193.715367696864	1
0	955	194.1884592464	0
0	962	194.980090890505	1
0	964	195.018624413391	2
0	966	195.720737276999	1
0	971	195.75714301177	0
0	988	197.151613763607	1
0	991	197.534061924677	2
0	994	198.212335637953	3
0	996	198.5525749621	2
0	1001	199.115821709976	1
0	1007	199.594897582186	2
0	1008	200.013973527769	1
0	1013	201.418209720017	0
0	1034	202.153044569601	1
0	1037	203.571629304774	0
0	1051	206.537216508502	1
0	1053	206.74221767463	2
0	1054	208.0161975798	1
0	1059	208.32468879259	0
0	1063	208.514729056115	1
0	1066	209.498787206628	0
0	1070	209.976640018034	1
0	1072	210.182998115385	2
0	1075	210.708411969145	1
0	1081	211.471600727305	2
0	1082	211.568630074089	1
0	1091	213.03080390221	0
0	1109	215.22478189106	1
0	1111	215.471541895895	2
0	1113	215.720321767173	3
0	1118	216.847179211441	2
0	1124	217.304800457509	1
0	1129	217.458555750473	0
0	1135	217.620102252615	1
0	1138	218.750567427684	2
0	1140	219.671960412755	1
0	1145	220.104889369179	0
0	1164	223.675610765586	1
0	1165	224.165302649231	0
0	1178	225.488364076766	1
0	1182	225.804122077956	2
0	1184	226.132932485411	3
0	1186	228.952262525314	2
0	1192	229.49549897495	1
0	1198	230.137813759853	0
0	1219	231.896359856191	1
0	1221	233.23522269253	2
0	1223	234.298103849674	3
0	1224	234.459242791335	2
0	1229	234.659436272379	1
0	1234	234.857873666386	0
0	1276	240.341380190821	1
0	1278	240.508004108607	2
0	1279	241.120703388161	1
0	1284	241.256424015733	0
0	1297	243.533747848889	1
0	1299	243.583863646949	2
0	1303	243.972507121192	1
0	1309	244.228553865924	2
0	1310	245.321764711159	1
0	1315	246.175363639124	0
0	1337	249.520720903955	1
0	1341	251.368107505177	0
0	1365	261.864193459176	1
0	1366	262.633989586944	0
0	1390	265.208634286358	1
0	1392	266.530961226719	2
0	1395	268.447378186419	1
0	1400	268.493917308619	0
0	1421	272.84474280207	1
0	1422	273.926769740459	0
0	1428	274.174589424012	1
0	1432	275.273492306384	2
0	1433	276.495692900462	1
0	1438	277.170427944682	0
0	1471	281.523575238357	1
0	1474	283.316856668144	0
0	1480	284.389532727322	1
0	1482	284.433185810787	2
0	1483	285.256762607153	1
0	1488	285.481234152883	0
0	1495	286.662899162258	1
0	1497	286.975331741133	0
0	1532	291.06584984742	1
0	1537	292.410545264839	0
0	1541	292.803143942687	1
0	1543	293.861817010328	2
0	1545	294.332482228485	3
0	1550	294.58990193103	2
0	1558	295.812255358026	3
0	1559	296.360254854079	2
0	1565	296.622642714802	3
0	1567	296.913573287348	4
0	1571	298.304432103619	5
0	1572	298.530236479568	4
0	1578	299.082389802773	3
0	1582	299.449436422625	4
0	1584	300.318916323282	5
0	1587	300.631770069304	4
0	1592	301.396922163453	3
0	1596	301.622570704217	4
0	1600	302.95527919525	5
0	1606	306.099729159004	6
0	1608	306.251307735347	7
0	1609	307.060000975164	6
0	1613	308.227502674311	7
0	1615	309.008248002254	8
0	1619	309.784565502956	9
0	1620	309.800709868974	8
0	1625	311.380784781859	7
0	1631	314.438009681523	6
0	1636	314.935522213645	5
0	1641	316.453033529856	4
0	1646	316.837002088665	3
0	1650	317.028799192572	4
0	1653	318.817776642284	3
0	1657	319.131495573426	4
0	1659	319.586706179596	5
0	1662	320.257060928653	4
0	1668	321.478758020611	5
0	1670	321.629305960045	6
0	1674	322.208120014072	7
0	1678	322.726435121499	8
0	1679	323.300787294403	7
0	1683	323.90308185611	8
0	1689	324.698753637249	9
0	1690	324.7491605824	8
0	1695	325.130332220224	7
0	1703	326.645654437299	6
0	1709	327.315829150958	5
0	1714	327.409917383802	4
0	1720	329.698422899357	3
0	1725	329.819711419012	2
0	1730	332.382248210492	1
0	1739	335.404323037392	0
0	1751	336.70531992031	1
0	1752	336.878663774877	0
0	1765	337.606077762137	1
0	1766	337.714587726737	0
0	1777	338.138578639137	1
0	1778	338.177599003345	0
0	1789	339.58819708947	1
0	1792	341.299465915984	0
0	1796	341.73654686171	1
0	1802	343.343573567514	0
0	1808	346.250664979798	1
0	1810	346.6798439652	2
0	1811	346.713550632623	1
0	1816	346.786326318741	0
0	1820	346.79966661721	1
0	1822	347.083330665258	2
0	1826	348.559205915711	1
0	1830	348.641288644796	2
0	1832	348.771053975886	3
0	1837	349.364170329428	2
0	1843	352.435968585592	3
0	1848	353.871770054298	2
0	1853	354.076944743289	1
0	1859	354.4568631051	2
0	1860	354.705073329077	1
0	1864	354.909692467516	2
0	1867	355.91382307336	1
0	1876	357.240254207867	0
0	1915	361.10366965169	1
0	1921	363.546924494923	2
0	1924	364.537687902331	1
0	1931	365.387182165073	2
0	1933	365.784937148237	3
0	1935	365.945720488136	4
0	1936	366.123436813755	3
0	1942	366.776363336076	4
0	1943	367.027153259288	3
0	1947	367.480501940648	4
0	1953	368.58005726587	5
0	1955	369.251521565168	4
0	1965	371.642383777042	5
0	1966	372.26328267913	4
0	1971	372.268640527702	3
0	1980	373.858499359387	4
0	1981	374.297117112082	3
0	1986	374.299298242255	2
0	1991	376.225021137902	1
0	1996	376.744728476006	0
0	2000	377.530435173993	1
0	2002	377.606329439946	2
0	2005	379.847996534305	1
0	2010	380.317196257963	0
0	2027	384.076571026685	1
0	2029	384.86470969675	0
0	2051	387.017441410744	1
0	2055	388.397371503004	0
0	2062	389.039232365346	1
0	2067	390.735874469585	0
0	2075	392.064211071598	1
0	2076	392.279921060825	0
0	2100	397.428425411937	1
0	2103	398.071519669523	0
0	2107	398.330984021773	1
0	2109	398.891027989564	2
0	2111	398.892106402085	3
0	2113	399.009041438048	4
0	2119	400.214322268014	5
0	2120	400.521319707639	4
0	2124	401.641204588511	5
0	2130	404.005928458013	6
0	2135	405.66576822051	7
0	2137	405.876625099874	8
0	2138	405.892298993314	7
0	2143	408.377547486277	6
0	2149	409.415379644143	5
0	2154	409.976928090849	4
0	2158	411.936085244447	5
0	2160	412.148014835478	6
0	2164	412.174724380557	7
0	2166	413.286834753551	6
0	2172	413.668003912925	7
0	2173	413.99106643444	6
0	2181	415.172325327165	7
0	2188	415.812777078564	6
0	2194	417.020240655121	5
0	2200	418.026008214245	4
0	2206	418.089653753567	5
0	2207	418.675960677931	4
0	2214	420.102719568526	3
0	2219	421.847164320492	2
0	2223	423.065244426334	3
0	2227	425.055792143069	4
0	2232	427.222600405796	3
0	2239	429.467024001259	2
0	2244	432.044554529682	1
0	2248	432.149313523882	2
0	2251	432.244340886449	1
0	2256	433.964254420363	0
0	2262	434.627265307086	1
0	2265	435.763989174688	0
0	2293	443.123304683469	1
0	2295	443.929586971145	0
0	2302	444.28294889237	1
0	2303	444.346096466115	0
0	2318	446.111603651916	1
0	2321	447.424600342592	0
0	2328	448.008916859719	1
0	2329	448.01795871198	0
0	2335	448.24735661287	1
0	2336	448.584306405678	0
0	2347	449.799391965392	1
0	2351	449.921601167398	2
0	2353	450.496046123157	3
0	2359	452.553924444981	4
0	2360	452.820135684232	3
0	2366	453.245063570142	2
0	2371	453.361378655762	1
0	2378	456.34113469557	0
0	2389	456.69588029038	1
0	2391	458.222910821257	0
0	2395	458.343744974297	1
0	2398	459.318579607469	0
0	2460	470.941096997883	1
0	2462	471.477697059963	2
0	2464	471.49090998835	3
0	2465	471.568657422397	2
0	2470	471.577846508352	1
0	2476	472.320571409421	0
0	2495	475.682970650208	1
0	2497	475.971645442799	0
0	2513	478.082350747659	1
0	2514	478.155444385495	0
0	2518	478.231680360213	1
0	2531	484.607799606285	0
0	2571	488.473718416597	1
0	2572	488.486434659279	0
0	2593	492.754302483956	1
0	2595	493.387319789816	0
0	2630	497.669043247957	1
0	2633	499.295146950694	0
0	2645	499.860312209459	1
0	2646	502.842459305373	0
0	2665	504.744958202877	1
0	2666	504.846354796816	0
0	2677	505.755847192166	1
0	2679	505.799336149851	2
0	2684	506.751951699768	1
0	2690	507.160071672491	0
0	2707	508.802866156292	1
0	2711	510.790362422326	2
0	2712	511.837466529142	1
0	2718	512.064839287463	0
0	2729	512.680999158937	1
0	2731	512.933248801521	0
0	2748	515.32603592648	1
0	2750	515.595978171174	2
0	2751	516.099962332642	1
0	2756	516.814778544445	0
0	2783	520.593118500474	1
0	2785	520.968671270438	2
0	2786	521.146695906608	1
0	2791	521.337259008784	0
0	2811	522.863305703997	1
0	2813	523.497545194377	0
0	2826	524.723552476147	1
0	2828	524.832116517363	2
0	2837	525.579107272764	1
0	2842	526.850302944074	0
0	2855	528.321163507312	1
0	2856	528.375630160543	0
0	2867	528.400210789987	1
0	2870	529.319971335511	0
0	2876	529.58194562904	1
0	2879	530.029240322442	2
0	2880	530.057371727289	1
0	2885	530.075882720235	0
0	2897	531.220090336093	1
0	2901	532.047115966459	2
0	2902	532.254450877844	1
0	2908	532.290051420896	2
0	2909	532.366633068325	1
0	2913	532.523524250348	2
0	2918	535.269423458157	3
0	2919	535.542409495919	2
0	2924	536.297977797547	1
0	2928	537.687428164855	2
0	2931	538.210401689276	1
0	2937	539.231366112288	2
0	2939	539.447637490754	3
0	2942	539.605513138539	4
0	2943	539.901628204401	3
0	2949	540.000519161543	4
0	2950	540.071671889932	3
0	2956	541.309692610237	4
0	2957	541.942271952448	3
0	2963	542.962559310965	4
0	2965	544.141798578558	5
0	2966	544.227781640418	4
0	2971	545.074545213651	3
0	2975	545.193248495737	4
0	2977	545.361711637082	5
0	2980	546.433755744477	4
0	2985	547.527290173512	3
0	2990	547.963982793667	2
0	2997	548.608002934871	1
0	3001	548.840011716768	2
0	3003	550.468948902409	3
0	3007	551.099270739722	4
0	3010	551.834972701696	3
0	3021	553.425204937901	4
0	3022	554.258774026167	3
0	3029	554.405548763945	2
0	3034	555.110542189985	1
0	3044	556.187073161504	2
0	3048	557.017690420841	3
0	3049	557.444074852532	2
0	3054	558.032899415411	1
0	3062	559.090478303477	2
0	3063	559.13267899713	1
0	3068	559.744380188774	0
0	3072	561.114728566733	1
0	3075	561.991240672163	0
0	3108	567.479289128237	1
0	3109	567.482603293965	0
0	3116	568.768367074627	1
0	3118	569.256885702449	0
0	3124	569.525245815979	1
0	3125	569.729262680685	0
0	3158	572.040273039551	1
0	3162	573.203457530962	2
0	3164	573.243971869152	3
0	3167	573.644596930786	2
0	3172	573.727051597505	1
0	3177	574.22721121367	0
0	3181	575.76881090245	1
0	3183	575.900998402701	2
0	3190	577.275664142174	1
0	3195	580.851342873406	0
0	3203	581.279418082539	1
0	3208	582.37801466285	0
0	3221	585.716713328496	1
0	3224	586.014165913846	2
0	3226	586.138887360839	3
0	3228	586.5136580279	2
0	3234	586.749967774473	3
0	3235	588.752782140945	2
0	3241	589.757392394383	1
0	3246	592.103451532275	0
0	3278	599.071483048185	1
0	3279	599.280137203563	0
0	3318	603.627909310763	1
0	3319	604.227470716637	0
0	3338	608.110786511594	1
0	3339	608.14524556771	0
0	3366	613.052125545394	1
0	3368	613.323416364602	0
0	3374	614.084623859411	1
0	3375	614.339402045746	0
0	3421	631.437087348965	1
0	3423	632.706661733498	0
0	3438	635.275679342487	1
0	3439	635.432467349061	0
0	3452	640.593252317408	1
0	3454	640.639230227391	2
0	3456	640.678128697082	3
0	3457	641.656642097889	2
0	3463	642.266826158532	1
0	3469	642.58569768473	2
0	3470	642.759342932694	1
0	3476	642.940014645923	0
0	3480	642.974016397093	1
0	3484	643.377317111566	0
0	3516	650.921525917182	1
0	3521	652.386319617464	0
0	3527	652.586783110544	1
0	3530	652.956486371342	0
0	3536	653.078880957433	1
0	3539	653.747205966117	0
0	3555	655.823247381044	1
0	3560	656.944600310271	0
0	3571	658.15097828972	1
0	3573	659.044953717746	2
0	3575	659.051305132683	3
0	3577	659.853651403493	2
0	3582	661.632970352382	1
0	3587	662.4366457107	0
0	3591	664.030561711841	1
0	3593	666.596133971778	2
0	3596	668.389372441549	1
0	3602	668.770427908552	2
0	3604	669.147418326517	1
0	3613	670.665714196031	0
0	3639	674.495337239724	1
0	3642	675.319988288146	0
0	3648	675.351377088341	1
0	3649	676.980237499012	0
0	3668	677.765751832395	1
0	3672	678.239930979085	2
0	3674	678.409632144896	3
0	3676	678.685872698094	4
0	3680	681.307592452213	5
0	3688	685.437592037739	4
0	3695	685.579505372035	3
0	3699	685.849025382214	4
0	3704	686.982336252279	3
0	3708	687.062309751308	4
0	3711	687.89251580137	3
0	3715	688.84464824443	4
0	3720	689.842718903379	3
0	3726	691.492918275363	4
0	3728	691.649412812274	5
0	3732	692.22332853323	6
0	3733	692.512596183662	5
0	3739	693.869755461803	4
0	3745	694.885536458779	3
0	3750	694.992988855347	2
0	3755	695.982429413008	1
0	3759	696.477073750407	2
0	3764	697.065369133466	1
0	3770	699.021298173999	2
0	3772	700.512318122795	3
0	3777	700.951368306714	2
0	3784	703.00373473369	1
0	3789	703.747863336771	0
0	3793	704.676736896563	1
0	3797	704.962788042398	2
0	3798	705.440291512637	1
0	3804	707.905453218943	2
0	3805	708.807541408414	1
0	3811	709.609545472422	2
0	3812	710.331143472631	1
0	3817	711.035088386314	0
0	3823	711.663600633527	1
0	3826	712.438956900406	2
0	3828	712.921540629013	3
0	3832	714.016743555561	4
0	3834	714.528720528589	5
0	3835	714.59352991544	4
0	3840	715.506847904543	3
0	3845	715.731489401321	2
0	3853	717.083317154846	3
0	3854	717.600307258327	2
0	3861	718.218505251825	1
0	3867	718.649165185903	2
0	3869	718.939590083103	3
0	3870	719.632992081678	2
0	3875	719.689887427329	1
0	3881	719.80148950947	2
0	3883	721.139598466204	3
0	3890	722.333822150435	4
0	3892	723.248032796728	5
0	3894	724.9532851946	6
0	3895	725.41281116362	5
0	3900	726.031079225876	4
0	3906	727.135253177261	5
0	3911	728.182241090164	4
0	3916	728.89064087988	3
0	3923	729.296703064478	2
0	3929	729.65722104185	3
0	3930	729.663035752827	2
0	3935	729.714934480449	1
0	3940	732.546666815436	0
0	3944	732.614246365743	1
0	3948	733.148104545176	2
0	3949	734.773213906201	1
0	3953	735.859148107758	2
0	3957	737.057166961674	3
0	3958	737.151964876117	2
0	3962	737.789860786194	3
0	3964	737.930378597934	4
0	3966	739.503984273611	5
0	3974	741.437937082154	4
0	3981	742.403860329508	5
0	3983	743.459539107467	4
0	3990	744.454829251512	5
0	3991	745.354931913069	4
0	3996	745.57146994746	3
0	4001	745.605060437739	2
0	4009	747.144158932687	3
0	4011	747.569722037926	4
0	4013	748.129622962557	5
0	4018	749.17095658693	4
0	4023	750.892814692311	3
0	4029	754.277924792776	2
0	4034	754.554797663497	1
0	4039	755.263566792515	0
0	4043	755.292703839741	1
0	4046	755.900000555346	0
0	4057	757.000026981943	1
0	4061	757.822654532992	2
0	4062	758.183449999021	1
0	4067	759.433802363723	0
0	4071	759.710468116823	1
0	4076	761.87800085202	0
0	4119	768.257794947358	1
0	4123	770.241009008267	2
0	4124	770.715029764312	1
0	4132	770.825660048545	0
0	4144	772.159750562014	1
0	4145	772.685094756551	0
0	4173	777.670968092299	1
0	4177	778.266691133527	2
0	4178	778.624554588614	1
0	4183	779.150635411855	0
0	4205	783.437091367468	1
0	4206	783.626413621584	0
0	4222	784.989973212767	1
0	4225	785.849937485449	0
0	4240	787.331274495991	1
0	4244	787.666888868397	2
0	4246	788.015806337599	3
0	4250	788.892845792277	4
0	4253	789.163632339854	5
0	4254	789.800383447249	4
0	4260	790.180121927299	3
0	4265	790.213604887133	2
0	4272	790.292677695819	1
0	4276	790.727010111681	2
0	4278	791.7182508757	3
0	4282	792.083339546754	4
0	4285	792.639671732839	3
0	4290	793.613482183581	2
0	4296	794.77506356406	1
0	4302	795.347378281794	0
0	4323	799.295628571579	1
0	4324	799.660572605398	0
0	4336	800.428524394174	1
0	4337	801.215946295693	0
0	4341	801.524682456032	1
0	4343	802.934407144074	2
0	4347	803.028174604112	3
0	4350	804.254421040179	2
0	4356	805.141273338501	3
0	4357	805.800612361664	2
0	4364	806.29320067791	1
0	4371	806.759763230071	0
0	4378	808.323659239333	1
0	4379	809.592336474751	0
0	4392	810.624926402884	1
0	4393	811.194407590576	0
0	4407	812.259167621253	1
0	4408	812.890483029413	0
0	4418	815.21883503635	1
0	4422	815.599393196833	2
0	4423	815.803482863385	1
0	4430	816.071408334934	0
0	4450	818.768278048572	1
0	4451	819.167642933146	0
0	4472	822.375210046426	1
0	4479	823.371320069617	0
0	4487	826.578754217222	1
0	4488	827.159318526342	0
0	4492	827.275434252196	1
0	4495	827.858616023155	0
0	4501	829.976090643259	1
0	4504	830.741104545992	0
0	4508	832.225457913357	1
0	4510	833.364314438464	2
0	4512	833.77310338265	3
0	4517	834.31479983871	2
0	4524	834.889115715765	1
0	4529	836.855575768138	0
0	4551	842.200253155532	1
0	4553	842.266159492092	2
0	4555	842.754861234872	3
0	4557	844.470926050858	4
0	4560	845.418708668357	3
0	4568	845.840661772494	2
0	4574	845.91218373218	3
0	4576	846.897804370251	4
0	4577	846.985278752266	3
0	4582	847.241589466579	2
0	4587	847.695086480654	1
0	4591	848.0178263572	2
0	4598	849.503329986359	3
0	4605	850.88138390025	4
0	4607	851.123042426502	5
0	4609	851.197115447314	6
0	4611	851.293786743704	7
0	4614	852.526084727057	6
0	4619	853.861342703344	5
0	4626	855.60914171693	6
0	4627	856.340912038236	5
0	4632	857.109746051509	4
0	4637	858.047377604406	3
0	4644	858.861331116965	2
0	4650	860.344794253671	1
0	4656	860.418258780649	2
0	4658	860.741479849702	3
0	4659	861.161357566586	2
0	4666	862.521238688736	3
0	4668	863.385217281881	4
0	4669	863.62031687326	3
0	4674	863.640192131456	2
0	4678	864.459784602417	3
0	4680	865.14612638973	4
0	4683	865.463379217314	3
0	4690	866.327097184619	2
0	4695	867.677751034029	1
0	4702	868.297674481717	2
0	4704	869.060758408273	3
0	4705	869.518820223121	2
0	4712	871.488189685415	1
0	4717	871.747971391762	0
0	4723	873.725835151447	1
0	4724	873.879602631396	0
0	4728	874.177058417499	1
0	4731	875.570000691322	0
0	4776	885.961439223173	1
0	4777	886.361159603697	0
0	4814	890.198871111105	1
0	4816	890.600652125285	2
0	4817	890.642983421871	1
0	4822	891.357883750397	0
0	4839	894.519339619221	1
0	4841	894.626210061576	2
0	4846	896.720165571665	1
0	4851	897.231858888237	0
0	4872	899.526906567483	1
0	4874	899.652493438234	2
0	4877	900.057491201316	3
0	4879	900.787219848642	4
0	4880	901.49847144582	3
0	4885	903.471686959223	2
0	4889	903.814167893761	3
0	4891	904.198713277791	4
0	4893	904.645915199486	5
0	4897	905.056889831597	6
0	4899	905.267855637949	7
0	4901	905.457922749453	8
0	4902	905.688287275525	7
0	4909	907.517083028388	6
0	4913	907.80322819348	7
0	4917	909.12536096106	8
0	4918	910.002092447539	7
0	4923	910.345666450547	6
0	4935	911.910230831494	7
0	4937	912.100412634546	8
0	4938	912.589897138388	7
0	4943	913.846976894893	6
0	4949	914.257885476077	7
0	4951	914.652581065927	8
0	4952	915.535154206589	7
0	4958	916.765559676128	8
0	4959	916.797733551292	7
0	4963	917.507210177108	8
0	4965	917.675467302377	9
0	4969	918.838815246322	8
0	4974	919.613176121387	7
0	4979	919.909381135822	6
0	4983	920.159094702415	7
0	4989	922.31159519499	8
0	4992	923.343196185631	7
0	4996	924.986872314261	8
0	5000	927.916397879205	9
0	5008	929.661039968489	10
0	5009	929.848552240079	9
0	5016	931.032619674302	8
0	5022	932.26601603559	7
0	5028	932.456674124344	8
0	5030	932.78020205211	9
0	5032	932.881553610737	10
0	5033	932.920164740461	9
0	5039	933.615250616	8
0	5045	934.584318610179	7
0	5051	934.598808097489	8
0	5062	940.87651179819	9
0	5063	940.881710384719	8
0	5069	941.675937005036	9
0	5070	941.804310688527	8
0	5074	941.819803176961	9
0	5076	942.327561847456	10
0	5082	943.985240441504	11
0	5084	944.015125942699	12
0	5085	944.161541983044	11
0	5090	944.687184869578	10
0	5094	945.249642477362	11
0	5096	945.260441659288	12
0	5098	946.037581611378	13
0	5100	946.183735174303	14
0	5105	947.312365084642	13
0	5110	947.678153294857	12
0	5119	949.556743574899	11
0	5125	950.078897696586	12
0	5126	950.306347664284	11
0	5131	951.821630522682	10
0	5137	953.857804464612	9
0	5142	953.886535275122	8
0	5149	955.037422751594	9
0	5150	955.675142844756	8
0	5157	955.945273138977	7
0	5165	957.266438538457	8
0	5166	957.433528177379	7
0	5170	958.364087886623	8
0	5172	958.370995403565	9
0	5174	959.453661202847	10
0	5176	959.698463048875	11
0	5180	960.045124047711	10
0	5185	960.126970929926	9
0	5194	962.536898824302	10
0	5196	963.701932880058	11
0	5198	963.978347875269	12
0	5199	965.425552659394	11
0	5205	967.132961592199	10
0	5210	967.305342773877	9
0	5216	969.16124765007	10
0	5218	969.966346428582	9
0	5223	969.987013944779	8
0	5229	970.536460844848	7
0	5234	970.783072160383	6
0	5238	971.22121464263	7
0	5242	971.841290911608	8
0	5243	972.967197696262	7
0	5247	973.258457152285	8
0	5249	973.596335339968	9
0	5251	974.189803031419	10
0	5253	975.820593437935	11
0	5256	976.210850559297	10
0	5261	976.780730386927	9
0	5267	978.415773708362	10
0	5269	979.838498212568	11
0	5271	979.932704211188	12
0	5274	981.349081704574	11
0	5279	981.73557496497	10
0	5284	982.404563166612	9
0	5288	982.489187714889	10
0	5290	982.598702211418	11
0	5292	982.94532526586	12
0	5297	984.202388971824	11
0	5301	984.238283881	12
0	5307	988.2990596677	13
0	5309	988.616621199285	14
0	5311	988.873388934955	15
0	5314	990.449292896822	14
0	5319	991.036315299277	13
0	5325	991.462598522953	14
0	5329	992.491969107977	15
0	5330	992.696556071799	14
0	5336	992.790108185863	15
0	5338	993.148657179538	16
0	5339	993.625804244965	15
0	5346	994.086127974059	16
0	5347	994.167895872634	15
0	5352	994.555432136835	14
0	5358	995.574613240758	13
0	5364	995.660247419036	14
0	5365	995.92645549716	13
0	5369	996.027845179262	14
0	5372	996.919223710618	13
0	5377	997.744523866702	12
0	5381	998.161285765065	13
0	5385	998.655080425738	14
0	5386	998.89890046	13
0	5391	1000.738778561352	12
0	5395	1000.91424863252	13
0	5398	1001.724779041894	12
0	5404	1002.043508026815	13
0	5405	1003.87130013825	12
0	5410	1005.355659821556	11
0	5415	1007.680191210454	10
0	5419	1007.747010297348	11
0	5422	1009.283665895675	10
0	5430	1012.2826132957	9
0	5435	1013.299145151484	8
0	5441	1014.665548484028	9
0	5445	1015.086893441828	10
0	5447	1016.378549053629	9
0	5452	1016.521168188623	8
0	5456	1017.811771537353	9
0	5459	1018.747856309811	8
0	5464	1019.537850873465	7
0	5470	1020.516438186425	8
0	5471	1021.129210740268	7
0	5477	1022.597566921745	6
0	5484	1024.804451674556	5
0	5489	1025.488124771904	4
0	5495	1026.207175348635	3
0	5500	1028.540532178683	2
0	5509	1033.812994319302	3
0	5510	1034.442297101721	2
0	5516	1035.061889091716	3
0	5517	1035.349395015522	2
0	5522	1035.603486189099	1
0	5528	1037.638584549436	0
0	5534	1037.689137351416	1
0	5535	1038.108867299073	0
0	5548	1039.932621244667	1
0	5550	1040.016005846602	2
0	5556	1040.2657053783	3
0	5557	1040.301299400922	2
0	5562	1041.48405533683	1
0	5570	1043.748061428292	2
0	5571	1044.325536481091	1
0	5579	1045.855957797537	0
0	5596	1047.029676256236	1
0	5597	1047.198381022921	0
0	5609	1048.078597970689	1
0	5611	1048.766679122021	0
0	5615	1049.939783958232	1
0	5624	1053.471760302372	0
0	5630	1054.599239155196	1
0	5631	1055.099690426921	0
0	5654	1057.49270418455	1
0	5656	1057.803739402772	2
0	5658	1057.826429075566	3
0	5662	1058.239188252178	2
0	5667	1058.334528114384	1
0	5672	1059.4724055905	0
0	5682	1061.449365614504	1
0	5683	1061.889207621784	0
0	5687	1062.647714087373	1
0	5690	1063.001454705752	0
0	5707	1063.89520303608	1
0	5711	1065.156218066241	0
0	5715	1065.924945379654	1
0	5719	1066.373895475636	0
0	5742	1070.872750157454	1
0	5744	1071.75053174127	0
0	5766	1073.24253810142	1
0	5767	1073.370754679521	0
0	5777	1074.63784119499	1
0	5778	1076.653523296988	0
0	5784	1077.056550239219	1
0	5793	1078.964636311905	2
0	5794	1079.710433856512	1
0	5800	1079.790677054884	0
0	5838	1083.483442855258	1
0	5840	1083.811843003847	2
0	5841	1084.423411926118	1
0	5847	1084.424103706593	2
0	5849	1085.276512817414	1
0	5856	1086.406885731536	0
0	5880	1088.43352612396	1
0	5886	1090.10279389611	2
0	5887	1090.217312035311	1
0	5891	1090.771594943417	2
0	5893	1090.920078978943	3
0	5897	1091.543066834519	2
0	5904	1092.055404580242	1
0	5908	1093.606912547891	2
0	5911	1094.232486974544	1
0	5916	1094.504824361267	0
0	5922	1095.095341750111	1
0	5924	1095.965662039833	2
0	5929	1097.65164299719	1
0	5937	1098.830453221209	2
0	5938	1099.752966325612	1
0	5943	1099.82697422543	0
0	5949	1099.862857141805	1
0	5950	1100.306396515762	0
0	5954	1101.043274518645	1
0	5960	1103.051692488372	0
0	5988	1106.658016407344	1
0	5995	1109.131780536254	0
0	6001	1109.498125364414	1
0	6003	1109.964689216028	0
0	6009	1110.334685981675	1
0	6011	1110.564744726755	2
0	6012	1110.648066116857	1
0	6021	1111.801478640829	0
0	6025	1111.837785876789	1
0	6028	1113.354708659187	0
0	6032	1114.297138480886	1
0	6034	1115.472184158378	2
0	6037	1115.706380609366	1
0	6045	1116.432581674775	2
0	6047	1116.676414301096	3
0	6050	1117.63893438633	2
0	6054	1117.914801876369	3
0	6058	1118.555940405456	4
0	6060	1119.762102507029	5
0	6063	1119.846124848374	4
0	6068	1120.636669747718	3
0	6072	1122.297797537673	4
0	6075	1123.281956683022	3
0	6079	1124.262162005777	4
0	6081	1124.305549681187	5
0	6087	1124.583882958853	4
0	6092	1125.386586791634	3
0	6099	1127.100728666889	2
0	6104	1127.534172362789	1
0	6108	1127.704895087311	2
0	6111	1128.755427681426	1
0	6117	1129.699466860906	0
0	6133	1132.674439241598	1
0	6135	1132.726080036121	2
0	6137	1134.008832962893	1
0	6144	1134.257999785174	0
0	6155	1136.296784340457	1
0	6161	1138.516882458877	0
0	6188	1140.835009719629	1
0	6190	1141.551040819108	2
0	6193	1142.891422322175	1
0	6201	1143.571278503977	0
0	6227	1147.517459072799	1
0	6228	1147.526026463289	0
0	6246	1148.392178445704	1
0	6247	1149.324825599396	0
0	6256	1150.136418201721	1
0	6261	1150.784545479518	0
0	6283	1153.321393630485	1
0	6285	1154.246729069932	0
0	6291	1154.783767649641	1
0	6292	1154.988460161638	0
0	6301	1156.669158742723	1
0	6306	1158.171509874772	2
0	6307	1158.676334468181	1
0	6316	1160.276716632665	0
0	6333	1161.70313800892	1
0	6334	1162.19185371592	0
0	6343	1162.392196220452	1
0	6346	1164.210441491138	0
0	6357	1165.736980534893	1
0	6359	1165.87075086222	2
0	6362	1166.595906280324	1
0	6366	1167.050227736596	2
0	6371	1169.753021938496	1
0	6376	1169.824520071692	0
0	6392	1170.38737923013	1
0	6397	1172.012961897775	2
0	6398	1172.161456501172	1
0	6403	1172.564054197227	0
0	6409	1172.811259863513	1
0	6412	1173.403988725367	0
0	6418	1175.5952130955	1
0	6420	1175.912994638956	2
0	6421	1176.457094868783	1
0	6436	1179.303460202289	2
0	6438	1180.641620911046	1
0	6443	1180.658728868123	0
0	6447	1181.786882356483	1
0	6449	1182.083476551671	2
0	6453	1182.466166489147	3
0	6454	1182.753777562829	2
0	6458	1183.385300717358	3
0	6461	1184.798509851571	2
0	6465	1184.99736416986	3
0	6468	1185.92752077383	2
0	6472	1186.247232411442	3
0	6476	1186.552047961972	4
0	6478	1187.625688907994	3
0	6486	1189.098703669261	4
0	6487	1190.04289088079	3
0	6493	1190.616829559758	4
0	6494	1191.066147533311	3
0	6499	1191.414703003069	2
0	6506	1193.099434584156	3
0	6507	1193.545275026205	2
0	6514	1193.868916619414	1
0	6520	1194.164524016012	2
0	6522	1195.040662991793	3
0	6523	1195.401283840572	2
0	6533	1198.584387949401	1
0	6539	1198.852081630614	2
0	6540	1199.822038033022	1
0	6544	1200.196530931983	2
0	6546	1200.197443255013	3
0	6549	1201.890168109146	2
0	6553	1202.06310870705	3
0	6556	1202.980158035971	2
0	6561	1203.514313174607	1
0	6565	1204.972997055039	2
0	6568	1208.252292279828	1
0	6572	1208.279613004964	2
0	6577	1209.187828470543	3
0	6578	1209.272644960017	2
0	6583	1209.457416815521	1
0	6588	1211.754818123438	0
0	6594	1213.445043380192	1
0	6598	1213.927594114973	2
0	6600	1214.337427750402	3
0	6601	1214.404377115001	2
0	6606	1214.914408110234	1
0	6610	1215.702798117594	2
0	6612	1215.71975485376	3
0	6614	1216.035485241109	4
0	6618	1216.973106187795	5
0	6622	1218.124928656196	6
0	6625	1218.60032187283	7
0	6626	1219.087029945493	6
0	6631	1219.200782665518	5
0	6635	1220.316898947712	6
0	6637	1220.371062296602	7
0	6639	1220.839033947157	8
0	6641	1221.234468815159	9
0	6645	1221.90981384991	10
0	6649	1224.023588109377	9
0	6658	1224.403655244026	8
0	6666	1226.506495341041	9
0	6667	1226.515920755567	8
0	6672	1227.380570590385	7
0	6677	1229.023400348332	6
0	6682	1229.909804163342	5
0	6688	1230.318815392171	6
0	6689	1230.741026109152	5
0	6695	1231.512510025075	6
0	6696	1231.541600285081	5
0	6702	1231.854962065679	6
0	6703	1232.159602125034	5
0	6707	1233.644663111981	6
0	6709	1233.985307878764	7
0	6712	1234.289207555407	6
0	6718	1234.953895334943	7
0	6719	1235.232535009472	6
0	6724	1237.22934741183	5
0	6730	1238.868109088298	6
0	6732	1239.448119859198	7
0	6733	1239.468857932807	6
0	6738	1240.648952627351	5
0	6747	1245.196690952081	6
0	6749	1245.219859268249	7
0	6751	1245.38278556541	8
0	6752	1246.08647007326	7
0	6758	1246.448256699219	6
0	6763	1246.457308320502	5
0	6768	1247.468346474968	4
0	6773	1248.050071864017	3
0	6778	1248.870488362955	2
0	6785	1250.484853118762	1
0	6792	1251.70658175246	0
0	6796	1251.909032144924	1
0	6801	1252.741329234561	2
0	6803	1253.735479836821	1
0	6808	1254.352377941823	0
0	6828	1256.394254247247	1
0	6829	1256.539721771077	0
0	6840	1258.302857947423	1
0	6841	1259.823737469107	0
0	6852	1260.242381003951	1
0	6854	1260.657083896675	0
0	6865	1261.141637571902	1
0	6867	1261.441803831472	2
0	6872	1263.821644530817	1
0	6881	1266.965124701374	0
0	6885	1267.003568087085	1
0	6888	1268.020075684601	0
0	6905	1269.400207222585	1
0	6908	1269.758858222674	2
0	6910	1270.07404719676	3
0	6912	1270.312685284251	4
0	6913	1270.472160777189	3
0	6919	1270.631192191467	2
0	6925	1270.667764588227	3
0	6926	1271.371604922514	2
0	6931	1271.454013720762	1
0	6935	1272.173530037357	2
0	6939	1274.283050786822	1
0	6943	1275.357562361212	2
0	6948	1277.958575970166	1
0	6953	1278.718787626899	0
0	6960	1281.479427740861	1
0	6962	1281.665983118463	2
0	6964	1281.890724634346	3
0	6965	1282.401267765475	2
0	6970	1284.259103480755	1
0	6979	1285.837241075845	2
0	6980	1285.881824093557	1
0	6986	1286.016437824622	2
0	6988	1286.351730407536	3
0	6990	1286.479018222566	4
0	6992	1287.634395246811	5
0	6993	1288.253821912212	4
0	7000	1289.303235309359	5
0	7004	1290.319641018424	4
0	7010	1290.387688836461	5
0	7015	1292.610732183078	6
0	7016	1293.313982343951	5
0	7022	1296.029460904163	6
0	7023	1296.334721196292	5
0	7030	1297.613096406257	4
0	7036	1300.418801341213	3
0	7041	1300.504489424398	2
0	7045	1300.935398324326	3
0	7048	1303.551441249892	2
0	7052	1303.762478589849	3
0	7056	1304.136048705049	4
0	7057	1304.857172802423	3
0	7065	1305.646555895778	4
0	7066	1306.114485242723	3
0	7071	1306.204112932144	2
0	7077	1306.27468624995	3
0	7080	1307.0370828781	2
0	7084	1307.354666775514	3
0	7088	1308.832096881393	4
0	7091	1309.054173172822	3
0	7095	1310.82853793642	4
0	7097	1311.265637887317	5
0	7100	1312.570950543127	4
0	7105	1313.704277596915	3
0	7110	1314.285028439724	2
0	7114	1314.690127796842	3
0	7117	1316.300093558308	2
0	7122	1316.936294629343	1
0	7127	1317.527396746959	0
0	7133	1318.459215942842	1
0	7139	1319.452231535381	2
0	7141	1319.691600214061	3
0	7143	1320.32540312875	4
0	7144	1320.335580096416	3
0	7149	1320.648205826653	2
0	7155	1322.971469905344	3
0	7158	1323.671591080354	2
0	7163	1325.017328355648	1
0	7168	1325.809581007182	0
0	7172	1326.452989299355	1
0	7175	1327.981468009631	0
0	7183	1328.390752934804	1
0	7185	1328.530734447399	2
0	7187	1328.638002009123	1
0	7192	1328.913808089948	0
0	7196	1330.471854995307	1
0	7204	1331.639560510547	2
0	7208	1331.907566234153	3
0	7209	1332.496973671144	2
0	7213	1332.918546121868	3
0	7216	1334.546840372724	2
0	7220	1335.973949290044	3
0	7224	1337.406216444123	4
0	7229	1338.520575368119	3
0	7234	1339.362132647662	2
0	7238	1340.042079661877	3
0	7245	1344.688150884554	2
0	7251	1345.464954835411	1
0	7256	1345.904032954387	0
0	7269	1347.737312044338	1
0	7271	1348.240621292224	0
0	7293	1352.578921057354	1
0	7294	1353.37625109257	0
0	7305	1355.80010627032	1
0	7307	1356.082078079926	2
0	7310	1356.654571347418	1
0	7316	1357.571547676559	0
0	7320	1357.87622975098	1
0	7325	1359.498811497425	2
0	7326	1359.594749942721	1
0	7332	1360.189918762523	0
0	7352	1362.399678717153	1
0	7357	1364.078992373771	0
0	7366	1364.866350770763	1
0	7372	1366.112079633546	0
0	7417	1373.059607608103	1
0	7419	1373.42797350876	2
0	7420	1373.53886295633	1
0	7426	1373.87712690948	0
0	7432	1373.993427970238	1
0	7435	1374.404088839758	2
0	7437	1374.897172413872	1
0	7443	1375.00287519842	2
0	7444	1375.180634984824	1
0	7450	1375.244378229207	2
0	7451	1375.34688472781	1
0	7455	1376.032274797125	2
0	7461	1377.582378057625	3
0	7463	1377.946321131762	4
0	7468	1379.642258390548	3
0	7472	1381.453978491789	4
0	7478	1383.113498577541	5
0	7480	1383.823410721918	4
0	7485	1383.889945313691	3
0	7491	1384.67527478495	4
0	7493	1384.916836032248	5
0	7495	1385.404461257293	6
0	7500	1387.353800401525	7
0	7501	1387.963451289307	6
0	7507	1388.521481776628	7
0	7509	1389.432558549168	6
0	7514	1390.16357751981	5
0	7520	1390.719430396923	6
0	7522	1390.972705075814	5
0	7527	1391.524372080447	4
0	7532	1392.937359604711	3
0	7537	1393.359731579357	2
0	7543	1393.989903687557	3
0	7545	1394.675859776879	2
0	7550	1394.780522441433	1
0	7554	1394.904191336587	2
0	7558	1395.180157755919	1
0	7564	1395.518040207284	0
0	7576	1397.00795476108	1
0	7578	1397.014751568379	2
0	7581	1397.612902471761	3
0	7582	1398.514231241486	2
0	7588	1398.694497019371	1
0	7597	1402.032215705243	0
0	7603	1402.743516442247	1
0	7605	1402.787453371237	2
0	7606	1403.611646879951	1
0	7614	1404.722418439415	2
0	7616	1404.989927011712	3
0	7620	1405.844732101483	2
0	7625	1405.923861534002	1
0	7630	1407.984758178202	0
0	7660	1413.716785025052	1
0	7662	1413.989232845297	0
0	7686	1415.646936119706	1
0	7690	1417.517363900505	2
0	7691	1417.678530624262	1
0	7698	1418.053111482547	2
0	7701	1419.009402758329	3
0	7702	1420.706692701017	2
0	7710	1421.686452758405	1
0	7717	1421.927442489355	0
0	7738	1424.790475837659	1
0	7740	1424.916499864341	2
0	7748	1425.828962215978	1
0	7753	1425.940149649789	0
0	7764	1427.243532439	1
0	7766	1427.420148236969	2
0	7769	1427.739666663062	1
0	7774	1428.697913342652	0
0	7780	1428.877833053013	1
0	7782	1429.988167286556	0
0	7811	1435.922014703634	1
0	7814	1436.372824953376	0
0	7831	1440.240568729445	1
0	7832	1440.362068587523	0
0	7843	1440.678475246922	1
0	7844	1440.970922970468	0
0	7850	1441.229327958639	1
0	7852	1441.516468540524	0
0	7906	1452.135816747724	1
0	7907	1452.763006503619	0
0	7914	1453.403849899707	1
0	7915	1453.55619082816	0
0	7922	1453.862942943732	1
0	7923	1454.153686842169	0
0	7941	1456.641727492557	1
0	7945	1456.997109423593	2
0	7946	1457.75366360173	1
0	7952	1458.951852934694	0
0	7958	1459.044601379413	1
0	7959	1459.114051675874	0
0	7970	1461.375414885548	1
0	7972	1461.42717219506	2
0	7975	1462.752160062063	1
0	7982	1463.996365907883	2
0	7983	1463.997791626859	1
0	7987	1464.216012814462	2
0	7993	1464.822453222811	1
0	7998	1464.889856749204	0
0	8004	1466.180989015344	1
0	8008	1468.324864839386	0
0	8020	1470.85839432562	1
0	8023	1471.84522130978	0
0	8031	1472.538771197227	1
0	8032	1472.902856035405	0
0	8038	1473.291754217968	1
0	8039	1473.551358577328	0
0	8059	1478.449034647665	1
0	8061	1478.828473509473	2
0	8063	1479.07952623134	3
0	8066	1480.234745729115	2
0	8073	1480.976562148505	3
0	8074	1481.533987433673	2
0	8081	1481.940584427821	1
0	8085	1482.515699391071	2
0	8091	1483.040267336974	1
0	8097	1484.520413009213	2
0	8098	1484.579531212317	1
0	8103	1485.310537542797	0
0	8114	1486.892904349126	1
0	8118	1491.932703813858	2
0	8120	1492.259016586657	1
0	8126	1492.285609069291	2
0	8128	1492.83643941177	1
0	8136	1494.254052715036	2
0	8138	1496.861848025973	3
0	8139	1497.39807546373	2
0	8143	1497.68892907612	3
0	8150	1500.117811061214	2
0	8154	1500.182769856788	3
0	8156	1500.809353165519	4
0	8160	1501.547657689622	5
0	8166	1503.514654992693	6
0	8170	1504.104941221724	5
0	8176	1504.35088785086	4
0	8181	1504.643607526968	3
0	8185	1505.180366202754	4
0	8190	1508.121290183256	3
0	8197	1509.123839434913	2
0	8201	1509.285214042018	3
0	8203	1510.585236621351	4
0	8205	1510.667720266317	5
0	8207	1511.138745158324	6
0	8210	1511.676666396477	5
0	8215	1512.698888338393	4
0	8219	1514.13008589087	5
0	8226	1516.491413946226	6
0	8227	1518.102730038035	5
0	8235	1519.413655414424	6
0	8236	1519.970575207316	5
0	8241	1520.849273960571	4
0	8246	1521.141328508927	3
0	8250	1522.859150417105	4
0	8253	1523.379321770963	3
0	8258	1526.735457585583	2
0	8264	1527.003568583272	3
0	8267	1528.28340766423	4
0	8268	1528.505138307266	3
0	8275	1528.993169477924	2
0	8279	1529.022566398823	3
0	8284	1531.152020690825	2
0	8288	1531.348656459957	3
0	8291	1531.574526599795	2
0	8295	1532.777112766603	3
0	8301	1533.408642877142	4
0	8303	1534.091548708116	5
0	8304	1534.670645897279	4
0	8310	1535.690991211839	5
0	8312	1536.16725500452	6
0	8318	1538.253173311136	5
0	8325	1539.126729373827	4
0	8330	1539.247380800909	3
0	8336	1539.574651848189	4
0	8338	1540.766444218707	3
0	8347	1541.047628447798	4
0	8349	1541.152153941823	5
0	8353	1541.680187267146	6
0	8355	1541.83882160713	7
0	8356	1541.916953708251	6
0	8366	1543.910604046966	7
0	8367	1544.089682386682	6
0	8372	1544.170979103208	5
0	8377	1544.494768589066	4
0	8381	1544.572621482208	5
0	8385	1545.492704596699	4
0	8392	1545.822290511768	3
0	8400	1546.854140379234	2
0	8405	1547.149424288891	1
0	8410	1548.17077885463	0
0	8416	1548.678735137833	1
0	8419	1549.364620499621	2
0	8420	1549.466121324887	1
0	8426	1550.73433998296	2
0	8429	1550.882036560647	3
0	8436	1551.656441260256	4
0	8437	1551.726105073889	3
0	8442	1552.419588468037	2
0	8448	1552.950314459667	1
0	8453	1553.05851957651	0
0	8459	1554.421886789845	1
0	8463	1554.596181940495	0
0	8479	1556.192028655718	1
0	8483	1557.27570156303	2
0	8484	1557.417995508834	1
0	8490	1558.686698567678	2
0	8493	1559.168825066482	1
0	8499	1559.839321208471	2
0	8500	1559.885294500077	1
0	8505	1560.627513997161	0
0	8511	1560.747325815023	1
0	8512	1561.172316734686	0
0	8516	1561.5873684017	1
0	8519	1561.969185132802	0
0	8541	1565.281284434551	1
0	8546	1567.67840676967	2
0	8550	1571.687078084356	3
0	8554	1575.046421190629	4
0	8555	1575.492385748515	3
0	8560	1576.149989048716	2
0	8566	1580.223365797539	1
0	8571	1580.485024292852	0
0	8575	1580.61198165438	1
0	8577	1581.087784524308	2
0	8581	1582.615709790763	1
0	8586	1582.881611411417	0
0	8590	1583.626237529169	1
0	8593	1585.735248777069	0
0	8599	1587.695088667762	1
0	8600	1588.996052722578	0
0	8606	1590.021960625695	1
0	8607	1590.541430667111	0
0	8613	1591.94599519175	1
0	8617	1593.038688458972	2
0	8620	1593.306778240843	1
0	8626	1594.542774337145	2
0	8629	1594.89849699651	3
0	8630	1595.938974608606	2
0	8637	1596.739219369077	3
0	8638	1597.384701382823	2
0	8643	1598.378199336604	1
0	8649	1598.591310649084	2
0	8651	1599.760017621813	1
0	8656	1601.891693234399	0
0	8691	1609.360951672019	1
0	8692	1610.780607514945	0
0	8709	1612.310468011781	1
0	8710	1612.528462687839	0
0	8735	1613.374573508959	1
0	8740	1616.268436398249	0
0	8761	1618.703860052172	1
0	8762	1618.822068452834	0
0	8768	1619.336465112483	1
0	8772	1620.560754177661	2
0	8773	1621.201888590478	1
0	8781	1621.742793144679	0
0	8805	1626.305243520092	1
0	8810	1627.831183930322	0
0	8822	1628.770914997657	1
0	8825	1628.910217705431	0
0	8839	1630.470280492512	1
0	8841	1633.128069049431	2
0	8847	1633.713812849494	3
0	8849	1633.820573894564	4
0	8850	1633.866120377787	3
0	8855	1634.26992649212	2
0	8864	1635.27161202474	3
0	8867	1636.407711649943	2
0	8873	1636.683348274641	3
0	8876	1638.088674469489	2
0	8881	1638.684280048204	1
0	8890	1639.761111700059	0
0	8898	1640.187603597012	1
0	8899	1640.520820316868	0
0	8903	1640.816776934653	1
0	8908	1642.008401446082	0
0	8914	1642.44220401285	1
0	8917	1642.834241011863	0
0	8927	1643.734397930301	1
0	8929	1643.855605427544	2
0	8930	1644.145848391645	1
0	8935	1645.402595583259	0
0	8944	1647.373725932031	1
0	8945	1647.378219555616	0
0	8983	1654.692780494034	1
0	8985	1656.251020554495	2
0	8992	1657.810544173895	1
0	8999	1658.295532513204	2
0	9003	1659.914002700566	1
0	9009	1660.346262960489	2
0	9012	1661.46667803994	3
0	9016	1662.166917152728	4
0	9017	1662.389785448993	3
0	9024	1663.862085150692	2
0	9031	1664.88538685936	1
0	9036	1665.28714365804	0
0	9042	1667.117877054333	1
0	9043	1667.189526318432	0
0	9047	1667.254613910019	1
0	9050	1668.399008277675	0
0	9062	1669.749477325367	1
0	9064	1670.941958576524	0
0	9075	1671.201596626466	1
0	9076	1671.272605930155	0
0	9083	1671.800520035106	1
0	9087	1672.07837775498	0
0	9094	1672.948496069344	1
0	9096	1673.120854183325	2
0	9097	1673.132030841146	1
0	9104	1673.243540567605	0
0	9118	1674.771231772535	1
0	9120	1675.19881159201	2
0	9127	1678.393169262036	3
0	9128	1679.210998064583	2
0	9134	1679.339184769088	3
0	9136	1679.507191996155	2
0	9141	1679.511055831978	1
0	9145	1679.716779519208	2
0	9147	1680.052000526775	3
0	9150	1680.885463593747	2
0	9156	1681.240389608232	3
0	9157	1681.367175031125	2
0	9163	1683.332498354599	3
0	9165	1683.624200816765	4
0	9167	1683.962563850072	5
0	9168	1684.278959814011	4
0	9173	1685.797608393562	3
0	9179	1685.986495636512	4
0	9180	1686.951924212451	3
0	9184	1687.063345644584	4
0	9186	1687.282091727076	5
0	9191	1689.681822083452	4
0	9198	1691.468523357673	3
0	9204	1692.250211628875	4
0	9206	1692.440626033283	5
0	9209	1693.018304482362	6
0	9212	1694.426161292043	7
0	9217	1696.98893643081	6
0	9222	1697.661752591672	5
0	9228	1697.692325123926	6
0	9231	1699.635525666809	7
0	9234	1700.506885658938	6
0	9240	1701.190468419441	5
0	9245	1701.372544080965	4
0	9254	1702.241726426294	3
0	9259	1703.409795157156	2
0	9267	1704.455422288914	1
0	9276	1705.36298010239	0
0	9331	1716.209059745314	1
0	9336	1718.51767975005	2
0	9337	1718.537629124817	1
0	9345	1720.541510780877	0
0	9370	1723.364840186769	1
0	9377	1724.367923990326	0
0	9395	1725.627263985761	1
0	9396	1725.90841788568	0
0	9437	1735.122484553411	1
0	9440	1735.596398072459	0
0	9457	1736.944274561383	1
0	9459	1738.187897300073	0
0	9465	1738.765468088589	1
0	9467	1739.070447564248	2
0	9468	1740.364591624451	1
0	9473	1740.412351329186	0
0	9481	1741.57819875612	1
0	9483	1742.28611771672	2
0	9485	1742.656194666894	3
0	9486	1743.536347702307	2
0	9491	1743.851998724521	1
0	9496	1743.973781209295	0
0	9500	1744.305636320638	1
0	9502	1745.158227707448	2
0	9506	1745.684359665407	3
0	9512	1746.685147341363	4
0	9513	1746.851398517026	3
0	9520	1750.108019704437	4
0	9525	1752.498975806896	5
0	9528	1752.814040924599	4
0	9533	1754.06392633542	3
0	9539	1754.226085172111	4
0	9541	1754.892975407577	3
0	9549	1755.262586447071	4
0	9551	1755.474386160971	3
0	9556	1755.517271333245	2
0	9561	1755.845648381033	1
0	9568	1757.205256044963	2
0	9569	1757.752659671549	1
0	9574	1758.377146413753	0
0	9578	1760.922858278362	1
0	9582	1763.092563235101	0
0	9601	1764.127850320127	1
0	9606	1767.276461343218	0
0	9610	1767.523894869958	1
0	9612	1767.810370748015	2
0	9616	1768.549782815989	3
0	9617	1768.707984713324	2
0	9624	1770.226275342071	1
0	9628	1770.675558208127	2
0	9634	1771.286801920319	3
0	9636	1771.594621182684	4
0	9640	1772.617905745484	5
0	9644	1773.624716058884	6
0	9646	1775.210502679727	7
0	9649	1775.869780548559	6
0	9655	1776.270263308539	7
0	9660	1776.777867269206	6
0	9664	1776.964760481421	7
0	9666	1777.122529667589	8
0	9668	1778.396529735569	9
0	9673	1779.594627253209	8
0	9677	1779.648457848174	9
0	9679	1780.522165731303	10
0	9681	1780.577551011166	11
0	9683	1780.578850921875	12
0	9686	1780.825637716725	11
0	9691	1782.231974491881	10
0	9695	1782.382164373515	11
0	9700	1782.841505092567	10
0	9704	1782.968759069636	11
0	9707	1784.029425173446	10
0	9711	1786.723262290919	11
0	9716	1787.650907450862	12
0	9717	1787.792735342651	11
0	9722	1788.105856886238	10
0	9727	1788.569669313891	9
0	9733	1789.963531667946	8
0	9740	1791.217964339345	7
0	9745	1791.276692676448	6
0	9750	1791.654831837745	5
0	9755	1792.499532796	4
0	9762	1793.858329950666	3
0	9767	1796.554638006304	2
0	9772	1796.959053228079	1
0	9776	1797.909122652773	2
0	9782	1798.748852851867	1
0	9787	1799.007417978982	0
0	9803	1801.251392673946	1
0	9807	1801.613879636821	2
0	9812	1802.530781083074	3
0	9814	1803.675041470884	4
0	9816	1803.801056982657	5
0	9817	1803.820946559863	4
0	9824	1804.444370549353	5
0	9826	1804.658519039362	6
0	9827	1805.266514965735	5
0	9834	1806.507174438694	4
0	9839	1806.590753163311	3
0	9844	1807.286365493995	2
0	9849	1808.308025750482	1
0	9857	1810.281344794033	0
0	9868	1812.670662756842	1
0	9870	1812.820015888564	2
0	9875	1814.54344459146	3
0	9876	1814.587537726419	2
0	9880	1815.299359919372	3
0	9884	1816.539658723524	2
0	9889	1816.55374764287	1
0	9896	1818.154743443445	0
0	9902	1819.383456007374	1
0	9904	1819.693358740829	2
0	9908	1822.073123365979	1
0	9916	1822.34220919757	2
0	9917	1822.697440815969	1
0	9922	1824.146520224519	0
0	9926	1825.720675179351	1
0	9929	1826.908335586844	0
0	9938	1827.957817634953	1
0	9939	1828.338211655227	0
0	9945	1828.439233919295	1
0	9947	1828.706668397989	2
0	9949	1828.759079669529	3
0	9954	1828.992905282332	2
0	9961	1831.93315463913	1
0	9965	1832.111671697261	2
0	9970	1834.604584250392	1
0	9975	1835.635123882056	0
0	9979	1835.943261860718	1
0	9983	1836.590838323491	2
0	9986	1836.780992421532	1
0	9991	1837.276746512996	0
0	9995	1837.486132536634	1
0	9997	1838.555431175267	2
0	9999	1840.641021459945	3
0	10003	1841.505674982999	4
0	10004	1841.617650115635	3
0	10008	1841.975478873025	4
0	10012	1842.492918580211	5
0	10015	1843.567841748088	6
0	10019	1844.076353227583	5
0	10024	1845.443751830393	4
0	10031	1846.021370161992	5
0	10032	1847.050661492378	4
0	10037	1847.824806698533	3
0	10046	1849.090406376016	2
0	10050	1849.311011778678	3
0	10055	1850.238355421816	2
0	10060	1850.561782164594	1
0	10064	1851.892548036367	2
0	10066	1852.2779378508	3
0	10072	1853.019490718809	2
0	10077	1853.132400208218	1
0	10082	1853.33188974384	0
0	10096	1857.334482000681	1
0	10097	1857.397969718948	0
0	10103	1860.850379461061	1
0	10105	1860.988586809351	2
0	10106	1861.28082349331	1
0	10111	1861.509856951992	0
0	10117	1863.680347434274	1
0	10120	1864.214154319967	0
0	10124	1864.833828117339	1
0	10128	1869.024076714578	0
0	10155	1872.112959393601	1
0	10158	1873.611820926068	0
0	10164	1873.781706619132	1
0	10166	1874.022441338354	2
0	10167	1874.15504879349	1
0	10172	1875.709625753941	0
0	10182	1877.073442092599	1
0	10184	1877.19589551234	0
0	10188	1877.484336553124	1
0	10190	1878.260186345593	2
0	10193	1879.671066721986	1
0	10198	1881.307694827621	0
0	10238	1887.212399295536	1
0	10242	1887.825622152166	2
0	10245	1888.057533504227	1
0	10250	1888.292686370991	0
0	10266	1890.520386517552	1
0	10268	1890.942599962876	0
0	10272	1891.005927416076	1
0	10278	1891.862557155062	0
0	10290	1892.41436636267	1
0	10291	1892.973105038591	0
0	10306	1896.354834518933	1
0	10308	1896.868809993421	2
0	10309	1897.80459172413	1
0	10315	1897.912169991802	2
0	10316	1898.474438136827	1
0	10321	1899.438899457792	0
0	10327	1899.552139982321	1
0	10328	1899.984304782266	0
0	10341	1900.925169198984	1
0	10345	1902.19480549517	2
0	10346	1902.335535924832	1
0	10352	1902.916450081804	0
0	10368	1904.90970682318	1
0	10371	1906.301840488432	2
0	10373	1907.027438767718	1
0	10381	1907.488641853992	2
0	10386	1908.491484654067	3
0	10389	1909.100412495292	4
0	10390	1909.37949160567	3
0	10395	1909.674608821869	2
0	10405	1912.683526152985	3
0	10407	1912.7640315068	4
0	10408	1913.586877714787	3
0	10413	1914.045052356447	2
0	10420	1914.235143977001	3
0	10421	1914.597940981063	2
0	10429	1915.608789837809	3
0	10431	1916.359762322315	4
0	10432	1916.836667581501	3
0	10438	1917.667927023677	4
0	10439	1918.02022483374	3
0	10443	1918.0878417664	4
0	10447	1918.950323269934	3
0	10452	1919.680882175493	2
0	10457	1920.467849740739	1
0	10462	1921.231542631368	0
0	10471	1923.311428759387	1
0	10472	1923.649006724086	0
0	10478	1923.903235388018	1
0	10480	1924.669923354143	2
0	10481	1925.101564236675	1
0	10489	1926.309528938635	2
0	10494	1926.960882650656	1
0	10500	1927.571914285274	2
0	10501	1928.119628849184	1
0	10505	1929.070584607127	2
0	10508	1929.751262520139	1
0	10514	1930.126698297666	2
0	10517	1931.318785149484	1
0	10523	1931.721023431228	0
0	10540	1932.939319815769	1
0	10541	1933.762539116741	0
0	10566	1935.318420229476	1
0	10569	1935.514407857003	0
0	10578	1936.909617264651	1
0	10580	1938.743200484417	2
0	10583	1939.913825478187	1
0	10588	1941.918151444599	0
0	10597	1946.21160976955	1
0	10606	1949.44852061771	0
0	10624	1951.523885482579	1
0	10626	1952.449481139884	2
0	10627	1952.656804593738	1
0	10632	1952.850213035241	0
0	10636	1953.033612251121	1
0	10638	1953.390114731411	2
0	10644	1954.515390835983	3
0	10645	1954.967028740447	2
0	10652	1957.408643970978	1
0	10658	1958.414098402079	0
0	10678	1960.190695824472	1
0	10679	1960.978515948608	0
0	10685	1962.44478346209	1
0	10686	1962.539892097359	0
0	10693	1962.686712615957	1
0	10694	1963.699858695611	0
0	10706	1965.824177402538	1
0	10707	1966.285055071506	0
0	10713	1966.742160692327	1
0	10715	1966.961038562593	0
0	10734	1967.297884410571	1
0	10737	1968.298802013197	0
0	10745	1969.269945778258	1
0	10746	1969.526288900256	0
0	10752	1970.888102469767	1
0	10754	1971.120285481561	2
0	10755	1971.222732136199	1
0	10760	1971.554242010537	0
0	10773	1972.604996790811	1
0	10774	1972.610371830367	0
0	10785	1973.43899451313	1
0	10786	1974.160073646852	0
0	10801	1976.547739176277	1
0	10802	1976.637648338404	0
0	10806	1978.512119952224	1
0	10808	1978.618333651286	2
0	10810	1979.096266393117	3
0	10813	1979.243881097859	2
0	10821	1980.447857930299	1
0	10830	1981.656771299133	2
0	10832	1981.786683049434	1
0	10837	1982.671533583318	0
0	10863	1985.13793632866	1
0	10868	1985.806442609694	0
0	10874	1985.841159275939	1
0	10879	1986.165343853304	2
0	10880	1986.311025398318	1
0	10885	1986.646816460796	0
0	10889	1986.810508712879	1
0	10894	1988.654911055211	0
0	10917	1992.43579974456	1
0	10918	1993.021864707973	0
0	10937	1993.993584813294	1
0	10947	1998.12782086026	0
0	10961	2000.241924256308	1
0	10963	2000.946329947249	2
0	10966	2002.216030977422	1
0	10974	2003.482126836794	2
0	10977	2004.833518991587	1
0	10982	2004.962963431836	0
0	10988	2005.245636561024	1
0	10990	2005.434462603493	0
0	10996	2007.463160768358	1
0	11000	2009.55278573717	0
0	11006	2010.215229625192	1
0	11007	2010.257763117291	0
0	11026	2015.029080934437	1
0	11027	2015.312281741639	0
0	11035	2015.797603188508	1
0	11036	2016.208101669133	0
0	11048	2017.899713802065	1
0	11052	2018.635729365735	2
0	11055	2018.735436216011	1
0	11064	2019.021580247742	0
0	11070	2019.411117837252	1
0	11071	2019.426095583989	0
0	11092	2022.832590835605	1
0	11093	2023.080758160528	0
0	11120	2028.699778916494	1
0	11122	2029.605024056267	0
0	11158	2033.180912747902	1
0	11160	2034.076261850551	2
0	11165	2036.273446797172	1
0	11170	2036.403493157033	0
0	11186	2039.654708243982	1
0	11188	2040.409592922229	2
0	11190	2040.602495379188	3
0	11192	2042.973270466168	4
0	11195	2043.512614373111	3
0	11202	2046.695161275993	2
0	11207	2046.842479348311	1
0	11213	2046.955252720334	2
0	11216	2047.806413537024	3
0	11218	2047.878479342921	4
0	11219	2047.902879095656	3
0	11224	2048.283505170497	2
0	11230	2049.257671115611	3
0	11234	2049.937952371022	2
0	11239	2050.785157660586	1
0	11244	2051.410181827432	0
0	11252	2055.334307751857	1
0	11253	2055.491250457728	0
0	11257	2056.229466890452	1
0	11261	2057.07218764543	0
0	11265	2057.253366255224	1
0	11268	2057.671115144912	0
0	11293	2061.466348609951	1
0	11296	2062.382713299276	2
0	11297	2062.492103448016	1
0	11303	2063.134279678609	0
0	11324	2065.475609465858	1
0	11325	2065.566181068841	0
0	11348	2069.580857302616	1
0	11350	2069.784297394306	2
0	11354	2072.425050434995	3
0	11355	2072.562741642753	2
0	11362	2073.106967108129	3
0	11363	2073.468312009889	2
0	11369	2073.832013629287	3
0	11370	2073.874424353161	2
0	11376	2074.502298132698	3
0	11379	2074.996484059512	4
0	11380	2075.163406798088	3
0	11384	2075.430487545473	4
0	11386	2075.512851887094	5
0	11388	2077.405827976077	6
0	11390	2077.533949229496	7
0	11398	2080.431653117732	8
0	11399	2080.713391084506	7
0	11404	2080.914607081433	6
0	11410	2081.08483507303	5
0	11415	2082.692422908241	4
0	11421	2083.274800918617	5
0	11426	2083.72967484034	4
0	11433	2085.302634269025	3
0	11438	2087.451102687019	2
0	11444	2087.752822213944	1
0	11449	2087.988684190814	0
0	11461	2088.558217013116	1
0	11466	2088.821075036716	2
0	11468	2088.825816422165	3
0	11469	2089.077451370647	2
0	11476	2090.249757172358	3
0	11478	2091.689059850435	2
0	11483	2092.347321995426	1
0	11489	2093.193204777582	2
0	11490	2093.299658543379	1
0	11498	2093.944117903888	2
0	11499	2094.139821733724	1
0	11504	2094.862637716082	0
0	11532	2097.680273174365	1
0	11537	2100.115931318517	2
0	11538	2100.837140616717	1
0	11544	2101.950491256848	2
0	11546	2102.149559018089	3
0	11551	2104.198105675681	4
0	11555	2104.865107140192	5
0	11557	2104.966914587373	6
0	11558	2105.248389155171	5
0	11564	2106.498626355167	4
0	11569	2106.512118498416	3
0	11575	2106.578096908911	4
0	11576	2106.687043409799	3
0	11582	2107.986422877345	4
0	11583	2108.062727594831	3
0	11590	2108.725377446041	2
0	11596	2110.621252328588	3
0	11598	2110.862152319693	4
0	11600	2111.012292976268	3
0	11606	2111.468448960904	2
0	11611	2111.616117992067	1
0	11616	2113.928012276489	0
0	11620	2114.020909679762	1
0	11623	2115.144817819211	0
0	11629	2115.779744928226	1
0	11632	2116.261079334731	0
0	11638	2116.39444930522	1
0	11642	2116.774713625018	0
0	11648	2116.897101332556	1
0	11649	2117.053601300758	0
0	11661	2119.255534173605	1
0	11662	2119.281055404686	0
0	11668	2119.611025521205	1
0	11671	2120.663615788843	2
0	11673	2120.692257213511	3
0	11674	2123.127393513059	2
0	11679	2123.175430472589	1
0	11684	2123.580682240986	0
0	11704	2126.81339148008	1
0	11709	2129.02742940778	2
0	11711	2129.11022596899	3
0	11712	2129.338918397767	2
0	11717	2130.518039006287	1
0	11724	2131.392809564205	0
0	11735	2133.556402278418	1
0	11739	2134.407966289678	0
0	11761	2138.360728372342	1
0	11763	2139.776999788105	0
0	11769	2140.066631059976	1
0	11770	2140.751752536804	0
0	11782	2141.625978456705	1
0	11784	2142.007572822402	0
0	11797	2142.68907174284	1
0	11799	2143.308024483092	0
0	11813	2145.322676732917	1
0	11815	2145.579806220216	2
0	11816	2147.161189395387	1
0	11821	2147.275998770075	0
0	11828	2149.713956185101	1
0	11830	2149.862070365234	2
0	11831	2150.335075216129	1
0	11837	2150.734002261089	2
0	11842	2151.227782197913	1
0	11846	2151.413944788181	2
0	11848	2152.147024185069	3
0	11850	2152.627110718024	4
0	11853	2153.586385823695	3
0	11860	2154.129628074635	4
0	11863	2154.920553759158	5
0	11864	2155.06010566786	4
0	11871	2155.192905072409	5
0	11872	2155.590939871257	4
0	11877	2156.569038292559	3
0	11889	2157.795568805426	4
0	11891	2158.154118796299	5
0	11892	2158.506038525035	4
0	11898	2159.495294791941	3
0	11903	2159.553805504321	2
0	11908	2159.742653969604	1
0	11913	2162.597030429813	0
0	11919	2162.960412035542	1
0	11924	2164.337684298875	0
0	11928	2164.887192474606	1
0	11931	2165.367622108233	0
0	11961	2168.656585138792	1
0	11968	2170.610983695364	0
0	11979	2171.441546914339	1
0	11980	2171.613542187085	0
0	11994	2172.240778058742	1
0	11995	2172.97365316754	0
0	12008	2176.183884144322	1
0	12011	2176.483735022872	2
0	12012	2176.779779054272	1
0	12020	2178.174898638479	2
0	12021	2179.207985439077	1
0	12026	2179.590973189034	0
0	12047	2186.390274527995	1
0	12051	2187.474339469574	0
0	12069	2188.666681980965	1
0	12070	2188.795074319933	0
0	12083	2190.705723616937	1
0	12085	2190.832287453893	2
0	12087	2191.458477410513	3
0	12090	2193.113526447706	2
0	12097	2193.256439112616	1
0	12103	2193.574852467153	2
0	12104	2193.889583719594	1
0	12113	2196.694450898791	0
0	12131	2198.4475542168	1
0	12132	2199.086782497517	0
0	12152	2203.446117503038	1
0	12153	2203.587615353373	0
0	12159	2204.234426017018	1
0	12163	2205.397502382066	0
0	12169	2205.458774778838	1
0	12170	2205.560378816623	0
0	12183	2206.108322963701	1
0	12186	2206.849814054476	2
0	12187	2206.870529626711	1
0	12193	2207.104095569796	0
0	12207	2207.808966315888	1
0	12211	2208.365712281581	2
0	12215	2209.762212582168	3
0	12217	2210.627116540817	4
0	12218	2210.898038536159	3
0	12223	2211.255451074834	2
0	12232	2212.341093291863	1
0	12238	2214.157433750016	2
0	12242	2215.071272931719	1
0	12248	2217.084930935143	0
0	12271	2219.053815184232	1
0	12274	2219.756173218494	0
0	12322	2229.064828732826	1
0	12324	2229.774777241437	2
0	12327	2230.355855112596	1
0	12332	2230.69207205016	0
0	12341	2231.961748150924	1
0	12343	2232.885436527876	2
0	12345	2234.378065022561	3
0	12349	2237.102092179341	4
0	12351	2237.31719482366	5
0	12353	2237.776557505726	6
0	12358	2238.639358326232	5
0	12365	2239.656198269877	4
0	12372	2239.925678893676	5
0	12374	2239.985938320295	6
0	12376	2240.190246596445	7
0	12377	2240.242785568659	6
0	12382	2240.399809452123	5
0	12389	2242.433244917938	4
0	12394	2244.39641735856	3
0	12398	2244.732025109747	4
0	12400	2244.765194301561	5
0	12404	2245.168377776863	6
0	12405	2245.199221923265	5
0	12413	2249.21202405999	4
0	12419	2249.995092820953	5
0	12420	2250.194831935885	4
0	12426	2252.122940877253	5
0	12429	2253.12995912236	4
0	12433	2253.961113528486	5
0	12436	2256.626158704718	4
0	12441	2257.891882151116	3
0	12445	2259.02347382259	4
0	12449	2259.77761005402	5
0	12454	2261.679213131063	4
0	12461	2264.131714495088	3
0	12466	2264.182628484028	2
0	12471	2264.713936453566	1
0	12478	2265.339373325479	2
0	12479	2265.697994625244	1
0	12484	2266.210940753023	0
0	12490	2266.830511588094	1
0	12491	2267.06947863378	0
0	12502	2269.016209617406	1
0	12504	2269.097239342771	2
0	12505	2269.494457915624	1
0	12513	2270.598996281166	2
0	12514	2270.793293246621	1
0	12520	2271.162514379528	2
0	12521	2271.721205603205	1
0	12526	2272.674524653564	0
0	12554	2276.23961942992	1
0	12555	2276.260824681073	0
0	12574	2277.349545275049	1
0	12578	2278.059493300449	0
0	12614	2281.997514756708	1
0	12616	2282.03496498794	2
0	12619	2283.557995283773	1
0	12625	2284.282843537438	0
0	12636	2284.611417219862	1
0	12642	2285.882343202715	2
0	12643	2286.123307890771	1
0	12648	2286.184739087378	0
0	12654	2286.72609314492	1
0	12655	2287.009658778189	0
0	12659	2289.509548245635	1
0	12661	2290.518179359688	2
0	12666	2291.674131940449	1
0	12673	2293.048760227876	2
0	12674	2293.100925749687	1
0	12682	2295.324117533608	2
0	12686	2296.48365722885	3
0	12687	2296.735584939764	2
0	12691	2297.210863602832	3
0	12696	2298.163034578568	2
0	12702	2299.652856162641	3
0	12707	2301.319677432603	2
0	12712	2301.857816217615	1
0	12716	2301.868778786707	2
0	12720	2302.518522495045	3
0	12721	2302.91977137414	2
0	12725	2303.021161885359	3
0	12727	2303.106687156985	4
0	12730	2304.139053967765	3
0	12737	2305.374920232722	2
0	12742	2307.655098469698	1
0	12748	2308.633074137664	2
0	12750	2309.839594794005	3
0	12753	2310.381962454913	2
0	12758	2310.775469247393	1
0	12763	2310.788501240768	0
0	12779	2312.019548069833	1
0	12781	2312.077207032813	2
0	12783	2312.526521425041	3
0	12784	2312.593064310145	2
0	12789	2312.858079556483	1
0	12793	2314.117153682803	2
0	12796	2314.416584948395	1
0	12801	2315.418376097564	0
0	12807	2317.864329423339	1
0	12808	2318.187279341058	0
0	12825	2322.103427913003	1
0	12827	2322.565572058658	0
0	12834	2324.359712325126	1
0	12835	2324.510736363564	0
0	12839	2325.254568999586	1
0	12842	2325.827351824721	0
0	12846	2326.025985365953	1
0	12848	2326.413772054847	2
0	12852	2330.408177355642	3
0	12853	2331.064317750601	2
0	12858	2331.898911993412	1
0	12863	2335.984953060818	0
0	12875	2338.293625924791	1
0	12876	2339.104856630403	0
0	12884	2341.301994847385	1
0	12887	2344.541661905098	0
0	12898	2345.076661885958	1
0	12900	2346.538642313717	0
0	12925	2351.18297344289	1
0	12926	2351.507956325233	0
0	12940	2353.610873241155	1
0	12942	2353.817802690676	2
0	12943	2354.59729899517	1
0	12950	2354.641151867187	0
0	12969	2356.134035219309	1
0	12971	2356.617867256193	0
0	12988	2357.311212341788	1
0	12991	2358.227862670778	0
0	13019	2360.36558643799	1
0	13023	2363.794509904246	2
0	13024	2364.77090694559	1
0	13029	2365.572033940171	0
0	13038	2365.892089239569	1
0	13045	2367.168223657117	2
0	13047	2369.526179235082	1
0	13053	2370.183833693464	0
0	13063	2370.314422480368	1
0	13067	2370.884444624016	2
0	13069	2372.188885590311	3
0	13073	2373.03167901475	4
0	13076	2373.983692363916	3
0	13082	2374.850000500071	4
0	13087	2375.847832301732	5
0	13088	2376.089384673672	4
0	13094	2376.371722607971	5
0	13098	2376.406042207026	6
0	13100	2376.415870817244	7
0	13101	2376.441300505467	6
0	13107	2377.270450501475	7
0	13108	2377.456641283478	6
0	13112	2377.826632439865	7
0	13114	2378.032460520576	8
0	13119	2379.124501666581	7
0	13124	2379.199913958657	6
0	13132	2379.990855583075	5
0	13137	2380.042514575001	4
0	13143	2380.916346900582	3
0	13147	2381.059654526212	4
0	13150	2381.686331268367	3
0	13157	2385.114188093028	2
0	13161	2385.312012856026	3
0	13164	2385.605232508517	2
0	13168	2385.741549927174	3
0	13171	2387.875215939669	2
0	13176	2388.537641562318	1
0	13181	2389.408766255394	0
0	13188	2392.611637410828	1
0	13189	2393.458979912488	0
0	13202	2396.520538084107	1
0	13205	2399.903538370941	0
0	13248	2408.32050373166	1
0	13252	2409.744534858032	2
0	13254	2410.019566667109	3
0	13255	2410.383249589097	2
0	13264	2411.705702005771	3
0	13265	2412.099531454684	2
0	13270	2412.1016275729	1
0	13274	2412.596157480838	2
0	13279	2414.196290345127	3
0	13280	2415.158581209702	2
0	13286	2416.021723028268	3
0	13288	2416.915914451777	4
0	13289	2417.558389299177	3
0	13293	2418.72736972369	4
0	13295	2419.877397921373	5
0	13299	2422.716780074767	6
0	13303	2423.476661699091	7
0	13305	2423.520150925182	8
0	13306	2423.544976407923	7
0	13317	2426.034689257772	6
0	13322	2427.846558433061	5
0	13326	2428.001911385658	6
0	13330	2428.93932671718	5
0	13337	2429.991354161949	4
0	13342	2430.10446741652	3
0	13349	2431.041217317247	2
0	13357	2433.769224781319	1
0	13364	2435.710730364991	0
0	13400	2441.578820495671	1
0	13402	2441.738402891288	2
0	13405	2444.562040331667	1
0	13411	2444.844940522706	2
0	13412	2445.098293025914	1
0	13418	2446.277335422407	0
0	13422	2446.322616721427	1
0	13425	2447.175703184868	0
0	13433	2449.09590450479	1
0	13436	2449.915785967295	0
0	13453	2452.093076849148	1
0	13455	2454.879478741769	2
0	13456	2455.331638063221	1
0	13462	2455.42769457421	2
0	13463	2455.526470499694	1
0	13468	2455.659717571926	0
0	13475	2458.298000928894	1
0	13477	2458.591583223462	0
0	13490	2461.15014815598	1
0	13491	2461.34752006152	0
0	13497	2461.664261333187	1
0	13500	2462.527377628382	2
0	13502	2462.817629833058	3
0	13505	2465.194348081479	2
0	13512	2465.618544655753	3
0	13514	2465.711073948729	4
0	13518	2466.942782196314	3
0	13523	2467.05087880993	2
0	13528	2467.263566555175	1
0	13532	2467.306887875038	2
0	13535	2467.59024758557	1
0	13540	2469.189355897919	0
0	13546	2474.339169250179	1
0	13547	2474.549440049118	0
0	13553	2475.584336094936	1
0	13555	2475.714268754643	2
0	13557	2475.810507332412	3
0	13558	2476.498145001163	2
0	13566	2477.521684631155	3
0	13567	2477.849149295829	2
0	13571	2478.752522815023	3
0	13574	2480.620540447331	2
0	13580	2481.35578063758	1
0	13585	2481.470352414539	0
0	13601	2481.929665886806	1
0	13603	2482.33966811586	0
0	13619	2484.301456875529	1
0	13623	2485.175754980373	0
0	13697	2498.51059486339	1
0	13701	2499.949483322361	0
0	13729	2506.279509917073	1
0	13731	2506.622413293774	2
0	13737	2509.170131600221	3
0	13738	2509.318525115572	2
0	13746	2510.72381922925	3
0	13747	2512.266761032745	2
0	13755	2512.370421752485	1
0	13760	2513.011166213821	0
0	13780	2518.510428536428	1
0	13783	2520.812863127769	0
0	13787	2520.87931287446	1
0	13789	2521.051430227258	2
0	13791	2521.090738922144	3
0	13793	2523.45824568733	4
0	13795	2523.590192170305	5
0	13797	2524.070571685154	6
0	13799	2525.002731651571	7
0	13802	2526.297552243486	6
0	13807	2527.625965493848	5
0	13811	2527.759227241401	6
0	13816	2528.883736084529	5
0	13821	2530.222088586768	4
0	13826	2530.70707251706	3
0	13830	2530.842971470921	4
0	13835	2534.615501615923	3
0	13843	2536.028818168421	4
0	13844	2536.063067656187	3
0	13851	2537.347607336809	2
0	13858	2538.106141151708	1
0	13863	2539.319410596845	0
0	13890	2545.239192671798	1
0	13894	2545.555473769352	2
0	13897	2547.214069840426	3
0	13899	2547.473422899788	4
0	13900	2548.208546274652	3
0	13907	2548.477878918578	2
0	13911	2551.609145010029	3
0	13913	2553.692293018009	4
0	13917	2555.926887855065	5
0	13920	2557.422337005559	4
0	13927	2558.328772824995	3
0	13932	2558.485584088212	2
0	13937	2558.642694228997	1
0	13946	2560.040524123696	0
0	13967	2562.823431963662	1
0	13972	2565.065584821939	0
0	14000	2570.574930191621	1
0	14001	2570.61484477386	0
0	14010	2571.229467904594	1
0	14014	2572.138485108714	2
0	14016	2573.315318740439	1
0	14022	2573.693316416759	2
0	14025	2574.491587904779	1
0	14034	2576.99148385332	0
0	14048	2579.286947621667	1
0	14050	2579.404397388292	2
0	14054	2580.781375238258	1
0	14060	2581.483296711282	0
0	14064	2581.626192969514	1
0	14067	2581.863182567274	0
0	14090	2584.836211454341	1
0	14092	2584.991819362182	2
0	14094	2585.825441277089	3
0	14099	2587.099967430466	2
0	14107	2588.15891374932	3
0	14115	2589.182606201586	4
0	14117	2589.220514680397	5
0	14120	2589.851370449657	6
0	14122	2592.026696611014	5
0	14129	2595.021569784926	6
0	14131	2595.21666254851	7
0	14133	2595.223388257577	8
0	14135	2595.505285554238	7
0	14143	2596.678452125217	6
0	14148	2597.801473983773	5
0	14154	2597.874223640847	4
0	14160	2597.993270749035	5
0	14162	2598.580307951419	6
0	14163	2598.821470500143	5
0	14167	2598.938621678866	6
0	14171	2600.110613736491	7
0	14172	2601.302813312964	6
0	14176	2602.596549080223	7
0	14179	2602.940659093169	6
0	14185	2603.316948694491	7
0	14187	2604.25563924009	8
0	14189	2604.737493548879	9
0	14190	2605.12575776272	8
0	14198	2606.000171074673	9
0	14199	2606.303824789265	8
0	14204	2607.341968616492	7
0	14212	2610.913821157855	8
0	14213	2611.340955667935	7
0	14217	2611.359241340399	8
0	14219	2612.477546402317	9
0	14222	2613.156791961293	8
0	14228	2613.373127232573	9
0	14230	2613.618804112933	8
0	14236	2614.138900085457	7
0	14241	2615.508939584115	6
0	14245	2616.425242627665	7
0	14251	2617.460244938189	8
0	14253	2618.392916845907	9
0	14254	2619.133977459076	8
0	14259	2621.961830144318	7
0	14265	2622.38643798493	8
0	14267	2622.399336788806	9
0	14271	2624.596043341281	10
0	14272	2624.687370484148	9
0	14277	2625.553414899073	8
0	14283	2626.706054164649	7
0	14290	2627.922556306924	6
0	14294	2628.013183058468	7
0	14298	2629.085516628955	6
0	14304	2629.608056629265	7
0	14305	2630.593898632647	6
0	14310	2630.890991654266	5
0	14316	2633.779494082787	6
0	14318	2634.641250213573	7
0	14319	2635.667592728098	6
0	14325	2637.295247154144	7
0	14326	2637.817377138927	6
0	14333	2639.677699256675	7
0	14334	2640.147831982715	6
0	14340	2640.443625658865	7
0	14344	2642.380629173642	8
0	14345	2643.049737683621	7
0	14357	2644.825035628584	8
0	14358	2644.890545078438	7
0	14363	2646.05404722115	6
0	14371	2646.98642895512	7
0	14375	2648.085943573614	6
0	14382	2648.325343904405	7
0	14383	2648.532387836769	6
0	14388	2649.140229828603	5
0	14392	2650.507185394709	6
0	14394	2651.047916560327	7
0	14397	2653.477930655755	6
0	14402	2654.030637755917	5
0	14410	2655.377781293641	4
0	14416	2655.511481469907	5
0	14418	2656.331811702292	4
0	14424	2657.441699444534	3
0	14430	2657.912468396649	2
0	14435	2658.196885795117	1
0	14444	2660.645733961501	2
0	14449	2661.885950892156	3
0	14451	2663.169050954957	4
0	14453	2664.569513940252	5
0	14454	2665.24960493662	4
0	14459	2665.289861204504	3
0	14465	2665.681552202977	2
0	14473	2666.002759303279	1
0	14478	2666.899795776145	0
0	14482	2667.185356428335	1
0	14485	2669.173142030676	0
0	14503	2671.294517962149	1
0	14506	2671.773375157811	0
0	14512	2671.902257628129	1
0	14514	2673.881181686456	0
0	14520	2674.173169942635	1
0	14522	2674.277320448137	2
0	14523	2674.764490315136	1
0	14527	2676.056041149846	2
0	14529	2676.5474202115	3
0	14534	2677.955415560381	2
0	14539	2679.231585065294	1
0	14544	2680.035634165382	0
0	14559	2685.5164857987	1
0	14560	2685.617295156504	0
0	14579	2687.26328256484	1
0	14581	2687.293147673659	2
0	14582	2687.668744565292	1
0	14589	2693.554240141997	0
0	14595	2693.584834122195	1
0	14597	2693.986994181515	2
0	14601	2694.650431346436	1
0	14606	2696.050166979207	0
0	14658	2703.713458630949	1
0	14662	2705.962008622236	2
0	14666	2706.401134058449	1
0	14671	2706.675806360664	0
0	14691	2708.915092305169	1
0	14695	2711.552837005851	0
0	14726	2717.59570800404	1
0	14727	2717.965132884582	0
0	14738	2719.465134487787	1
0	14742	2720.734950547102	0
0	14754	2722.001023508178	1
0	14756	2722.277844374796	2
0	14758	2722.633668445997	1
0	14765	2726.389984178392	0
0	14777	2728.213756764001	1
0	14779	2728.67269916712	2
0	14781	2729.97035473722	1
0	14789	2730.781350921156	2
0	14791	2731.078139391469	1
0	14797	2733.692480660222	2
0	14799	2734.932825580252	3
0	14802	2736.23330743559	2
0	14806	2738.083029114936	3
0	14809	2741.242155528333	2
0	14814	2743.39605501719	1
0	14820	2749.532285045882	2
0	14824	2751.836897455846	1
0	14833	2752.882829734588	0
0	14858	2756.904537300127	1
0	14861	2758.253483759578	0
0	14865	2758.384930473514	1
0	14867	2758.756196833227	2
0	14875	2760.509797570636	1
0	14881	2761.912859010253	0
0	14887	2764.243593006357	1
0	14888	2764.259821352149	0
0	14901	2765.310333707687	1
0	14902	2765.349032858435	0
0	14910	2767.222413233634	1
0	14912	2767.235814873807	2
0	14913	2767.630886502106	1
0	14919	2768.420308499183	2
0	14921	2768.523241075888	3
0	14923	2768.828454245274	4
0	14925	2769.161298951431	3
0	14931	2769.374037538437	4
0	14932	2769.415129349002	3
0	14938	2769.49641570535	4
0	14939	2769.579974120821	3
0	14944	2770.845396790226	2
0	14953	2771.994344066484	1
0	14959	2773.847081084191	2
0	14960	2774.171054891992	1
0	14966	2774.843611984373	2
0	14969	2775.379212441914	1
0	14973	2775.594068816061	2
0	14979	2778.812179533971	3
0	14981	2779.0346007104	4
0	14982	2779.569148645751	3
0	14988	2781.803649829794	2
0	14994	2781.863797023074	3
0	14996	2781.991306238937	4
0	14997	2782.244340102576	3
0	15002	2782.485006240018	2
0	15006	2782.592144873655	3
0	15011	2785.498139553146	2
0	15015	2785.500943809827	3
0	15017	2785.869986806814	4
0	15019	2785.931781612188	5
0	15023	2786.562511534745	6
0	15025	2786.867289827321	7
0	15028	2787.100696655627	6
0	15034	2788.381285384138	7
0	15038	2789.410916582994	8
0	15041	2789.730820886915	7
0	15045	2791.502822922376	8
0	15048	2793.622034728149	7
0	15054	2795.086597155437	8
0	15055	2795.405377830514	7
0	15059	2795.791673918514	8
0	15066	2799.227628608293	7
0	15071	2799.434065528597	6
0	15076	2799.547738200097	5
0	15083	2801.281897712065	4
0	15089	2801.392743656451	5
0	15091	2803.739428074618	4
0	15096	2804.365691468142	3
0	15101	2805.476359589692	2
0	15109	2809.083698362785	3
0	15110	2809.472598132924	2
0	15116	2809.650110622875	3
0	15120	2810.722831237722	4
0	15122	2811.358059946054	5
0	15128	2812.231382067818	6
0	15129	2812.272585568178	5
0	15134	2813.731593144372	4
0	15139	2813.854469275142	3
0	15145	2814.813155044531	2
0	15150	2814.887637182152	1
0	15154	2815.418703601827	2
0	15159	2816.17990431961	1
0	15163	2817.058887826407	2
0	15165	2817.218135694861	3
0	15169	2819.121476486926	2
0	15176	2819.885420542054	1
0	15183	2821.385042534391	0
0	15205	2823.075481231388	1
0	15206	2823.358942921551	0
0	15215	2824.021415235115	1
0	15223	2826.372271725923	2
0	15225	2826.80393322876	1
0	15232	2827.283710778817	2
0	15234	2827.468889112499	3
0	15235	2828.282809954411	2
0	15240	2828.55702251518	1
0	15246	2830.202136244866	2
0	15247	2830.731177972508	1
0	15253	2831.768582397948	2
0	15255	2831.910970200116	3
0	15256	2832.458667833881	2
0	15266	2834.774490687079	1
0	15271	2834.901409948568	0
0	15275	2834.911891373656	1
0	15277	2836.739959234558	2
0	15279	2837.291621281135	3
0	15282	2839.561135391666	2
0	15286	2840.88690302767	3
0	15288	2841.170569532903	4
0	15290	2841.232893865818	5
0	15292	2841.711830063651	6
0	15294	2842.199594953132	7
0	15296	2842.58819585287	8
0	15298	2843.661717111704	9
0	15302	2846.075829778706	10
0	15306	2846.75532900209	11
0	15308	2847.248627081207	12
0	15309	2848.671601445079	11
0	15314	2851.871227394918	10
0	15318	2852.132155161012	11
0	15322	2855.812237814874	12
0	15326	2857.752965995075	13
0	15328	2860.814988756938	14
0	15330	2862.215820701442	15
0	15333	2864.488411354232	14
0	15338	2866.339007896963	13
0	15347	2868.089688654953	12
0	15352	2868.591675870646	11
0	15357	2868.689148175266	10
0	15363	2870.100040796827	11
0	15365	2870.262218653688	12
0	15367	2870.270741687196	13
0	15369	2870.749169136195	14
0	15372	2871.180840352604	13
0	15376	2873.645116963324	14
0	15379	2874.24247752154	13
0	15384	2874.843132520993	12
0	15390	2876.031297389232	13
0	15392	2876.207349512583	14
0	15393	2876.249962676055	13
0	15399	2877.669601245833	12
0	15404	2877.913614517312	11
0	15412	2880.710994398477	12
0	15414	2880.71910298556	13
0	15416	2880.929780199353	14
0	15417	2880.984715797857	13
0	15421	2881.172353035213	14
0	15425	2881.71312078464	13
0	15431	2882.123450607952	12
0	15437	2882.163887529476	13
0	15439	2882.371605757106	14
0	15441	2882.49613579403	15
0	15443	2883.987762077712	16
0	15445	2885.349690564068	17
0	15448	2885.944640902967	16
0	15453	2887.367438960661	15
0	15459	2888.212713151348	16
0	15460	2888.463639352227	15
0	15466	2889.186544134431	16
0	15467	2889.465971946377	15
0	15475	2890.351631366365	16
0	15477	2890.847741937686	15
0	15483	2890.897623320838	16
0	15485	2891.682420514728	15
0	15492	2892.251942380923	14
0	15497	2893.352496359408	13
0	15503	2893.727782513489	14
0	15505	2894.877762119531	15
0	15507	2895.652580821954	16
0	15511	2897.304767200068	17
0	15513	2897.742427840711	16
0	15518	2898.065093944949	15
0	15522	2898.519766623259	16
0	15524	2898.81324772886	17
0	15529	2901.363774231185	16
0	15533	2902.635296558364	17
0	15537	2903.211261031998	18
0	15538	2904.122085124911	17
0	15544	2904.700445631395	18
0	15546	2905.546275122417	17
0	15551	2905.782246040146	16
0	15555	2906.090827665319	17
0	15560	2907.396591322004	16
0	15564	2907.737616629013	17
0	15568	2909.352395778056	18
0	15569	2909.467018776843	17
0	15573	2909.638679778861	18
0	15575	2909.94613237186	19
0	15580	2911.171267205441	18
0	15587	2911.287621870481	17
0	15593	2911.456358087323	16
0	15599	2911.511854676536	17
0	15601	2911.706993095517	18
0	15605	2913.162221829184	17
0	15611	2913.686835438548	18
0	15612	2914.835522224311	17
0	15616	2915.216866523896	18
0	15620	2917.065427538654	19
0	15621	2917.988384430703	18
0	15627	2918.473170918251	19
0	15628	2919.042649135626	18
0	15633	2920.240440812609	17
0	15639	2921.64782494389	18
0	15640	2921.744199546922	17
0	15647	2922.876209727129	16
0	15652	2924.090007911797	15
0	15656	2924.113266924621	16
0	15660	2925.545710230195	17
0	15661	2926.32104480431	16
0	15668	2928.905004826509	17
0	15669	2929.536859214073	16
0	15674	2930.154760869558	15
0	15679	2933.944388116952	14
0	15683	2936.371959527547	15
0	15686	2939.130984063759	14
0	15690	2939.555344940097	15
0	15692	2939.579949041533	16
0	15695	2940.058592513819	15
0	15699	2942.683739557142	16
0	15701	2943.147184266406	17
0	15705	2946.368754834873	18
0	15708	2946.624509147262	17
0	15714	2947.61958734417	18
0	15716	2948.051152115712	19
0	15719	2950.24720078655	18
0	15724	2950.339899730371	17
0	15729	2950.569933087157	16
0	15733	2950.711754556004	17
0	15737	2952.045990101466	16
0	15743	2952.800931252807	15
0	15748	2953.066905248874	14
0	15753	2953.251364345885	13
0	15758	2953.950497312719	12
0	15763	2954.518603074585	11
0	15767	2954.668128923623	12
0	15770	2957.387368970319	11
0	15775	2957.946550567751	10
0	15780	2958.906699186823	9
0	15786	2959.306486898568	10
0	15787	2959.571131045761	9
0	15795	2961.291290015334	10
0	15796	2961.768685873747	9
0	15801	2962.720934340773	8
0	15807	2964.127865834279	7
0	15812	2964.541074342457	6
0	15820	2965.914612969714	7
0	15822	2967.372201766476	6
0	15834	2969.460100248409	5
0	15839	2969.637960264254	4
0	15843	2971.196302817137	5
0	15846	2971.86289684763	4
0	15852	2972.326188645239	3
0	15857	2972.491987254154	2
0	15861	2973.309446849265	3
0	15863	2973.396514957491	4
0	15866	2973.593660409629	3
[...]
4	145743	27653.877977196908	7096.8743368379
4	145760	27656.749634139611	7099.4188321094
4	145770	27657.538196641877	7098.5260534828
4	145781	27660.441418470291	7100.3932015257
4	145802	27664.942017283623	7102.8209059851
4	145817	27666.298862390708	7094.6623448348
4	145833	27670.450542758804	7092.8995550884
4	145864	27673.902523700934	7094.4364747184
4	145869	27674.135801611577	7082.3247788891
4	145877	27675.673318732848	7081.8265184659
4	145898	27683.942853922997	7086.9722568139
4	145918	27687.680100625176	7086.5851770445
4	145965	27692.709465446638	7087.8629436843
4	145970	27692.849656129854	7086.3509712788
4	145979	27697.322731364117	7090.3895091042
4	145993	27698.68391543452	7089.3439580475
4	146004	27699.84530818711	7082.801971852
4	146011	27701.335179114705	7059.9032461592
4	146029	27703.515649333081	7059.0310550347
4	146042	27706.99802669157	7057.3454013235
4	146085	27715.661328812301	7062.2020131061
4	146129	27725.172214985682	7070.1557527434
4	146134	27725.261959979271	7062.5883023024
4	146144	27726.20967740888	7060.0153515199
4	146151	27726.367984356832	7059.6401989621
4	146162	27728.199168129049	7060.8562430922
4	146170	27728.799633988524	7060.1930930638
4	146181	27729.180615214306	7060.0837842548
4	146187	27733.766474174876	7064.0247804306
4	146199	27737.746656932792	7063.0497074044
4	146285	27756.555614808083	7079.5400321224
4	146298	27757.435497832617	7074.3171393117
4	146395	27785.072248880149	7100.1689690097
4	146423	27787.628143813763	7094.3068252242
4	146487	27803.272629864309	7108.6564902151
4	146492	27803.30292521328	7108.4656718489
4	146497	27804.595004697019	7109.0862932326
4	146510	27809.807520493922	7106.0567479728
4	146526	27811.359070115412	7105.6135265591
4	146669	27836.167051339868	7128.2601417523
4	146674	27836.609773539294	7127.1077202012
4	146691	27842.24135134373	7132.6007877321
4	146760	27856.214252110837	7138.2793380333
4	146768	27856.681510138562	7136.6244325569
4	146781	27860.138326320482	7134.7924151234
4	146796	27865.18829728677	7133.139573315
4	146822	27870.897967662025	7129.4122202657
4	146832	27871.253931052221	7129.3750944628
4	146841	27872.741570180599	7130.4934411449
4	146853	27877.021064924892	7132.311321291
4	146866	27877.307734457003	7129.6738697344
4	146884	27883.720795297828	7119.2460008943
4	146902	27886.098671712857	7119.0845614058
4	146914	27887.622166014507	7117.5905676116
4	146940	27893.089087286523	7122.8773390529
4	147062	27920.735618018123	7149.8016862946
4	147074	27921.835085570914	7148.8516974323
4	147084	27922.022175894881	7147.7475642639
4	147093	27925.868451546298	7146.6668034903
4	147119	27933.350862363781	7134.6589842468
4	147132	27936.959984057111	7134.2890354209
4	147164	27943.385219237925	7138.9821884011
4	147171	27945.003064759795	7139.2087303056
4	147176	27945.336729731084	7138.9441888706
4	147188	27948.980257394762	7142.3989164296
4	147206	27950.089789510277	7132.3572843786
4	147217	27951.987419427113	7132.5372543109
4	147255	27956.511700959117	7131.2035167062
4	147264	27958.000600446692	7132.4564160898
4	147270	27958.625732189375	7132.0152257479
4	147277	27958.945751133543	7131.5899908076
4	147282	27959.972383983502	7132.1931067123
4	147289	27963.027360985969	7127.1192104479
4	147305	27964.783784640573	7126.846422603
4	147316	27965.14955817093	7126.8921698022
4	147327	27968.819759141942	7127.570549981
4	147475	28000.33361757621	7156.2118234289
4	147480	28000.726586347243	7156.4223383923
4	147487	28002.901411699938	7151.0047661145
4	147496	28005.373194166726	7151.8678446609
4	147536	28009.711523416641	7149.0910806577
4	147541	28011.253917764337	7148.5416543928
4	147551	28016.312420057274	7151.4722900023
4	147629	28029.014212981542	7161.8194341058
4	147639	28029.446863177206	7161.0745392507
4	147648	28030.558315145199	7158.7872941795
4	147655	28031.250664023738	7156.2470830717
4	147671	28035.334430085483	7158.8453409695
4	147704	28040.750642213022	7162.2594411615
4	147709	28041.50252463816	7145.1722789154
4	147716	28042.014032996291	7142.7696340781
4	147726	28043.541881725998	7140.1414676295
4	147734	28047.673682486468	7141.3110151359
4	147744	28049.027504203977	7136.0004734555
4	147760	28052.862719412886	7130.7852794487
4	147806	28061.3422861732	7135.076512005
4	147811	28061.91609647553	7130.1989487067
4	147816	28065.107659652375	7128.2666076493
4	147825	28066.650650805432	7126.7896448975
4	147852	28071.616915449817	7130.7450184889
4	147863	28073.786922926961	7129.9145516953
4	147894	28078.844643262373	7134.0593359938
4	147901	28079.397777863515	7127.815319061
4	147907	28079.789786969372	7115.5299171747
4	147912	28080.258424260791	7110.3518008224
4	147917	28080.987230579789	7109.3252736148
4	147932	28085.618798644095	7111.9645720972
4	147972	28088.874232797459	7113.8829266923
4	148021	28093.727689263279	7116.0063881721
4	148029	28096.053416969783	7114.9696373107
4	148061	28103.213681837504	7120.3822174974
4	148100	28111.223438066216	7125.4965009239
4	148105	28111.387821832638	7123.5906281092
4	148117	28115.489735670745	7122.5099752346
4	148183	28128.511514012814	7116.7473709727
4	148188	28129.342476861096	7114.5080341341
4	148195	28131.382819774695	7078.1251298308
4	148233	28137.798051373069	7083.8417598569
4	148346	28167.194666638139	7111.8620842362
4	148355	28169.843873067022	7112.911794996
4	148369	28171.657924711459	7110.1515292636
4	148402	28178.260919807512	7115.2119110081
4	148407	28180.649860018912	7117.0216095808
4	148412	28181.285711190795	7115.6538694901
4	148419	28181.823233461207	7111.8098314458
4	148426	28185.647759676281	7105.817226949
4	148471	28191.784138837263	7110.7207213449
4	148666	28234.572214448017	7140.369800361
4	148686	28238.904930202871	7144.4255907744
4	148704	28241.418013965679	7145.0303528246
4	148714	28244.321639580966	7144.4474022574
4	148735	28248.052561926666	7146.6105649117
4	148758	28250.473551924085	7139.8486667717
4	148926	28282.455275781615	7169.5714162146
4	148949	28288.678738271341	7170.2319214454
4	149093	28316.081769510594	7193.1109172306
4	149106	28318.579611839283	7195.3948625517
4	149121	28320.637390445561	7196.5805938161
4	149160	28331.304210624476	7199.9794849589
4	149179	28333.768521421151	7199.8654246664
4	149206	28339.725178611278	7189.6268746258
4	149211	28340.697291472085	7190.2173988528
4	149222	28344.123446580489	7193.3732044152
4	149243	28347.013776751553	7194.474598444
4	149254	28350.543228897063	7185.9948505192
4	149259	28350.820403083041	7184.2097685245
4	149264	28351.405798401925	7184.4724964031
4	149272	28353.775392386775	7181.4628475232
4	149290	28355.304786791438	7180.569398853
4	149296	28357.158508259817	7178.0633334738
4	149309	28358.714540387191	7179.5597216226
4	149354	28368.492269776709	7179.9578924042
4	149361	28368.808552010549	7179.7115576421
4	149366	28369.242702639515	7174.6870890968
4	149371	28370.708057606297	7172.977554844
4	149383	28378.2449054924	7170.8320522536
4	149390	28378.60764586648	7164.0836224768
4	149401	28379.700400300832	7158.2631507362
4	149415	28383.835641616308	7160.262964431
4	149490	28395.409435281743	7170.9206168572
4	149495	28395.648177226582	7166.9208466571
4	149502	28400.050357496187	7169.1305293304
4	149538	28406.872677151452	7171.5313675823
4	149602	28416.264785424103	7175.9048668348
4	149615	28419.895290891729	7179.2878356367
4	149620	28420.218300307177	7175.3006897917
4	149625	28420.240469916826	7172.5014085072
4	149634	28420.759624545855	7171.1732481862
4	149639	28420.860302283248	7165.7140700318
4	149649	28423.299844809623	7167.5722215385
4	149664	28424.052086365538	7166.5312613589
4	149673	28426.569086337365	7168.5890183485
4	149690	28430.835078683184	7172.420938717
4	149698	28432.076026597959	7172.1599238702
4	149709	28432.899853259593	7168.0970537076
4	149714	28433.537060278692	7167.127842762
4	149725	28435.30862241333	7166.450539262
4	149753	28438.132810336143	7164.4886539691
4	149813	28448.222830062071	7170.0267959782
4	149834	28453.463949725209	7175.0500969244
4	149847	28454.874063383008	7172.5953291754
4	149888	28463.539480594025	7180.1985526388
4	150056	28502.521939228955	7216.2261776158
4	150061	28503.973934953448	7214.5975540607
4	150071	28506.806593742788	7215.9939096056
4	150083	28507.128829682612	7214.6082636668
4	150089	28507.648005604818	7210.4625317852
4	150098	28510.498069370771	7210.9541708606
4	150114	28513.91431964404	7205.6205439712
4	150141	28515.115313392411	7198.8213463138
4	150149	28515.65171991527	7197.1420502328
4	150154	28516.33469605458	7192.0369210196
4	150160	28516.681789152424	7172.1339246946
4	150167	28517.49811283995	7169.5816827148
4	150193	28524.678166048421	7174.405493018
4	150506	28590.237708693815	7236.0753074166
4	150558	28599.705455652011	7240.784233139
4	150567	28601.364365452504	7242.1103460138
4	150577	28606.308379680613	7244.7592281366
4	150666	28619.8968496966	7255.3749856921
4	150671	28619.969441318695	7255.2353529748
4	150683	28621.482269885229	7254.4753260928
4	150811	28652.490079029647	7285.0047917797
4	150826	28657.011455253636	7283.395372348
4	150850	28661.144167703996	7284.7946192867
4	150868	28665.89805811072	7287.6972799108
4	150878	28666.369671635247	7287.5001291144
4	150894	28667.801232491078	7275.0362387209
4	150933	28673.910256310098	7278.1000318931
4	150938	28674.020677737611	7276.8205372077
4	150952	28680.649557599566	7278.6143449877
4	151184	28718.771977924196	7312.1741061141
4	151303	28745.305379363706	7335.2990711496
4	151309	28746.165985324027	7325.8971794375
4	151316	28747.698826610641	7318.2996433339
4	151341	28751.882080754273	7312.5998440648
4	151346	28752.828757019758	7310.4046040408
4	151354	28755.153443466669	7311.4240976706
4	151365	28756.120005455643	7311.2147211233
4	151373	28757.162017412576	7311.2321422925
4	151385	28760.751851016869	7310.9129141422
4	151415	28763.964963937628	7312.4217355577
4	151422	28764.929053516556	7302.9935461016
4	151476	28776.695419261982	7307.5836671682
4	151484	28781.148454126498	7312.020202973
4	151498	28783.773167841339	7306.7682731271
4	151505	28785.123669139077	7301.6655148404
4	151518	28787.013838373806	7301.7264376437
4	151527	28789.404532358753	7296.2709602622
4	151547	28791.336900358136	7292.7381236727
4	151553	28791.416483246834	7290.3318007474
4	151558	28791.449102321864	7289.122173757
4	151563	28791.894666906726	7285.7515430452
4	151575	28793.307871077364	7285.5537633121
4	151716	28816.124015188284	7308.2907907497
4	151728	28817.162687281075	7308.3698988929
4	151737	28819.070643059752	7308.0567224668
4	151748	28821.09335977349	7309.7740052358
4	151759	28823.234076341297	7307.8649844868
4	151769	28824.026467769318	7306.5122275203
4	151774	28824.375888597332	7297.4295899554
4	151779	28825.167261638624	7298.1445203964
4	151793	28828.415036094219	7297.7325740843
4	151812	28831.234843423715	7300.1257708027
4	151843	28835.415087224048	7303.833556422
4	151849	28836.359989738286	7302.22118558
4	151854	28838.448540815321	7303.7333986074
4	151861	28839.316063912818	7303.3754469246
4	151873	28842.09024536209	7305.4755386878
4	151890	28843.994369423888	7304.6256652431
4	151902	28844.476557167004	7302.4437123467
4	151916	28847.789236610634	7303.0066465152
4	151926	28849.602962200038	7303.2398273022
4	151970	28860.921569415983	7304.386946211
4	151982	28864.568369037426	7304.5899856432
4	151994	28864.781432826899	7303.3898819635
4	152008	28867.169045855145	7300.6368447949
4	152018	28867.317100379383	7297.5772013419
4	152023	28867.7906381701	7295.2813232518
4	152033	28870.542435652518	7295.3837659234
4	152064	28876.640311525125	7300.9415358433
4	152069	28877.377239893114	7297.1634774631
4	152078	28879.691008196083	7298.2827866154
4	152091	28886.493117164241	7296.8303132388
4	152136	28894.595458323254	7302.8117081675
4	152148	28895.34346177395	7300.7441840149
4	152160	28896.848478042583	7299.2970026797
4	152165	28897.299645989346	7299.3720363672
4	152175	28898.524192789241	7289.6169846282
4	152200	28901.468585210434	7281.2599433704
4	152207	28902.347933945684	7279.0343964113
4	152222	28904.229086417638	7276.7118000851
4	152229	28905.573722393676	7277.8364885506
4	152234	28907.13646764747	7276.1132439421
4	152239	28908.203795255722	7274.8833774956
4	152248	28911.18152621745	7274.6103315094
4	152266	28913.879269144509	7276.9417253763
4	152275	28915.034965340042	7277.2481179141
4	152287	28915.69224261588	7275.578118835
4	152294	28917.327206927408	7276.7453896602
4	152299	28917.697824409553	7273.9527211771
4	152308	28920.827317469063	7273.2948746332
4	152313	28921.016708893527	7270.1422417578
4	152318	28921.308719481678	7270.2250356135
4	152333	28924.155867937217	7271.2230220355
4	152361	28926.526486193369	7269.6821029112
4	152372	28928.108145491893	7267.4232478038
4	152377	28928.4945004802	7263.1846250025
4	152385	28930.08553809005	7262.3649370331
4	152398	28930.557568856676	7262.0882455578
4	152403	28932.221100223424	7262.3702943266
4	152410	28935.02257734754	7262.2516198917
4	152417	28937.347114084605	7262.8273602291
4	152429	28938.996037919649	7264.4600242227
4	152448	28942.856589920972	7268.2342115987
4	152586	28964.833222838315	7289.2719271769
4	152591	28964.850140709425	7288.8707157573
4	152597	28965.658933711931	7289.4543635866
4	152604	28965.949276857671	7280.1237039781
4	152755	28993.728049431158	7290.9282119552
4	152778	28998.734636079873	7289.0914690893
4	152793	28999.590727899475	7288.2086853803
4	152804	29002.325705042929	7288.4174820672
4	152823	29004.921997512214	7290.2734530136
4	152829	29005.701867255005	7289.7494807375
4	152835	29006.242524288418	7290.1772503497
4	152840	29006.297262692804	7284.1591553484
4	152846	29008.107022614508	7284.4889677872
4	152851	29008.999867414813	7283.4051801752
4	152859	29010.281153640995	7284.4049265804
4	152871	29010.568568775945	7283.0233779646
4	152882	29013.711957629179	7281.9860819219
4	152892	29014.133514871374	7278.2247944692
4	152897	29014.34806157308	7273.6503977148
4	152909	29017.472584699159	7271.69245863
4	152976	29030.311387560002	7271.3233950692
4	152981	29030.518162993474	7269.2335143231
4	152991	29032.266745528224	7270.3217199669
4	153001	29033.231959168183	7263.642121946
4	153008	29033.660005816642	7259.1534229641
4	153054	29039.112769872163	7262.676704749
4	153086	29050.15185998337	7270.0200856389
4	153274	29083.136636528808	7299.203762012
4	153311	29089.109699701565	7300.1095319502
4	153328	29090.179016674492	7299.2871384818
4	153367	29096.807706185698	7305.7253688566
4	153372	29098.041992069061	7304.2983121627
4	153390	29109.158361625777	7313.5310809586
4	153422	29112.785674220042	7315.9773393616
4	153432	29114.931200511507	7314.2374812756
4	153472	29123.476215771963	7322.1899682811
4	153861	29208.21955691656	7399.0269019302
4	153880	29211.775039529789	7398.1085551401
4	153891	29212.600430747913	7394.5674929135
4	153896	29212.973181932223	7393.884049674
4	153911	29215.110206251501	7381.8081324539
4	154101	29256.277582450611	7420.7938328159
4	154112	29257.4775734379	7421.5356812483
4	154119	29258.106534594256	7407.7049256806
4	154127	29259.244041769121	7385.4727526913
4	154137	29261.385205633302	7383.8694120322
4	154147	29264.689160346197	7386.739407578
4	154162	29267.780504854183	7388.4490864023
4	154169	29268.761109365819	7386.5530305888
4	154187	29271.19657517985	7387.7097884977
4	154225	29277.68842250854	7388.9080861564
4	154230	29277.873143102303	7387.570852874
4	154237	29280.078851549445	7388.2292920323
4	154247	29283.087574899961	7387.4411652337
4	154254	29283.519688933015	7385.4392686934
4	154274	29289.246439363086	7386.5846624907
4	154377	29311.432063519958	7407.3194489014
4	154397	29313.924205073599	7406.5229792595
4	154418	29317.64751881257	7405.4080158119
4	155081	29438.326752342606	7523.3608690268
4	155086	29438.338916922676	7512.9488231853
4	155093	29438.636668463865	7509.386010358
4	155110	29441.568408170325	7511.3696235265
4	155121	29443.346850071954	7511.8250595551
4	155130	29444.87540157558	7510.5965774337
4	155152	29448.454035754581	7513.601120545
4	155164	29450.211087782833	7515.1351349346
4	155171	29451.538747989889	7510.8363994543
4	155176	29452.491907922683	7510.7506056865
4	155182	29453.429222840941	7509.8614536417
4	155187	29453.630814587992	7509.7683129366
4	155195	29456.103768521904	7511.0886407645
4	155206	29457.520418731075	7510.4215858816
4	155211	29458.740319424932	7510.7105772671
4	155216	29460.042487007432	7510.0590000809
4	155221	29460.576014958254	7506.974805026
4	155238	29465.293482962657	7502.4697828393
4	155249	29467.23798644837	7504.3303883901
4	155264	29469.361761309913	7504.4094187852
4	155282	29471.616311456067	7500.7467231001
4	155295	29474.012675845362	7499.0722102033
4	155307	29475.695701231293	7485.6375190089
4	155314	29476.703168418857	7483.3346005253
4	155325	29480.30502759911	7485.2947331889
4	155341	29482.574914377683	7485.4030192431
4	155347	29484.017138508543	7486.7228936
4	155366	29488.646868459902	7486.1808191497
4	155587	29531.486561429408	7525.1785884773
4	155609	29536.704132541545	7526.8233173006
4	155625	29538.955898718721	7527.3841106583
4	155636	29543.591908789307	7526.497430139
4	155708	29557.954629477622	7540.1052240851
4	155731	29560.063064933239	7537.0557052252
4	155742	29563.268723494773	7539.4537466705
4	155760	29565.653542867009	7540.875991029
4	155775	29571.1760711368	7543.3783205838
4	155805	29577.820729826112	7537.6215096583
4	155826	29584.196817406251	7541.1744029317
4	155831	29584.534105200043	7541.2568171162
4	155855	29591.304876869381	7541.8589770679
4	155931	29603.485373815043	7547.8086361454
4	155936	29603.591029904607	7545.8857792266
4	155941	29604.500448667711	7545.1069388507
4	155953	29606.663422885144	7539.325335684
4	155972	29609.311346683224	7538.6046122516
4	155993	29613.593434451522	7539.1319777398
4	156049	29622.206057876847	7542.8046531246
4	156059	29622.631198167588	7542.9018545371
4	156075	29624.80527671894	7538.7099306264
4	156100	29627.985732177094	7541.599471584
4	156105	29628.616901669904	7532.1521298277
4	156116	29632.553471398094	7535.1019254231
4	156129	29632.860273584494	7535.1941120066
4	156134	29633.173913950669	7524.9050092055
4	156152	29638.321413352385	7523.8067697599
4	156198	29644.556774704596	7527.2721694679
4	156204	29646.206729755178	7528.3225686115
4	156211	29647.416102029051	7521.0048573004
4	156216	29648.433487023383	7517.1900639483
4	156224	29649.159258853982	7510.9953534635
4	156238	29650.850137309634	7505.6174250829
4	156249	29652.16972053879	7504.1432779437
4	156256	29655.288710233067	7500.4617921319
4	156261	29655.832278809214	7486.1594045322
4	156276	29659.173373637356	7486.2320923941
4	156544	29705.602657418465	7522.8147362877
4	156569	29709.980822549342	7524.9663241209
4	156580	29711.334546426562	7512.2546906864
4	156606	29716.003758018293	7512.2333738513
4	156618	29717.212643581101	7505.4766717729
4	156628	29717.73596654895	7499.4167433786
4	156639	29725.985109363935	7506.1631037338
4	156728	29746.449617709804	7522.0649723292
4	157037	29811.299602593286	7580.5426189182
4	157052	29815.519805454689	7584.6759701836
4	157060	29818.454532193437	7587.3919409278
4	157102	29825.601931388874	7587.0546869883
4	157111	29826.75457796643	7585.1865984992
4	157151	29833.724751800044	7586.7067568943
4	157186	29839.117230316812	7587.2611841637
4	157191	29839.210082674443	7585.4203061941
4	157201	29841.680572569915	7587.4290361853
4	157208	29842.616646589137	7587.4278114555
4	157215	29843.412688784901	7584.4650697767
4	157220	29843.695696195684	7582.7676449961
4	157234	29847.521425658	7581.5131855997
4	157295	29858.839550449651	7585.2916301216
4	157300	29861.97715631444	7581.3598387502
4	157315	29864.600146522105	7583.5974743826
4	157362	29869.67877656388	7588.0842759621
4	157556	29917.198556974901	7633.5424216854
4	157561	29917.203359655732	7629.2102380466
4	157568	29917.453879359339	7615.7136252843
4	157574	29918.826412919353	7610.8777601596
4	157594	29923.202436856425	7613.6840190027
4	157646	29935.497577938514	7625.6288736325
4	157655	29937.089861071061	7626.064472752
4	157667	29939.005562685214	7619.0495271536
4	157679	29943.363716766856	7621.4534476004
4	157706	29949.001733487402	7625.6337577472
4	157717	29954.470606372411	7628.4629202625

