version 2
run First-n5-12-20191016-14:53:00-5104
attr configname First-n5
attr datetime 20191016-14:53:00
attr experiment First-n5
attr inifile omnetpp.ini
attr iterationvars ""
attr iterationvarsf ""
attr measurement ""
attr network org.omnetpp.queueing.Pizza
attr processid 5104
attr repetition 12
attr replication ""
attr resultdir results
attr runnumber 12
attr seedset 12
param **.PS.maxInventoriedPS 5
param **.U1.interArrivalTime exponential(2s)
param **.U2.interArrivalTime exponential(4s)
param **.PS.serviceTimeForInventoryU1 exponential(0.8s)
param **.PS.serviceTimeForInventoryU2 exponential(1.0s)
param **.PS.serviceTimeDirectU1 exponential(1.2s)
param **.PS.serviceTimeDirectU2 exponential(1.4s)
param **.PS.probabilityProducing 0.5
param **.CS.serviceTimeU1 exponential(0.8s)
param **.CS.serviceTimeU2 exponential(1.0s)

vector 0 Pizza.EntryQueueU1 queueLength:vector ETV
attr interpolationmode sample-hold
attr title "queue length, vector"
vector 1 Pizza.CS queueLength:vector ETV
attr interpolationmode sample-hold
attr title "queue length, vector"
vector 2 Pizza.EntryQueueU2 queueLength:vector ETV
attr interpolationmode sample-hold
attr title "queue length, vector"
vector 3 Pizza.sink lifeTime:vector ETV
attr interpolationmode none
attr title "lifetime of arrived jobs, vector"
attr unit s
vector 4 Pizza.sink lifeTimeU2:vector ETV
attr interpolationmode none
attr title "lifetime of arrived jobs, vector"
attr unit s
0	0	0	0
0	9	3.02938641821	1
0	11	3.058750860014	2
0	19	3.843532611707	1
0	25	3.92178884275	2
0	28	4.110600934278	1
0	32	6.175797446328	2
0	37	9.048434481314	1
0	43	9.94355337748	0
0	57	11.948661382188	1
0	58	11.959592592976	0
0	88	17.684311454915	1
0	90	17.943626521855	2
0	91	18.24308010364	1
0	96	18.681243912699	0
0	107	21.429670868617	1
0	108	21.704501658503	0
0	114	21.820640529291	1
0	115	21.994695623199	0
0	123	22.907511271791	1
0	124	24.109815615243	0
0	131	24.160388663359	1
0	132	24.242018559992	0
0	153	26.797814838114	1
0	154	26.967584547275	0
0	193	34.554871979606	1
0	197	36.335612243089	0
0	210	37.421978690176	1
0	211	37.481728677011	0
0	236	43.104149378773	1
0	237	43.141573020189	0
0	243	44.316943892628	1
0	244	44.698568316601	0
0	265	49.649655877352	1
0	267	50.376015588797	0
0	288	56.463696675352	1
0	291	57.315202840825	0
0	324	62.103882161224	1
0	327	63.210754575609	0
0	333	63.941266952701	1
0	336	64.447341112828	0
0	349	65.283532192682	1
0	352	65.968856321126	2
0	357	67.057737116212	1
0	362	67.383779843622	0
0	368	67.391759497995	1
0	370	67.407830581112	2
0	373	67.578924148111	3
0	374	67.684540515611	2
0	382	69.398839835067	3
0	383	69.550510064991	2
0	388	69.777967409875	1
0	394	70.466023907366	2
0	398	70.838437927562	3
0	399	71.308422171338	2
0	404	71.529847778867	1
0	410	71.600396318577	2
0	411	72.070022820086	1
0	416	73.42815515267	0
0	420	73.434066881508	1
0	425	76.009598705436	0
0	429	76.146841496191	1
0	434	77.325693102607	0
0	440	77.552550932093	1
0	442	78.260853003759	2
0	446	78.615692707184	3
0	449	82.137780781541	2
0	454	82.581293584863	1
0	460	83.24700521159	2
0	462	83.273891969739	3
0	463	84.55933651854	2
0	468	86.787443437019	1
0	475	87.253978702447	0
0	512	92.043365393978	1
0	518	92.486845031468	2
0	520	93.178517394402	1
0	526	95.064960708382	0
0	533	95.469623452467	1
0	537	96.340439567071	2
0	539	96.942156524013	3
0	540	98.609246030431	2
0	547	100.011892568171	1
0	552	100.617619756606	0
0	563	101.604885785553	1
0	565	102.089221755869	0
0	599	105.10567570951	1
0	600	105.123402549524	0
0	606	105.439955133953	1
0	607	106.322872260077	0
0	630	109.354436982714	1
0	632	109.426026529911	0
0	667	115.802259748931	1
0	668	115.845650831111	0
0	682	116.815761419254	1
0	683	117.278933565916	0
0	687	117.720050556322	1
0	691	118.531664390023	2
0	694	118.943612034288	3
0	695	119.083106273592	2
0	701	119.612309725933	1
0	710	122.636881222995	2
0	712	124.094315999258	3
0	713	124.303282505334	2
0	719	124.677761888029	1
0	724	125.058109756337	0
0	740	126.303460816018	1
0	741	126.564866996444	0
0	763	128.941707433937	1
0	765	129.687634722054	0
0	771	129.795577884747	1
0	773	130.326052108451	2
0	775	130.680186256858	1
0	780	131.423981473135	0
0	792	132.972031747086	1
0	798	134.391525702272	2
0	800	134.659537272277	1
0	805	135.097244422722	0
0	809	135.373256453785	1
0	812	135.919082508978	0
0	816	136.323395056905	1
0	820	136.643554812911	0
0	838	140.309949501971	1
0	839	140.317580073393	0
0	852	140.535930472918	1
0	853	140.744543108693	0
0	912	149.417622942505	1
0	914	149.471886528984	2
0	915	150.436580912384	1
0	920	151.039260579584	0
0	935	153.72183165134	1
0	937	153.898662174698	0
0	946	154.109064379209	1
0	951	155.827839257674	0
0	963	157.391892160848	1
0	964	157.864162730159	0
0	986	160.120829965838	1
0	988	162.344073302555	0
0	1002	164.965997337582	1
0	1004	165.292876707086	2
0	1006	165.946969359885	3
0	1007	166.376972463407	2
0	1013	167.508137897017	1
0	1018	167.884490557938	0
0	1056	176.743065999161	1
0	1060	178.053119211934	0
0	1075	180.872801994847	1
0	1077	181.05313888092	2
0	1078	181.110832252474	1
0	1083	181.197869673188	0
0	1150	200.969998598814	1
0	1151	201.471980114447	0
0	1155	201.637756231491	1
0	1158	204.944542055996	0
0	1162	205.467897150781	1
0	1166	206.906052128901	2
0	1168	207.366223867077	3
0	1172	208.427001712804	4
0	1173	208.570158888793	3
0	1179	210.604375158331	4
0	1180	210.702314086814	3
0	1187	213.012450779975	2
0	1195	215.812492278957	1
0	1200	215.858336478853	0
0	1204	217.786821803847	1
0	1207	218.69102243127	0
0	1225	220.346163730441	1
0	1226	220.708163571118	0
0	1265	227.701143576194	1
0	1267	228.725694719011	0
0	1285	231.372440739431	1
0	1286	232.576277838836	0
0	1307	235.896746375074	1
0	1309	236.021102173585	2
0	1312	236.919868025801	1
0	1318	237.188729603875	2
0	1321	237.735768952714	3
0	1324	238.206502479731	4
0	1325	238.214798778582	3
0	1330	238.553108696055	2
0	1337	238.618951849363	3
0	1339	239.331886294117	2
0	1345	239.657704533306	1
0	1350	240.038991948586	0
0	1361	240.433214235372	1
0	1365	242.321054686328	0
0	1378	243.634472563255	1
0	1380	243.993703588225	0
0	1407	245.79645834304	1
0	1408	246.571801015372	0
0	1420	248.694745462332	1
0	1421	248.871387907992	0
0	1443	252.082468319547	1
0	1446	252.74463529805	2
0	1448	253.770502973297	1
0	1453	254.00831732627	0
0	1474	255.833740838015	1
0	1477	256.877026829076	2
0	1478	258.049998266275	1
0	1483	258.071726928743	0
0	1503	260.581646388595	1
0	1504	261.459522092407	0
0	1508	262.189309712029	1
0	1513	263.414426644984	2
0	1515	263.527225759498	3
0	1517	264.278088651024	2
0	1523	264.32609860242	3
0	1527	265.296517454104	2
0	1531	265.597731922892	3
0	1534	266.296967536516	2
0	1539	268.060342891948	1
0	1545	268.800486554263	2
0	1548	269.249581167304	1
0	1554	270.072511401467	2
0	1559	271.155757805321	3
0	1560	271.322705452396	2
0	1566	272.332214606723	1
0	1572	272.859264828304	0
0	1615	287.04822479081	1
0	1616	288.352507999287	0
0	1637	290.962049093926	1
0	1638	291.57027239925	0
0	1657	298.504615163343	1
0	1659	299.705813141935	2
0	1662	300.55811753612	1
0	1668	302.805671624551	2
0	1670	302.85486462626	3
0	1675	304.687181011137	2
0	1682	307.152562754073	1
0	1686	307.401209300389	2
0	1692	308.402458598013	1
0	1698	308.488884792478	2
0	1700	308.864940046267	1
0	1705	309.748515154978	0
0	1718	311.627150384829	1
0	1719	312.484389398881	0
0	1726	313.11122084047	1
0	1728	313.245128634076	2
0	1729	313.298135921117	1
0	1735	314.689097731749	0
0	1757	316.034592023245	1
0	1759	316.39671464756	2
0	1760	318.307137458638	1
0	1765	318.344979237174	0
0	1782	323.011481827761	1
0	1784	323.103652572091	2
0	1789	323.954111613093	1
0	1794	324.141505531816	0
0	1848	339.555471377562	1
0	1849	340.710021066635	0
0	1858	341.149185842071	1
0	1859	341.212149009612	0
0	1893	349.334380167686	1
0	1897	349.88494419881	2
0	1900	351.094004868269	3
0	1901	351.217125031994	2
0	1909	351.982183842836	3
0	1912	352.639699667067	4
0	1913	354.292707602038	3
0	1920	355.089973030917	2
0	1926	355.812653619284	3
0	1927	356.600590890318	2
0	1932	356.667923824522	1
0	1937	358.204434843698	0
0	1952	360.63567048956	1
0	1954	361.097806849337	0
0	1977	366.995691557555	1
0	1978	367.035842567649	0
0	2057	385.505707732817	1
0	2058	385.520008238798	0
0	2079	388.098732345137	1
0	2080	388.450932652609	0
0	2108	390.422646744312	1
0	2110	391.478989284111	2
0	2111	391.582849474719	1
0	2117	392.650430647164	0
0	2135	395.751938555356	1
0	2142	396.776351669156	2
0	2143	398.025187908432	1
0	2148	398.706790891411	0
0	2172	402.161961585271	1
0	2178	404.93263333354	0
0	2189	408.802491656867	1
0	2192	409.281612841941	0
0	2205	409.69323817181	1
0	2214	415.11055428159	0
0	2225	417.714924720819	1
0	2228	419.97471978226	0
0	2240	422.868003708133	1
0	2243	424.012261733267	0
0	2252	424.856809289137	1
0	2253	424.929745686086	0
0	2299	428.702964883532	1
0	2300	428.778288557968	0
0	2312	430.470301876301	1
0	2316	432.148846846675	0
0	2324	432.791612137837	1
0	2325	433.635634308368	0
0	2343	435.150102869466	1
0	2346	435.349151922316	0
0	2366	437.676160527116	1
0	2374	441.905148818406	0
0	2415	446.28479711809	1
0	2416	447.386692293535	0
0	2431	449.645839208609	1
0	2434	450.915878985642	0
0	2438	451.835353552054	1
0	2440	452.347346593946	2
0	2448	453.435692170019	1
0	2453	453.464186200943	0
0	2480	457.597978632439	1
0	2482	458.034490037403	2
0	2483	458.385729335204	1
0	2488	458.587240880325	0
0	2510	461.882498864385	1
0	2511	462.454975454127	0
0	2526	463.698194865317	1
0	2529	464.987162278592	2
0	2530	465.286058917157	1
0	2539	468.076349215652	0
0	2568	476.072311567939	1
0	2571	477.449071208478	0
0	2580	478.150853227935	1
0	2587	480.639111935287	0
0	2596	481.654678698354	1
0	2600	482.268255368623	0
0	2621	487.107110877914	1
0	2622	488.174978840204	0
0	2637	490.311846517809	1
0	2640	491.556369631769	0
0	2662	494.974413672273	1
0	2665	495.324021865669	0
0	2685	498.964752682502	1
0	2686	499.150031511736	0
0	2724	504.167816678506	1
0	2725	504.228544813248	0
0	2754	510.285628544099	1
0	2756	510.672079840006	0
0	2764	511.771131937395	1
0	2765	513.525806670719	0
0	2794	516.676608481529	1
0	2796	517.645929196742	2
0	2798	519.281152569657	1
0	2808	520.97132159475	2
0	2809	521.022029850024	1
0	2814	521.135186707356	0
0	2818	523.733900757945	1
0	2820	524.429226457739	2
0	2823	525.533617940703	1
0	2827	525.634543411877	2
0	2831	526.641743294133	3
0	2833	526.90749861702	4
0	2834	526.916651208562	3
0	2844	528.454576984671	4
0	2852	532.328969632824	5
0	2855	532.935017669695	4
0	2860	533.283220454985	3
0	2870	534.808911916872	4
0	2871	535.444208278978	3
0	2877	536.424976842566	4
0	2879	536.445909587011	5
0	2883	536.972564754454	6
0	2884	537.045268034615	5
0	2892	538.679912903266	4
0	2897	539.375944433637	3
0	2901	539.849091813976	4
0	2904	540.936664575336	3
0	2908	541.040742924192	4
0	2911	541.308121418413	3
0	2919	543.628233975973	4
0	2921	545.073923105633	5
0	2922	545.257945432218	4
0	2927	546.046953899932	3
0	2932	547.566400656023	2
0	2938	549.552878489557	3
0	2941	549.930853067408	2
0	2946	551.868598087279	1
0	2950	551.873114372626	2
0	2952	552.220628314191	3
0	2954	552.41898170821	4
0	2956	552.899632816746	5
0	2958	553.346465777292	6
0	2961	554.763031292761	5
0	2966	554.824634593815	4
0	2970	555.423925430323	5
0	2973	556.313090152294	4
0	2980	558.512425238827	3
0	2985	560.074547221153	2
0	2992	561.890705023247	1
0	3001	563.760153367279	0
0	3005	564.124293536736	1
0	3009	565.161323090911	2
0	3010	565.289083437604	1
0	3015	566.328198212233	0
0	3022	566.710883301214	1
0	3023	569.256101883966	0
0	3034	569.877312508871	1
0	3035	569.974095621203	0
0	3039	570.039751945725	1
0	3043	571.17356748015	2
0	3047	572.334235965778	3
0	3049	573.671993788953	2
0	3054	573.767187835907	1
0	3059	573.794544017655	0
0	3063	574.233102492281	1
0	3065	574.843504700161	2
0	3070	576.128202680506	1
0	3076	577.13257220859	2
0	3080	578.599073467301	3
0	3081	578.737411081155	2
0	3089	580.755460154865	1
0	3095	581.074854273002	2
0	3096	582.418692156854	1
0	3100	582.462858377966	2
0	3103	583.934141723276	1
0	3108	584.004795925034	0
0	3112	584.67374946788	1
0	3114	586.096237409519	2
0	3118	587.474253751941	3
0	3119	588.398891531534	2
0	3125	588.801239008384	3
0	3129	589.906508398429	4
0	3131	593.455461079251	5
0	3133	593.618454243108	6
0	3137	594.964255553425	7
0	3139	595.018252528729	8
0	3140	595.265148202933	7
0	3150	599.288645062243	8
0	3151	599.493628258807	7
0	3158	601.8242905768	6
0	3164	602.767635913529	7
0	3168	607.374838857093	8
0	3170	607.927732093748	9
0	3175	610.162823852141	10
0	3178	610.604114904035	11
0	3180	610.807057732558	10
0	3185	611.440811308244	9
0	3192	611.670543126634	10
0	3193	612.143938142144	9
0	3198	612.187640571767	8
0	3204	612.668115900758	9
0	3205	612.824328465507	8
0	3209	612.931500430996	9
0	3211	613.109944352462	10
0	3213	613.538344833889	11
0	3216	613.875211062869	10
0	3223	615.693071154195	9
0	3229	616.468592489798	10
0	3230	617.271711307917	9
0	3235	617.472931099283	8
0	3239	617.629439398705	9
0	3242	618.517279633633	8
0	3249	620.688631574221	7
0	3253	620.745522475635	8
0	3255	622.142649421906	9
0	3258	622.784785422854	8
0	3265	624.810103245042	7
0	3275	627.247916439581	8
0	3276	627.305447203571	7
0	3281	627.45882205643	6
0	3288	627.926346887327	5
0	3292	629.229407583251	6
0	3296	630.397472553326	7
0	3297	630.834229656564	6
0	3302	632.115564966553	5
0	3306	632.534638232536	6
0	3310	635.53596204808	5
0	3318	635.936929501158	4
0	3326	637.571548198304	5
0	3328	638.961010020787	6
0	3329	638.974266214779	5
0	3333	639.396629204861	6
0	3336	640.79933550226	5
0	3341	641.944170489176	4
0	3347	642.161580626896	5
0	3349	642.211072575585	6
0	3352	643.070930016135	5
0	3357	643.788288306519	4
0	3361	647.634830580857	5
0	3363	649.518600187219	6
0	3367	652.424887369278	5
0	3373	654.057899663384	4
0	3378	654.845879463861	3
0	3385	657.20794011258	2
0	3389	658.617092937304	3
0	3394	660.584795229542	4
0	3396	660.592452302992	5
0	3397	660.698296048004	4
0	3402	660.809286959648	3
0	3408	661.465622818104	4
0	3411	662.112722480669	5
0	3413	663.019674438677	6
0	3414	663.235878983802	5
0	3421	664.066371795935	6
0	3426	665.285949228618	5
0	3432	665.759188499352	6
0	3433	666.207879819646	5
0	3438	666.602352510982	4
0	3444	667.57403478234	5
0	3451	669.540223249904	4
0	3456	670.56299198575	3
0	3463	671.349036147003	4
0	3464	672.418418701837	3
0	3469	673.019718249501	2
0	3473	673.077291835744	3
0	3477	673.630307947416	4
0	3478	674.436990706482	3
0	3486	677.81982889565	4
0	3488	678.000268704804	5
0	3489	678.430366548901	4
0	3496	680.21692317314	3
0	3502	681.970439084544	4
0	3503	682.848249691031	3
0	3508	685.017682951898	2
0	3513	685.553947378837	1
0	3521	688.753187994792	0
0	3547	690.766285349456	1
0	3550	691.865281986385	2
0	3551	691.953705209208	1
0	3557	692.763027987613	0
0	3563	692.776123708018	1
0	3565	693.126242284897	2
0	3566	693.503599774208	1
0	3572	693.594792479706	2
0	3573	693.656672025034	1
0	3578	694.346763992894	0
0	3598	696.616907435051	1
0	3601	697.572422268277	0
0	3617	699.363400439676	1
0	3618	699.548701592446	0
0	3642	701.580001115107	1
0	3644	702.292251624249	2
0	3645	702.405723303784	1
0	3650	702.92730491949	0
0	3663	703.658208675541	1
0	3664	703.773523381477	0
0	3684	707.686130706805	1
0	3685	708.292731011038	0
0	3706	710.613848460296	1
0	3708	710.965859805801	2
0	3710	711.658001236802	3
0	3716	714.003815334404	2
0	3721	714.359293249128	1
0	3730	717.206129274972	2
0	3734	717.494084053115	3
0	3735	717.841448938272	2
0	3740	718.0952268151	1
0	3750	720.289175148133	0
0	3772	722.068238282501	1
0	3774	722.082462241903	2
0	3775	722.184709697895	1
0	3781	722.504238048738	0
0	3789	723.951495989767	1
0	3790	724.451304490885	0
0	3812	726.999253070027	1
0	3816	727.834798849474	2
0	3818	728.219976588532	3
0	3819	729.056692263648	2
0	3826	729.381396063331	1
0	3831	729.506304500573	0
0	3839	730.07704866272	1
0	3840	730.089655940109	0
0	3863	731.237684188584	1
0	3868	732.621899929077	0
0	3880	733.78997954948	1
0	3881	734.48278995907	0
0	3887	734.515992482264	1
0	3889	734.620002513465	2
0	3890	734.732191414114	1
0	3895	734.967499092601	0
0	3919	739.026675967174	1
0	3925	739.936980347403	2
0	3927	739.965935039701	1
0	3940	742.946553215948	2
0	3942	744.144423087242	1
0	3947	744.760665311639	0
0	3960	746.964667693281	1
0	3963	747.725752881665	0
0	3987	750.067536564169	1
0	3988	750.847077797121	0
0	3999	751.439237678963	1
0	4000	751.86027988916	0
0	4028	756.288356627687	1
0	4030	756.340872908419	2
0	4032	757.787738068862	3
0	4036	759.882382419025	2
0	4042	760.110058231255	3
0	4043	760.282160632842	2
0	4048	760.374713378936	1
0	4056	761.070196166747	2
0	4058	762.285787698539	1
0	4063	762.676023264009	0
0	4079	763.685231768381	1
0	4080	763.727847318628	0
0	4086	764.262983735513	1
0	4087	764.715515229447	0
0	4109	771.289816068065	1
0	4111	773.907603599821	2
0	4117	775.959137860066	3
0	4118	776.391032498877	2
0	4124	776.8431266464	3
0	4128	777.362092572028	4
0	4130	777.529306347864	5
0	4133	778.56848111334	4
0	4139	779.094525398715	3
0	4144	781.76307641291	2
0	4153	783.911891378508	1
0	4159	784.410087550358	2
0	4161	785.134812629563	1
0	4167	785.261151075855	2
0	4168	785.293810001841	1
0	4172	787.709288684061	2
0	4174	789.307105622785	3
0	4178	789.968549407379	4
0	4179	790.213574251375	3
0	4183	792.408803490134	4
0	4186	792.858576998439	3
0	4190	793.284702772735	4
0	4195	796.300687095651	3
0	4203	798.368254029141	2
0	4208	799.280888279121	1
0	4212	799.91628920831	2
0	4218	800.149779269225	3
0	4219	801.208749790646	2
0	4228	803.636054428563	3
0	4229	804.481667317385	2
0	4234	804.56402451881	1
0	4239	806.532143089335	0
0	4243	806.90006825491	1
0	4247	807.497564102358	2
0	4249	808.342289867416	3
0	4251	808.948544076996	2
0	4256	809.024384030905	1
0	4265	810.988801121441	0
0	4276	811.282569498623	1
0	4279	811.806282175179	0
0	4296	813.456693801656	1
0	4299	814.708235183613	2
0	4300	815.17710352265	1
0	4308	816.217507285019	2
0	4309	816.279329282659	1
0	4316	816.726147625765	2
0	4317	816.926829619431	1
0	4322	816.984630335292	0
0	4335	819.70957268783	1
0	4336	819.734023646134	0
0	4395	825.735559417729	1
0	4396	826.062699339598	0
0	4415	828.550962185341	1
0	4418	829.731571490508	0
0	4456	834.389002710926	1
0	4459	836.467925290706	2
0	4460	837.538991708772	1
0	4468	837.916005411514	0
0	4484	840.305346089706	1
0	4488	840.950952330527	2
0	4490	841.15047463652	3
0	4492	841.302137720824	4
0	4497	841.95385864494	5
0	4498	841.992342973451	4
0	4504	842.311644235106	3
0	4509	842.818880677781	2
0	4515	843.203428438371	1
0	4521	843.582710301015	2
0	4525	845.648889148478	3
0	4528	846.026772265533	2
0	4536	846.766728817768	3
0	4538	847.556994027214	4
0	4540	848.129821047622	5
0	4542	849.118129922555	6
0	4543	849.57067272566	5
0	4550	850.106074628221	4
0	4555	850.582299899985	3
0	4561	851.121128365298	2
0	4567	852.036481152433	1
0	4572	852.467956623545	0
0	4617	860.811178955134	1
0	4620	862.673682289253	0
0	4631	863.172262488437	1
0	4635	864.285297235874	2
0	4637	864.287124681857	3
0	4639	864.566793246656	4
0	4641	864.631062679155	5
0	4642	864.774312633583	4
0	4648	865.094065789879	5
0	4650	865.252077484204	6
0	4654	865.851512268517	7
0	4656	866.952281613443	6
0	4661	867.264085319803	5
0	4666	867.917881964063	4
0	4671	867.981527393128	3
0	4676	868.208970494133	2
0	4682	868.750676376029	3
0	4683	868.942143931939	2
0	4689	869.368708371272	3
0	4690	869.860689687523	2
0	4695	870.873555261325	1
0	4701	871.054785506935	2
0	4702	871.302908874362	1
0	4707	872.408439071027	0
0	4714	873.742915356512	1
0	4715	873.775523203492	0
0	4731	874.757871309372	1
0	4733	874.950783752349	2
0	4736	876.201572144133	3
0	4738	876.554095933428	4
0	4739	878.610838725981	3
0	4744	878.97794702896	2
0	4750	879.014776366836	3
0	4752	879.685375464068	4
0	4754	880.973658870738	5
0	4755	881.181677504107	4
0	4760	881.583845880128	3
0	4769	882.455244271592	2
0	4774	882.842645839513	1
0	4779	884.496593523031	0
0	4785	885.512225041014	1
0	4786	886.494693387706	0
0	4792	886.684865465034	1
0	4795	887.424864147948	2
0	4796	887.604462081629	1
0	4801	887.898054046387	0
0	4835	890.559791125226	1
0	4841	891.280230455522	2
0	4845	893.066003080971	1
0	4853	895.589303729223	2
0	4854	895.592966254611	1
0	4858	896.762059828929	2
0	4862	899.833868449557	1
0	4867	900.115892068622	0
0	4871	900.190698592191	1
0	4878	900.831368155052	0
0	4891	902.073501539448	1
0	4893	902.73792544647	0
0	4899	902.743872445506	1
0	4903	902.962557408134	0
0	4909	903.134699385283	1
0	4910	903.151609637197	0
0	4922	904.767221753617	1
0	4923	904.974697844709	0
0	4937	906.014506633223	1
0	4944	907.75623890278	2
0	4945	907.80274244388	1
0	4951	908.461735800569	2
0	4952	908.842949786102	1
0	4958	910.057917099784	2
0	4960	910.592189470962	3
0	4961	910.987770729828	2
0	4965	911.541230682375	3
0	4968	912.410343034239	2
0	4972	913.271047180185	3
0	4974	913.860513205985	4
0	4976	914.437692590713	5
0	4979	914.873181871812	4
0	4983	914.974982323134	5
0	4986	915.547928303455	4
0	4991	915.685535272905	3
0	4995	915.956769527976	4
0	4998	916.491228544369	3
0	5003	917.53170054044	2
0	5007	919.278444390621	3
0	5014	921.876157599788	2
0	5019	923.546591580214	1
0	5023	923.56178991975	2
0	5026	923.800333619714	1
0	5034	924.605857350703	2
0	5035	925.686892771377	1
0	5040	926.162818797027	0
0	5051	926.425393315758	1
0	5053	927.484144173853	2
0	5055	927.773920855851	1
0	5060	927.822380555303	0
0	5078	929.103164320448	1
0	5080	929.530880880003	0
0	5091	929.891090961663	1
0	5092	929.90469326603	0
0	5104	930.295992900371	1
0	5106	930.429206091696	0
0	5124	931.75768708201	1
0	5129	933.634713012386	0
0	5170	944.085167147867	1
0	5171	945.139020116209	0
0	5192	949.533256415555	1
0	5194	949.843756623401	0
0	5227	956.266702134065	1
0	5228	956.369639312542	0
0	5236	957.089975031637	1
0	5237	957.108182710022	0
0	5247	958.77341109059	1
0	5249	960.282916955524	2
0	5250	960.642646366495	1
0	5256	961.465126847707	2
0	5258	961.821335187895	3
0	5260	963.898877227961	2
0	5269	965.819241412674	1
0	5275	966.230190051712	2
0	5277	966.649246466434	3
0	5278	966.74276865129	2
0	5285	967.056364666456	3
0	5288	967.935160612089	4
0	5289	967.952991424881	3
0	5294	969.764414193095	2
0	5299	970.201659690552	1
0	5304	970.595765738023	0
0	5367	977.206656798777	1
0	5368	977.806742090218	0
0	5374	979.425684073366	1
0	5375	979.621207906251	0
0	5396	982.664345663668	1
0	5397	983.388714174169	0
0	5405	985.847302702872	1
0	5406	986.133675401125	0
0	5435	991.838863819286	1
0	5436	992.002137941353	0
0	5463	996.533719812316	1
0	5464	997.174239831789	0
0	5527	1010.8877307822	1
0	5529	1011.004763607023	2
0	5531	1011.181749928049	3
0	5533	1011.410969020198	4
0	5535	1011.675540147513	5
0	5538	1012.08598708157	6
0	5540	1012.728243474238	7
0	5542	1013.170597045529	8
0	5544	1013.514723287035	9
0	5545	1014.048783301078	8
0	5550	1014.429056784164	7
0	5555	1014.958012948593	6
0	5562	1017.020320740804	7
0	5563	1017.111196497816	6
0	5568	1017.251081036784	5
0	5572	1018.101520074265	6
0	5574	1019.999544910625	7
0	5577	1020.358726027126	6
0	5583	1020.669485313861	7
0	5584	1021.023966185112	6
0	5590	1022.042435115856	7
0	5591	1022.213132751632	6
0	5596	1023.550641138624	5
0	5602	1024.533391044604	4
0	5607	1025.408114149729	3
0	5611	1028.892768286287	4
0	5613	1029.030599234439	5
0	5616	1029.131813577084	4
0	5623	1031.266611031046	3
0	5628	1032.805801370898	2
0	5633	1033.811671657427	1
0	5640	1035.464956888731	0
0	5703	1045.285536045574	1
0	5704	1046.037679240363	0
0	5860	1078.038497172444	1
0	5863	1078.719537925253	0
0	5874	1079.726811815878	1
0	5876	1080.423116230881	0
0	5898	1082.607917815862	1
0	5900	1082.678309772239	2
0	5901	1083.631061635547	1
0	5907	1083.702248718065	2
0	5909	1084.005384788676	1
0	5914	1084.208338329971	0
0	5935	1088.910637737125	1
0	5937	1091.049644874337	2
0	5942	1093.311600581285	1
0	5951	1094.14682005042	2
0	5953	1094.666076829439	1
0	5958	1094.68984718664	0
0	5965	1096.165362254305	1
0	5967	1096.476604590706	2
0	5969	1096.90345478731	3
0	5974	1097.411245248832	4
0	5976	1097.78148981494	5
0	5977	1097.864797898262	4
0	5982	1098.006711797945	3
0	5989	1098.742422825074	4
0	5997	1099.946838738565	3
0	6003	1100.847030976573	4
0	6004	1101.115795783603	3
0	6009	1101.332389210235	2
0	6018	1102.794486490366	3
0	6020	1102.979386474833	4
0	6022	1103.669761950045	5
0	6026	1104.2577247152	6
0	6027	1104.295899378897	5
0	6033	1104.382680098898	6
0	6034	1105.148862884411	5
0	6040	1105.722357740766	6
0	6042	1105.743012187233	7
0	6045	1106.276283403042	8
0	6046	1106.365769573504	7
0	6051	1106.371564056172	6
0	6056	1107.604554984217	5
0	6062	1109.939950395502	6
0	6063	1110.206315082798	5
0	6070	1110.651307096702	4
0	6076	1110.842244271137	5
0	6077	1111.750730994897	4
0	6081	1111.870315890936	5
0	6088	1114.730977404248	4
0	6093	1115.518233121731	3
0	6098	1115.845915599711	2
0	6106	1117.07018636883	3
0	6108	1118.835625006369	4
0	6109	1119.235913746907	3
0	6114	1119.723464239394	2
0	6121	1123.964067579697	1
0	6126	1125.548948475287	0
0	6130	1126.179556340726	1
0	6132	1127.730270188018	2
0	6134	1127.956549390101	3
0	6139	1128.860789519692	2
0	6146	1129.072694579096	1
0	6151	1129.103353225702	0
0	6184	1133.721328199509	1
0	6185	1133.943160926055	0
0	6191	1134.148804848976	1
0	6194	1134.533980259223	2
0	6195	1135.414768380649	1
0	6200	1135.558364171419	0
0	6206	1135.576062838498	1
0	6207	1135.710524938507	0
0	6213	1136.065323333162	1
0	6214	1136.723397398683	0
0	6232	1138.796321358631	1
0	6238	1139.473991090137	2
0	6241	1140.843308700499	1
0	6254	1142.82165998363	0
0	6267	1144.938442140664	1
0	6268	1145.465239247355	0
0	6301	1147.255896095664	1
0	6303	1147.450842009346	2
0	6304	1147.561178455775	1
0	6312	1148.560945663333	0
0	6334	1151.748910505523	1
0	6336	1152.638759977832	0
0	6348	1153.885249400919	1
0	6351	1154.639105830704	0
0	6397	1162.626564617452	1
0	6399	1163.656893871997	2
0	6401	1164.657581630464	3
0	6406	1167.35486452996	2
0	6411	1167.653204279488	1
0	6418	1168.331809415104	2
0	6419	1168.387387863116	1
0	6425	1168.486034751273	0
0	6436	1168.615718864419	1
0	6437	1168.651093740739	0
0	6447	1170.420368310218	1
0	6448	1171.063959113019	0
0	6454	1171.112388479603	1
0	6455	1171.293545085725	0
0	6464	1171.861515398569	1
0	6466	1171.977258780511	2
0	6470	1172.572885221847	3
0	6473	1173.074223750474	2
0	6479	1173.403121319946	3
0	6480	1174.095259915806	2
0	6486	1174.172748546639	1
0	6491	1174.344850318849	0
0	6510	1176.692875513057	1
0	6514	1177.793553272211	0
0	6522	1178.481263272801	1
0	6525	1178.789823987819	0
0	6540	1180.017431709369	1
0	6542	1180.262981293134	0
0	6554	1181.206013345219	1
0	6557	1182.193647472277	0
0	6563	1182.711158829392	1
0	6565	1182.95959404358	2
0	6566	1183.060274220043	1
0	6573	1184.335451221892	0
0	6588	1187.093646783589	1
0	6594	1187.5468511892	0
0	6615	1189.309181277106	1
0	6617	1189.420806764973	2
0	6619	1190.650141406985	3
0	6620	1190.717216142035	2
0	6625	1190.924479818025	1
0	6632	1191.208470020509	2
0	6634	1191.232292405574	3
0	6636	1191.28042187292	4
0	6637	1191.57538289488	3
0	6646	1192.203780362746	2
0	6651	1192.560884544356	1
0	6655	1192.808800828254	2
0	6659	1193.9373831439	1
0	6666	1194.852051018176	0
0	6672	1195.744856943544	1
0	6675	1196.08040323464	0
0	6691	1198.660552292466	1
0	6693	1198.899258900963	2
0	6694	1199.968025287989	1
0	6698	1200.113335976109	2
0	6701	1200.860041392298	1
0	6706	1202.897396498548	0
0	6712	1203.75507037484	1
0	6714	1203.776495970899	2
0	6719	1206.038094837846	1
0	6723	1206.240299955127	2
0	6727	1207.222586841888	1
0	6733	1207.420306225433	2
0	6735	1208.072320404311	3
0	6736	1209.023852953583	2
0	6742	1209.875868535687	1
0	6750	1211.822412406937	2
0	6753	1212.507106087326	3
0	6755	1212.687992571039	2
0	6760	1213.517763161533	1
0	6766	1213.767016526793	2
0	6767	1213.782218377911	1
0	6775	1214.933212416605	2
0	6776	1215.658476699495	1
0	6783	1217.386535413497	0
0	6809	1220.658514964862	1
0	6811	1220.927952373008	2
0	6812	1222.237812956072	1
0	6817	1222.484895961117	0
0	6880	1229.02142556905	1
0	6881	1229.37830467387	0
0	6888	1230.3935738591	1
0	6889	1231.088784807735	0
0	6931	1236.573067061636	1
0	6932	1237.01331788339	0
0	6944	1238.992993319982	1
0	6946	1239.172949229894	2
0	6951	1239.551537359353	3
0	6952	1239.598931662046	2
0	6958	1239.750292319042	3
0	6960	1239.779575240774	4
0	6962	1240.513697375012	3
0	6967	1241.033957714617	2
0	6974	1241.850515495154	3
0	6975	1243.184628313634	2
0	6983	1243.372141413607	1
0	6989	1244.324442164254	2
0	6990	1244.612845879803	1
0	6996	1245.038588085672	2
0	6998	1245.370302780108	3
0	7000	1245.447865904318	4
0	7001	1245.504410936879	3
0	7006	1245.574355660254	2
0	7011	1245.825298651491	1
0	7019	1247.781366388364	2
0	7023	1248.52360255569	3
0	7024	1248.57341874661	2
0	7031	1249.84936217488	1
0	7037	1250.227298893347	2
0	7039	1251.281888756056	3
0	7042	1251.585236242066	2
0	7048	1251.697697208936	3
0	7049	1251.857869722941	2
0	7054	1253.352952479092	1
0	7058	1253.48936252024	2
0	7061	1254.15381125214	1
0	7067	1255.32694553036	0
0	7088	1256.336454329645	1
0	7089	1257.23734653174	0
0	7105	1259.44579090229	1
0	7107	1260.63619565285	0
0	7134	1264.708754707475	1
0	7135	1264.81223764013	0
0	7187	1279.489349624452	1
0	7189	1279.940140646035	0
0	7218	1296.334515778527	1
0	7219	1296.364655856901	0
0	7232	1297.339424091729	1
0	7233	1297.960152936909	0
0	7259	1301.932528584338	1
0	7261	1302.299771969382	2
0	7263	1302.849499611568	3
0	7264	1303.045192802188	2
0	7271	1303.211403428667	3
0	7274	1304.134219822376	2
0	7279	1305.596475846234	1
0	7284	1305.626191916587	0
0	7315	1310.520717145057	1
0	7316	1310.843310665315	0
0	7340	1312.001565176107	1
0	7341	1312.488276826849	0
0	7360	1317.057412677928	1
0	7362	1320.034195390517	0
0	7381	1323.896164676076	1
0	7382	1324.691516180027	0
0	7396	1325.97159300292	1
0	7398	1326.168714533149	2
0	7404	1326.686462996972	3
0	7405	1327.136504940051	2
0	7411	1328.025817355379	1
0	7417	1328.993590389745	2
0	7418	1329.041023319531	1
0	7425	1329.360529731845	0
0	7484	1342.479371206676	1
0	7486	1344.086522490686	0
0	7545	1354.222480702313	1
0	7547	1355.082448206888	0
0	7611	1364.841844076409	1
0	7613	1366.537913913247	0
0	7662	1375.586744722354	1
0	7663	1375.715696322579	0
0	7669	1376.683544268221	1
0	7674	1377.901955838019	0
0	7685	1378.059825475734	1
0	7686	1378.100289379903	0
0	7692	1378.140456745499	1
0	7695	1378.270616877844	2
0	7696	1378.386846129834	1
0	7701	1379.028299642703	0
0	7722	1381.659686770124	1
0	7725	1382.438377216368	2
0	7729	1382.533723701324	3
0	7730	1383.313265833819	2
0	7736	1385.645673481596	1
0	7741	1387.460673646503	0
0	7764	1390.115148585003	1
0	7767	1391.4789522625	2
0	7769	1391.544023302466	1
0	7777	1392.540515099159	0
0	7783	1392.864186523091	1
0	7785	1393.591345681606	0
0	7791	1393.896176604101	1
0	7792	1394.3537196047	0
0	7815	1398.528126422036	1
0	7817	1399.062372499288	0
0	7858	1410.939410342549	1
0	7859	1411.018924109758	0
0	7871	1412.251231194578	1
0	7873	1412.593303526473	2
0	7876	1413.124811918272	3
0	7879	1413.581661107859	4
0	7880	1414.389516764349	3
0	7887	1416.620314811662	2
0	7893	1417.261173411809	3
0	7894	1417.702917335887	2
0	7900	1418.167562025313	3
0	7901	1418.540783921272	2
0	7906	1419.293392631583	1
0	7913	1420.008325565399	0
0	7927	1420.728395487711	1
0	7928	1420.78592180144	0
0	7950	1423.026775751662	1
0	7952	1423.222505462803	0
0	7966	1426.246453134107	1
0	7967	1426.923564115	0
0	7973	1427.621469214388	1
0	7974	1428.412149062081	0
0	7998	1432.366491522689	1
0	8000	1432.881998998962	0
0	8059	1439.130793023339	1
0	8061	1439.517169895259	2
0	8062	1440.142372130672	1
0	8069	1440.443166015421	2
0	8071	1440.673858191836	3
0	8072	1440.794127839317	2
0	8077	1441.143204817017	1
0	8083	1442.90886878755	2
0	8087	1443.232945699729	3
0	8090	1443.725594256211	2
0	8095	1444.022911692696	1
0	8101	1444.298679338683	0
0	8121	1445.336278181757	1
0	8124	1446.15821500813	2
0	8126	1446.822782891197	1
0	8131	1447.204611121407	0
0	8135	1447.919051878541	1
0	8138	1448.080525729723	0
0	8144	1449.309308170478	1
0	8146	1449.5789360547	2
0	8147	1449.87676522271	1
0	8153	1451.527823185238	2
0	8155	1452.456748400218	3
0	8157	1453.308647022136	4
0	8161	1453.897301041241	5
0	8165	1454.936752685334	6
0	8168	1456.171515213286	5
0	8174	1456.607648810708	4
0	8179	1457.861520202629	3
0	8185	1458.858920340198	4
0	8186	1458.922986724643	3
0	8192	1462.094580607257	2
0	8199	1463.470617454706	3
0	8200	1463.749400927251	2
0	8205	1464.642672775503	1
0	8214	1465.765801168344	0
0	8218	1467.325957934319	1
0	8220	1467.344500133326	2
0	8222	1467.387279233729	3
0	8226	1469.298021884241	4
0	8229	1469.686813240933	3
0	8237	1471.131186257388	4
0	8238	1471.615331819704	3
0	8244	1471.877162274093	4
0	8246	1472.065441720712	5
0	8249	1472.850407854693	6
0	8251	1473.147436858227	7
0	8252	1475.071318240968	6
0	8257	1476.431140826747	5
0	8269	1477.863050069624	6
0	8270	1478.002227174446	5
0	8278	1480.165180215662	6
0	8279	1480.278404724167	5
0	8283	1480.924781897078	6
0	8286	1481.783461196831	5
0	8295	1484.416963475472	4
0	8301	1485.500048337752	5
0	8303	1485.568531693869	4
0	8310	1485.899765618721	3
0	8315	1486.469072592066	2
0	8321	1487.011496083448	3
0	8327	1488.277050892601	4
0	8329	1488.575058029406	3
0	8334	1488.661447450461	2
0	8342	1491.775881900899	3
0	8343	1491.840327898565	2
0	8347	1493.675140338949	3
0	8350	1495.79403326165	2
0	8354	1495.910177216432	3
0	8361	1497.814596569758	2
0	8371	1500.885308472971	3
0	8375	1501.608517236838	2
0	8380	1501.824944568805	1
0	8387	1502.826583511417	0
0	8398	1504.991491767481	1
0	8400	1505.014209706934	2
0	8401	1505.47146409917	1
0	8407	1505.620978446867	2
0	8408	1505.974879649419	1
0	8413	1506.00426543483	0
0	8427	1507.620122161366	1
0	8428	1507.717846177188	0
0	8441	1509.142740211649	1
0	8442	1509.149925808761	0
0	8446	1511.407943400454	1
0	8448	1511.750501815877	2
0	8451	1513.730255149239	1
0	8455	1514.939235233218	2
0	8457	1515.230025488617	3
0	8462	1516.944531871571	2
0	8467	1517.390884076802	1
0	8471	1517.395834753311	2
0	8473	1518.183781837694	3
0	8475	1518.845103538553	4
0	8477	1519.063051666247	5
0	8481	1519.537188803435	6
0	8482	1519.582243737846	5
0	8486	1521.062446756309	6
0	8490	1521.436041532643	7
0	8492	1522.349982053261	8
0	8493	1522.375619861714	7
0	8497	1522.796670611808	8
0	8501	1526.050129255697	9
0	8508	1527.222401769783	8
0	8514	1527.663762547806	9
0	8517	1528.490145489807	8
0	8524	1529.335629792667	7
0	8529	1529.367888893547	6
0	8533	1529.837721061894	7
0	8536	1530.05557165098	6
0	8542	1531.896764970069	7
0	8544	1532.148029761842	8
0	8545	1532.233869750299	7
0	8552	1535.525515413403	6
0	8556	1535.915313251393	7
0	8560	1537.041341107994	6
0	8565	1537.114368237559	5
0	8569	1537.281806567439	6
0	8571	1537.468304454156	7
0	8575	1538.426798699865	6
0	8580	1539.248156621298	5
0	8585	1539.635103994522	4
0	8590	1540.716210129743	3
0	8597	1542.482815357413	2
0	8603	1543.705648133247	3
0	8607	1545.478839766796	2
0	8612	1547.767973615518	1
0	8618	1548.177334299399	0
0	8624	1548.260383463881	1
0	8625	1548.392391550933	0
0	8634	1549.174817157862	1
0	8637	1550.20631195041	0
0	8660	1551.814825695126	1
0	8664	1553.378602928574	2
0	8665	1553.982124369605	1
0	8671	1554.37491451423	2
0	8675	1555.955664220704	3
0	8677	1556.177599718123	2
0	8682	1556.355271344855	1
0	8688	1556.908442969144	2
0	8690	1556.955849396923	3
0	8691	1557.609836483444	2
0	8696	1558.089834688953	1
0	8702	1558.667403966556	2
0	8703	1558.711765695607	1
0	8709	1558.865896914295	2
0	8710	1558.940978138427	1
0	8716	1558.965242169923	2
0	8717	1559.366779789361	1
0	8722	1560.149025266559	0
0	8726	1560.437169506462	1
0	8729	1562.022819418168	0
0	8758	1565.660023828537	1
0	8760	1566.295799705895	0
0	8767	1567.505463251853	1
0	8769	1567.803959023293	0
0	8799	1569.201606597396	1
0	8803	1570.329355708856	2
0	8805	1570.879142472018	1
0	8815	1572.349226607861	2
0	8816	1572.516626940689	1
0	8821	1572.91454214937	0
0	8827	1573.54589174641	1
0	8829	1573.885587886853	0
0	8840	1574.342723026823	1
0	8841	1574.891058527172	0
0	8852	1576.119063639331	1
0	8857	1577.171564256585	2
0	8861	1578.649590502583	3
0	8865	1579.539299741299	2
0	8871	1579.798467363243	3
0	8874	1581.463752955573	2
0	8879	1581.806860474924	1
0	8885	1582.032272717122	2
0	8886	1582.111559335559	1
0	8892	1582.752150212953	0
0	8909	1583.803452102858	1
0	8910	1584.240286477344	0
0	8946	1588.163795252913	1
0	8947	1588.537131009247	0
0	8956	1588.926875940748	1
0	8960	1590.28491893932	0
0	8966	1590.924527154858	1
0	8968	1591.001098323127	2
0	8969	1591.005456436545	1
0	8975	1592.22800887499	0
0	8988	1595.299448496292	1
0	8991	1596.365661882121	2
0	8993	1597.025098089687	1
0	8998	1597.494178703982	0
0	9016	1599.139489099156	1
0	9019	1600.884286342181	0
0	9058	1609.296776200306	1
0	9061	1609.786645366653	0
0	9072	1610.973729872944	1
0	9073	1611.250757777072	0
0	9079	1611.298852162277	1
0	9081	1611.416179606267	0
0	9092	1612.483376273586	1
0	9094	1613.810345445071	2
0	9100	1615.19324005729	3
0	9104	1618.160166223367	4
0	9110	1621.17207260587	5
0	9112	1621.697040386606	6
0	9120	1623.825281027917	7
0	9122	1623.907674846543	8
0	9123	1625.157103415092	7
0	9128	1626.240151805274	6
0	9135	1626.423847642676	5
0	9140	1626.725295462373	4
0	9147	1627.530558314667	3
0	9152	1627.639583711223	2
0	9156	1627.647409450884	3
0	9163	1632.302528232593	2
0	9168	1632.526894715283	1
0	9180	1633.61593978796	0
0	9205	1635.772015746137	1
0	9206	1636.067759854135	0
0	9241	1639.858575803911	1
0	9242	1639.954282052244	0
0	9258	1641.583934743721	1
0	9259	1641.684656210121	0
0	9273	1642.348304489165	1
0	9278	1643.466948599445	0
0	9292	1644.438854524624	1
0	9294	1644.70835421094	2
0	9296	1645.05312864569	3
0	9301	1649.737861699059	2
0	9307	1650.088338691806	3
0	9310	1650.84742043899	4
0	9312	1651.358435796171	5
0	9317	1652.693424092551	4
0	9322	1653.848249856925	3
0	9327	1654.030410410489	2
0	9332	1654.296618895908	1
0	9338	1655.403983593116	2
0	9339	1655.571619393742	1
0	9345	1655.700626293176	2
0	9346	1655.815751176971	1
0	9350	1656.759433772467	2
0	9352	1657.436886033844	3
0	9354	1659.044607538401	4
0	9359	1660.299558761947	3
0	9368	1661.682278496905	4
0	9369	1661.924705556444	3
0	9376	1662.392972549535	2
0	9381	1663.179252234804	1
0	9385	1663.500575479983	2
0	9388	1663.984722818195	1
0	9393	1664.730562778985	0
0	9417	1666.706337121256	1
0	9419	1667.095561161997	2
0	9421	1668.189949166808	3
0	9423	1668.334431477318	2
0	9428	1668.65964281323	1
0	9434	1668.781838542779	2
0	9435	1668.885995606953	1
0	9442	1669.317872371374	2
0	9446	1669.838193670229	3
0	9447	1670.035535873974	2
0	9452	1670.51424655802	1
0	9457	1670.520350544696	0
0	9487	1673.749814928112	1
0	9489	1674.053124010475	2
0	9491	1674.655913507855	3
0	9492	1674.875989846265	2
0	9497	1675.417188671555	1
0	9506	1676.662079228722	0
0	9524	1678.227816757089	1
0	9526	1678.352630374086	2
0	9529	1678.699809307378	3
0	9534	1680.28483856231	2
0	9539	1680.548428322484	1
0	9545	1680.999974012334	2
0	9546	1681.90468707855	1
0	9551	1683.001164895749	0
0	9557	1683.471188997023	1
0	9563	1683.713650425428	2
0	9566	1683.835147988671	1
0	9571	1684.806810390382	0
0	9580	1686.861633861427	1
0	9581	1687.223634057545	0
0	9588	1687.519147919578	1
0	9591	1687.820892533241	0
0	9609	1690.536984661	1
0	9610	1691.064579682567	0
0	9616	1691.287204583624	1
0	9617	1692.663803822589	0
0	9628	1693.373202677152	1
0	9630	1693.64330584597	2
0	9635	1695.210296418793	1
0	9640	1695.685039685788	0
0	9651	1696.503379172471	1
0	9652	1696.907119947711	0
0	9663	1697.145119587787	1
0	9666	1697.793702602487	2
0	9672	1698.725487352527	1
0	9677	1698.763112305033	0
0	9690	1699.857692507914	1
0	9694	1700.433841459085	2
0	9695	1700.811437111792	1
0	9702	1702.044244407808	0
0	9708	1702.295546880414	1
0	9710	1702.653493353026	0
0	9714	1703.659228898588	1
0	9716	1703.746022931334	2
0	9719	1703.836846396342	1
0	9725	1706.225718990202	0
0	9731	1708.422223808764	1
0	9733	1709.230973874133	2
0	9734	1709.232132493967	1
0	9738	1709.983536364329	2
0	9745	1712.188199608675	1
0	9750	1712.625363654024	0
0	9797	1719.0241673885	1
0	9799	1719.646044789836	2
0	9804	1721.213953877512	1
0	9809	1722.361710986781	0
0	9822	1724.1637129603	1
0	9824	1725.702651729089	2
0	9826	1726.09637775533	1
0	9832	1726.538299058395	0
0	9852	1729.596124743879	1
0	9856	1730.149847609291	2
0	9857	1731.806073568924	1
0	9862	1731.978338974493	0
0	9897	1736.780345915342	1
0	9900	1737.236786527996	2
0	9901	1739.533981892545	1
0	9907	1739.777261293496	2
0	9908	1739.930254396633	1
0	9912	1740.377673031243	2
0	9914	1740.472081959989	3
0	9918	1742.162505201589	4
0	9924	1744.156312830437	3
0	9930	1744.182068659988	4
0	9932	1744.300886675259	5
0	9933	1744.44249240254	4
0	9938	1744.477929741807	3
0	9943	1744.538790066961	2
0	9949	1746.602961842519	1
0	9953	1747.854384202341	2
0	9957	1749.016400425146	3
0	9958	1749.458121103305	2
0	9962	1750.104056603149	3
0	9965	1750.44421725492	2
0	9972	1752.15086003095	1
0	9980	1753.039780235303	2
0	9981	1753.153965798638	1
0	9986	1753.341478474069	0
0	10002	1753.810313598812	1
0	10004	1754.002919427691	2
0	10006	1755.007494926606	1
0	10016	1756.55789443989	0
0	10020	1756.873103152428	1
0	10025	1757.41226302293	2
0	10034	1760.379712876502	1
0	10039	1760.501648595275	0
0	10063	1762.07968318006	1
0	10064	1762.263852556622	0
0	10070	1762.462623352203	1
0	10073	1762.725895150856	2
0	10074	1763.233609299122	1
0	10079	1763.711406583912	0
0	10092	1768.674168280195	1
0	10094	1769.105541981631	2
0	10095	1769.23247921793	1
0	10100	1769.618347370133	0
0	10104	1769.921482392138	1
0	10108	1770.156345322108	2
0	10109	1770.217107482986	1
0	10117	1772.108870866107	0
0	10124	1772.372140582447	1
0	10125	1772.613311939311	0
0	10150	1774.260863169649	1
0	10153	1774.90492675643	0
0	10164	1775.6061725969	1
0	10166	1776.564091619517	0
0	10172	1776.952755839469	1
0	10173	1777.106160063993	0
0	10190	1778.313022494822	1
0	10193	1779.811426457796	2
0	10195	1780.058620857851	1
0	10200	1780.622369708841	0
0	10215	1781.865337189283	1
0	10218	1782.666490244931	0
0	10225	1782.898390373385	1
0	10227	1783.014798097949	0
0	10245	1784.170268929449	1
0	10249	1785.865292376358	2
0	10250	1786.493675962697	1
0	10256	1786.890613413013	0
0	10272	1788.193298225591	1
0	10273	1788.230484292778	0
0	10287	1790.463753474664	1
0	10288	1790.762048251235	0
0	10331	1795.263773671012	1
0	10333	1795.700537090395	0
0	10349	1797.910803233946	1
0	10350	1798.220156000929	0
0	10429	1821.182750087365	1
0	10430	1824.11602331315	0
0	10444	1824.84680777452	1
0	10445	1825.640787189605	0
0	10475	1829.571981105392	1
0	10481	1831.595971955517	0
0	10615	1849.904496246679	1
0	10616	1850.01250326035	0
0	10624	1850.404598482046	1
0	10626	1850.785547897201	2
0	10627	1851.327163969818	1
0	10633	1851.717162929828	0
0	10682	1862.36703010298	1
0	10683	1862.663974940125	0
0	10703	1865.818076900032	1
0	10705	1865.861258783529	2
0	10706	1866.0690000273	1
0	10713	1867.38156635901	0
0	10744	1872.41982564009	1
0	10746	1873.116753129789	0
0	10770	1875.121980904823	1
0	10772	1875.576012143959	2
0	10778	1877.512772649875	3
0	10779	1877.867541215933	2
0	10786	1877.89629180107	3
0	10787	1878.534942654353	2
0	10792	1879.296968558233	1
0	10798	1880.789655813123	0
0	10815	1882.967859591123	1
0	10816	1884.464685590487	0
0	10827	1885.584871000406	1
0	10829	1885.922230732596	2
0	10831	1889.817911901883	1
0	10837	1890.272815962041	0
0	10849	1891.417188554821	1
0	10851	1891.428259943448	2
0	10853	1891.533211158217	3
0	10857	1892.112301509352	4
0	10858	1892.128903962245	3
0	10863	1892.427000311969	2
0	10871	1893.328759832403	1
0	10877	1893.623108627603	0
0	10883	1894.941388512383	1
0	10885	1895.343779917424	2
0	10886	1895.442043744493	1
0	10895	1895.979748398966	0
0	10928	1898.848215626007	1
0	10929	1899.164229179261	0
0	10945	1900.966479737214	1
0	10948	1901.576397196989	0
0	10971	1905.405761200447	1
0	10972	1905.811411259267	0
0	10985	1910.61478960253	1
0	10990	1911.639903109834	0
0	10999	1914.215689303377	1
0	11001	1914.72023760284	0
0	11012	1914.950707128854	1
0	11013	1915.262071779228	0
0	11020	1916.382519249461	1
0	11024	1917.303146308519	0
0	11030	1917.620796799605	1
0	11039	1920.501996099188	0
0	11085	1925.686795789224	1
0	11086	1927.079232751365	0
0	11114	1931.419287131717	1
0	11116	1932.135560475434	2
0	11122	1934.144986569657	3
0	11131	1939.086384199041	4
0	11134	1939.522140497401	3
0	11140	1939.713100155858	2
0	11145	1940.446617694055	1
0	11151	1941.452451423972	0
0	11163	1941.822668054528	1
0	11166	1942.121271036653	2
0	11168	1942.262435663209	3
0	11170	1943.022448970358	4
0	11172	1943.845683270935	3
0	11177	1944.148516295355	2
0	11181	1944.397129683931	3
0	11187	1945.423164463311	4
0	11188	1945.655087227515	3
0	11195	1946.841213254656	2
0	11200	1948.392519468647	1
0	11205	1950.710856564855	0
0	11301	1964.090829737237	1
0	11302	1966.453549862513	0
0	11308	1966.903143161842	1
0	11309	1967.167942293176	0
0	11315	1967.439022269691	1
0	11316	1967.607987122231	0
0	11352	1976.143604673987	1
0	11354	1976.167967321267	2
0	11358	1977.710331840718	1
0	11366	1978.438413629337	0
0	11378	1979.073317756126	1
0	11379	1979.234980059166	0
0	11398	1981.498249279935	1
0	11400	1982.021836713043	0
0	11432	1987.261326121769	1
0	11437	1988.01460527785	2
0	11439	1988.07204048882	3
0	11442	1988.277415573474	2
0	11448	1988.489689705515	3
0	11451	1991.129297513646	2
0	11457	1991.604966889739	1
0	11462	1991.785448536979	0
0	11475	1993.475414727078	1
0	11476	1994.374376549749	0
0	11489	1996.872485225116	1
0	11491	1997.247684705469	0
0	11525	2006.65767565962	1
0	11526	2007.166036309759	0
0	11548	2011.062949610386	1
0	11553	2011.646796908225	0
0	11573	2013.919518167526	1
0	11576	2014.495508982339	0
0	11638	2028.037766491647	1
0	11639	2028.18109780784	0
0	11690	2037.438270655433	1
0	11692	2037.849359333636	0
0	11725	2041.632538507408	1
0	11727	2042.497073379543	2
0	11728	2042.847339488714	1
0	11734	2043.249938922579	2
0	11735	2043.539764226997	1
0	11740	2043.617560104724	0
0	11749	2044.406124758979	1
0	11751	2044.903370737634	2
0	11752	2045.501712248569	1
0	11758	2046.960838285915	2
0	11762	2047.847483734939	1
0	11768	2048.566245350446	2
0	11769	2048.849112603918	1
0	11773	2049.186888463558	2
0	11776	2049.384134716425	1
0	11783	2051.641045172397	0
0	11787	2051.905015733947	1
0	11789	2051.987979215135	2
0	11792	2052.291482186396	1
0	11800	2053.277946305069	2
0	11801	2053.634976744756	1
0	11808	2054.42028871695	0
0	11844	2060.189121003471	1
0	11845	2061.194317147154	0
0	11890	2068.363328601638	1
0	11891	2068.967216806077	0
0	11900	2069.857192188565	1
0	11908	2072.603353030443	0
0	11924	2076.374838266207	1
0	11926	2077.636654458277	2
0	11928	2077.730083503519	3
0	11930	2077.753449571035	4
0	11932	2079.227335509956	5
0	11937	2079.710066400688	4
0	11943	2080.459425973216	3
0	11950	2081.078851217603	2
0	11956	2081.20784347582	1
0	11966	2082.632040436722	0
0	11977	2083.035911166483	1
0	11978	2083.415060767789	0
0	11982	2083.693090142112	1
0	11985	2084.208099713649	0
0	11998	2085.164119321647	1
0	12002	2085.676526208169	0
0	12014	2086.437818815424	1
0	12015	2086.803467909716	0
0	12029	2088.390359081398	1
0	12031	2088.536149856357	0
0	12042	2091.209240701735	1
0	12047	2092.774474524219	0
0	12078	2100.078773305144	1
0	12079	2100.610353558546	0
0	12111	2109.361249162132	1
0	12113	2109.878504618614	2
0	12116	2111.347901675344	3
0	12118	2111.536903287151	4
0	12120	2111.849075550349	5
0	12121	2111.858984252841	4
0	12126	2112.107039140151	3
0	12133	2112.663458749853	2
0	12138	2112.894258542349	1
0	12143	2113.214798749087	0
0	12154	2113.412941053968	1
0	12155	2113.569969750396	0
0	12174	2117.552356825908	1
0	12175	2119.228487343739	0
0	12240	2132.669020912921	1
0	12242	2133.052682519446	2
0	12244	2133.203959584227	3
0	12245	2133.332334802652	2
0	12250	2134.033226673037	1
0	12256	2136.464333881141	0
0	12329	2151.089476458818	1
0	12332	2151.187375990029	2
0	12337	2152.579244511297	3
0	12339	2152.827528722583	2
0	12348	2153.826057965838	1
0	12353	2153.851493750048	0
0	12359	2154.855576737598	1
0	12361	2155.072071676698	2
0	12363	2155.337286720796	3
0	12364	2156.264068955069	2
0	12369	2156.869758540159	1
0	12373	2157.883294169377	2
0	12376	2158.76892706071	1
0	12380	2158.892670740209	2
0	12383	2159.103684222295	1
0	12388	2159.614161019169	0
0	12429	2163.721762356291	1
0	12431	2164.042027660457	2
0	12433	2164.444209295205	3
0	12434	2165.182627391948	2
0	12440	2165.868739863829	1
0	12445	2166.227214939995	0
0	12449	2166.278532944533	1
0	12451	2166.396926073282	2
0	12453	2166.448482875082	3
0	12458	2169.031125940909	2
0	12462	2169.598624102539	3
0	12467	2171.3232309164	2
0	12474	2171.847840241234	3
0	12475	2171.889838074752	2
0	12480	2172.745058443725	1
0	12484	2172.762181100534	2
0	12486	2173.366058507705	3
0	12490	2173.923872441048	4
0	12494	2174.80320281897	5
0	12499	2175.555600429311	4
0	12503	2176.492190173753	5
0	12508	2179.22640162586	4
0	12512	2179.35279096737	5
0	12515	2181.205868887842	4
0	12524	2182.198820533807	3
0	12528	2182.287140384772	4
0	12536	2185.218741142667	5
0	12537	2185.373134787722	4
0	12544	2186.0985241201	5
0	12545	2188.046030489177	4
0	12550	2188.053936998391	3
0	12556	2188.1267562373	4
0	12558	2188.130371865371	5
0	12559	2188.389332575882	4
0	12563	2188.637475865201	5
0	12569	2192.704144918123	4
0	12574	2192.996953386624	3
0	12578	2193.156529015657	4
0	12580	2193.193877005573	5
0	12583	2194.719882546347	4
0	12589	2196.972147242853	5
0	12591	2197.953742752502	6
0	12593	2199.006359264266	7
0	12595	2199.100527991845	8
0	12597	2199.766734158182	9
0	12600	2200.823892995999	8
0	12604	2202.560322568418	9
0	12609	2205.032147312297	8
0	12613	2205.58344642948	9
0	12615	2206.208099086397	10
0	12618	2207.04443101605	9
0	12624	2207.49088035041	8
0	12630	2207.984663641143	9
0	12631	2209.699870218189	8
0	12636	2210.356273326534	7
0	12641	2211.457251040033	6
0	12648	2213.174398687602	5
0	12654	2215.484948714809	6
0	12657	2216.271325293977	7
0	12659	2216.635192227839	6
0	12664	2217.025808431287	5
0	12669	2217.081873749523	4
0	12673	2217.177327904889	5
0	12678	2219.832029725896	4
0	12684	2221.364634064389	5
0	12686	2221.992178531031	6
0	12693	2225.183762764703	7
0	12694	2225.622030478351	6
0	12701	2225.829691153613	7
0	12703	2227.070515117803	8
0	12705	2227.80626907958	9
0	12706	2227.969033862679	8
0	12711	2227.978098842193	7
0	12716	2229.595833348864	6
0	12720	2230.33221783473	7
0	12725	2230.693011254191	8
0	12726	2232.590743510523	7
0	12731	2232.632834221488	6
0	12736	2232.929413252793	5
0	12741	2233.735835456924	4
0	12746	2234.301485704702	3
0	12752	2235.075171513854	4
0	12757	2237.261863827932	3
0	12762	2240.243908947277	2
0	12766	2240.408637007646	3
0	12769	2240.721987399614	2
0	12774	2241.154836801702	1
0	12778	2241.552937067519	2
0	12785	2243.344795862291	3
0	12786	2243.940507245253	2
0	12793	2244.742848397938	1
0	12801	2245.188154752349	0
0	12830	2246.793948199555	1
0	12832	2246.823187943907	2
0	12834	2247.080598163089	3
0	12838	2249.219706145353	4
0	12839	2249.897596849086	3
0	12844	2250.169247359392	2
0	12850	2250.449027198683	3
0	12853	2250.878788355464	2
0	12858	2251.171261920063	1
0	12864	2251.357858533155	0
0	12898	2256.375439757614	1
0	12899	2256.535880035143	0
0	12907	2256.798573929038	1
0	12908	2257.278216529355	0
0	12914	2257.586034464596	1
0	12918	2257.825984401805	2
0	12924	2258.976330100225	1
0	12931	2260.228211036	0
0	12950	2263.891152512298	1
0	12957	2266.153904260849	0
0	12963	2266.707359917112	1
0	12964	2266.956655092269	0
0	12988	2269.277582076463	1
0	12991	2270.983543091965	0
0	12997	2271.14017016793	1
0	12998	2271.232139686657	0
0	13009	2273.828725755677	1
0	13011	2274.982027825891	2
0	13013	2275.320379751488	3
0	13015	2275.374630884907	4
0	13017	2276.254461599049	5
0	13021	2280.264435245749	6
0	13022	2280.995863249717	5
0	13027	2282.497708619911	4
0	13031	2283.07248061665	5
0	13034	2283.644297309293	4
0	13043	2284.63223220064	3
0	13048	2285.288240540634	2
0	13053	2286.515712119583	1
0	13057	2287.283820865396	2
0	13059	2290.706492064888	3
0	13061	2290.823064917547	4
0	13063	2291.656953637869	5
0	13065	2292.086958599918	6
0	13070	2294.142890244333	7
0	13075	2296.021551576906	6
0	13080	2296.183600526811	5
0	13086	2296.602924084386	6
0	13088	2296.757491497783	7
0	13090	2296.99310794945	8
0	13096	2298.403623250415	7
0	13102	2298.960126548527	8
0	13106	2299.930731602933	7
0	13112	2300.874645403591	8
0	13113	2301.109818810158	7
0	13118	2301.117748000849	6
0	13124	2301.898792038078	7
0	13126	2302.156021095004	8
0	13127	2302.348775482421	7
0	13132	2302.670569569491	6
0	13137	2303.553963050959	5
0	13142	2304.188599045941	4
0	13147	2304.778861035829	3
0	13151	2304.91876206373	4
0	13153	2306.527055157631	5
0	13155	2307.146795748605	6
0	13157	2307.222769720348	7
0	13162	2310.899419070561	6
0	13168	2314.988661473072	5
0	13178	2315.869739059728	6
0	13179	2316.095554740536	5
0	13185	2316.387532348591	6
0	13186	2317.699683217316	5
0	13193	2318.010516695109	4
0	13198	2319.800499309026	3
0	13204	2320.404941977809	4
0	13207	2320.781638029256	3
0	13212	2321.250783857254	2
0	13217	2321.400530176154	1
0	13223	2323.515267676479	2
0	13225	2323.658293150702	1
0	13232	2324.910191772611	0
0	13274	2327.917558755443	1
0	13276	2328.034150067705	2
0	13278	2328.069997627818	3
0	13286	2331.444982871144	4
0	13290	2332.648714478426	3
0	13296	2332.746036584806	4
0	13298	2332.819890071277	5
0	13302	2333.722767100276	6
0	13303	2333.800585225162	5
0	13315	2336.60772503991	6
0	13319	2338.052854515616	7
0	13320	2338.243659346372	6
0	13326	2338.993097292572	5
0	13332	2339.758716902578	6
0	13333	2340.326099532908	5
0	13339	2340.398628208667	6
0	13342	2341.218080278044	7
0	13345	2342.755349067763	6
0	13353	2343.735290080537	5
0	13358	2344.32809551847	4
0	13363	2344.409697269619	3
0	13369	2344.682729531388	2
0	13374	2344.819270039575	1
0	13379	2344.893844596193	0
0	13383	2344.906764612756	1
0	13387	2346.956800419043	2
0	13389	2347.339083809	3
0	13392	2348.194635893692	2
0	13397	2348.864390189996	1
0	13404	2350.603339064522	0
0	13430	2355.134916683775	1
0	13432	2355.677163563429	2
0	13434	2356.238596457249	1
0	13439	2357.817039254192	0
0	13443	2358.014180858688	1
0	13448	2360.399661353962	0
0	13452	2360.969270441152	1
0	13455	2361.213911628928	0
0	13461	2362.041387281161	1
0	13462	2362.60289954595	0
0	13479	2365.452193746636	1
0	13488	2368.260529510759	2
0	13489	2368.359722491661	1
0	13494	2368.445845493713	0
0	13515	2369.882951213175	1
0	13516	2369.945866634447	0
0	13556	2375.982871348837	1
0	13560	2376.263685746243	2
0	13562	2377.382692888295	3
0	13566	2378.206553872693	4
0	13574	2379.59613281708	5
0	13575	2380.723897892297	4
0	13582	2380.823379882632	5
0	13583	2381.659564043356	4
0	13588	2381.692447931362	3
0	13595	2383.101842382866	2
0	13600	2383.781210910946	1
0	13606	2384.460574435681	2
0	13608	2384.672770204006	1
0	13616	2385.230083220663	0
0	13632	2386.830619822288	1
0	13634	2387.179314829909	0
0	13660	2389.965687496256	1
0	13661	2391.094939180495	0
0	13668	2391.49744612724	1
0	13669	2391.869564473765	0
0	13675	2392.801540945564	1
0	13676	2393.010356072747	0
0	13737	2398.503573454068	1
0	13740	2398.668301736333	2
0	13743	2399.737275378178	3
0	13746	2400.5694675748	2
0	13752	2401.272001464952	1
0	13758	2401.327722671836	2
0	13760	2401.592706715832	1
0	13766	2402.026394790685	0
0	13806	2405.972294059992	1
0	13807	2406.481064965469	0
0	13833	2410.03637150648	1
0	13834	2410.731443128437	0
0	13860	2412.283830059544	1
0	13863	2412.441387648929	0
0	13869	2413.126299810416	1
0	13871	2413.752088705824	0
0	13892	2415.773615999863	1
0	13893	2416.028944817245	0
0	13910	2416.968199354992	1
0	13911	2417.192582413461	0
0	13918	2417.700144157408	1
0	13922	2418.897351449813	0
0	14019	2436.318404682099	1
0	14021	2436.717878020384	2
0	14022	2438.616325098382	1
0	14027	2438.715675232682	0
0	14105	2452.082066584144	1
0	14106	2453.113800638097	0
0	14133	2463.127973344586	1
0	14135	2463.541504678185	2
0	14140	2466.841329060337	1
0	14148	2467.514458824599	0
0	14154	2468.302393292551	1
0	14157	2469.075378592062	0
0	14168	2469.577977890054	1
0	14169	2469.633212060213	0
0	14183	2470.523607774596	1
0	14184	2470.96599480685	0
0	14258	2486.023295975201	1
0	14259	2486.131342934561	0
0	14272	2487.254744964958	1
0	14273	2487.276409388221	0
0	14284	2489.474854454629	1
0	14288	2491.764871188909	0
0	14294	2494.630555599279	1
0	14295	2495.079328489834	0
0	14299	2495.199441914803	1
0	14301	2495.868346353114	2
0	14303	2496.17510118794	3
0	14310	2500.636986300533	2
0	14314	2500.674833685062	3
0	14317	2500.953767685707	2
0	14328	2501.908240133912	1
0	14335	2502.948869773604	0
0	14341	2503.160329722288	1
0	14344	2506.342448525778	0
0	14376	2509.750339573752	1
0	14379	2510.694868808007	2
0	14382	2511.649617414997	1
0	14391	2512.219479234372	0
0	14413	2515.769166084133	1
0	14414	2515.998657377803	0
0	14420	2516.01231870534	1
0	14423	2516.338315434395	2
0	14425	2517.650958441084	1
0	14431	2518.012004399834	0
0	14437	2518.507311517985	1
0	14440	2519.255247850343	2
0	14441	2519.362572738344	1
0	14446	2519.510529790566	0
0	14503	2532.268362509887	1
0	14505	2533.130619615059	0
0	14533	2538.209723448543	1
0	14534	2538.738243333653	0
0	14540	2539.377821448439	1
0	14541	2539.903821121847	0
0	14573	2545.069681257108	1
0	14574	2545.818459665872	0
0	14611	2556.800227088382	1
0	14614	2556.851874625686	0
0	14626	2557.817363957941	1
0	14633	2559.054904409354	2
0	14634	2559.800681619829	1
0	14639	2560.30958817172	0
0	14645	2560.746124675347	1
0	14646	2560.963368725943	0
0	14653	2561.475616918036	1
0	14654	2561.724760729851	0
0	14684	2569.614981811929	1
0	14686	2570.088243967013	2
0	14687	2570.497751362386	1
0	14692	2570.522443678294	0
0	14709	2571.618511094882	1
0	14712	2572.129470406204	0
0	14721	2572.381752535719	1
0	14722	2572.394092595686	0
0	14755	2577.012288288288	1
0	14757	2577.66397418874	0
0	14798	2587.170740489094	1
0	14801	2588.810442673159	0
0	14823	2593.407152375103	1
0	14824	2593.523624181339	0
0	14840	2595.214180292377	1
0	14841	2595.450723518475	0
0	14849	2595.951699750979	1
0	14850	2596.020235342897	0
0	14856	2596.558946408288	1
0	14857	2596.881432430456	0
0	14870	2597.112474845371	1
0	14875	2598.156035742753	2
0	14877	2598.478827123922	1
0	14884	2600.087114266324	0
0	14902	2601.528649623798	1
0	14903	2601.772360179169	0
0	14909	2602.516082242057	1
0	14911	2602.599748055414	2
0	14917	2603.620175901952	3
0	14921	2604.22888880712	4
0	14922	2604.300628244699	3
0	14930	2605.865782298206	2
0	14935	2606.675357011713	1
0	14942	2609.036165014034	0
0	14965	2611.828641314587	1
0	14966	2612.208020067006	0
0	15021	2622.599440206158	1
0	15024	2623.381568602428	0
0	15040	2626.160574224976	1
0	15042	2626.282324794769	2
0	15043	2626.309094710318	1
0	15049	2626.650971967598	0
0	15062	2628.394054674782	1
0	15064	2628.628650938663	2
0	15069	2629.338890373462	3
0	15070	2630.283561904242	2
0	15078	2630.875289916431	1
0	15083	2631.665192946826	0
0	15098	2633.55975265349	1
0	15099	2634.451708078758	0
0	15114	2636.898713404135	1
0	15116	2636.934298233359	2
0	15117	2637.524009074431	1
0	15122	2637.954514685876	0
0	15143	2640.343888210738	1
0	15144	2640.982724305573	0
0	15162	2647.292571158817	1
0	15166	2648.709167024081	2
0	15167	2649.171665153049	1
0	15171	2649.273237775414	2
0	15176	2650.91972900223	1
0	15180	2651.413665576182	2
0	15183	2659.177842460102	1
0	15187	2659.53103742287	2
0	15189	2659.569006568528	3
0	15196	2662.427781742987	4
0	15197	2662.831154722063	3
0	15202	2663.040862243096	2
0	15206	2663.814690889182	3
0	15208	2664.323038543732	4
0	15212	2664.617567517993	5
0	15213	2664.658996186955	4
0	15217	2665.025376311886	5
0	15221	2665.759532300752	4
0	15228	2665.923218853195	3
0	15237	2667.529787777965	4
0	15238	2667.621301006552	3
0	15244	2667.729642048095	2
0	15251	2668.332366778157	1
0	15257	2669.227123621636	0
0	15293	2674.940681415989	1
0	15296	2675.721745142372	2
0	15299	2675.843871595506	3
0	15300	2676.126604662793	2
0	15307	2678.519903038696	3
0	15308	2678.597987495658	2
0	15314	2678.609740006243	3
0	15315	2678.650682987861	2
0	15321	2678.808257794356	3
0	15322	2678.85824694416	2
0	15327	2679.154950529076	1
0	15337	2680.692900032375	0
0	15348	2680.912875663705	1
0	15352	2681.367130176198	2
0	15357	2682.805683319745	3
0	15360	2683.319628540056	4
0	15363	2684.033656820682	5
0	15365	2684.932642134133	6
0	15366	2685.419895095612	5
0	15372	2685.689007985324	6
0	15373	2686.263309929411	5
0	15379	2686.408341597219	6
0	15380	2686.758285066924	5
0	15385	2686.8160490542	4
0	15391	2687.652950814553	3
0	15397	2687.969212480566	4
0	15398	2688.199980532511	3
0	15405	2688.429342085114	4
0	15409	2689.229578754538	3
0	15414	2689.760713633451	2
0	15423	2690.076454948633	3
0	15424	2690.113110510409	2
0	15429	2690.869929628735	1
0	15436	2693.43692324703	0
0	15444	2695.465270247972	1
0	15445	2695.51297709197	0
0	15459	2697.804960415937	1
0	15460	2698.614186321227	0
0	15471	2698.921918099169	1
0	15473	2699.480416572282	0
0	15548	2714.723056558908	1
0	15549	2714.76782038934	0
0	15559	2715.5914024797	1
0	15560	2716.469893193958	0
0	15576	2718.111861001742	1
0	15578	2718.639575175123	2
0	15579	2718.922436268956	1
0	15586	2722.154576515967	0
0	15599	2723.353763033612	1
0	15600	2723.363845000834	0
0	15633	2733.297388843878	1
0	15634	2733.337687097159	0
0	15661	2738.151086213058	1
0	15664	2738.485964151227	0
0	15675	2742.273512851072	1
0	15681	2746.981051669604	2
0	15682	2747.022339059692	1
0	15688	2748.689332254282	0
0	15699	2748.963329983911	1
0	15702	2749.447817238465	2
0	15704	2749.932563588996	3
0	15713	2752.703962334049	2
0	15719	2753.262806646314	1
0	15725	2753.813506353693	0
0	15736	2754.904469985413	1
0	15738	2756.116940734418	0
0	15744	2757.54735128019	1
0	15746	2758.447673174567	2
0	15747	2758.918622457609	1
0	15753	2759.554758024709	2
0	15754	2759.694457484158	1
0	15758	2759.871196211226	2
0	15761	2762.334626595527	1
0	15767	2762.631674892446	2
0	15773	2764.804072471861	3
0	15774	2765.426348129791	2
0	15779	2765.891300854694	1
0	15785	2766.290737767075	2
0	15786	2766.582932828885	1
0	15790	2766.768710492926	2
0	15792	2766.820773737663	3
0	15799	2767.961022784182	2
0	15804	2769.489466189122	1
0	15808	2769.714730656989	2
0	15810	2770.631708507002	3
0	15815	2772.219198877357	2
0	15820	2772.320159414612	1
0	15828	2773.666478319571	2
0	15831	2775.504008471777	1
0	15839	2775.99022085577	2
0	15840	2776.369924602885	1
0	15847	2778.610904858849	0
0	15873	2781.410426979489	1
0	15875	2782.100011419451	0
0	15904	2784.160526105699	1
0	15906	2784.404500142014	2
0	15908	2784.773655239828	1
0	15914	2784.847659433326	0
0	15926	2785.26759266017	1
0	15927	2786.225754380989	0
0	15931	2786.522959261399	1
0	15933	2786.652010396186	2
0	15939	2787.370826684406	3
0	15944	2788.456898302962	4
0	15945	2789.155518444696	3
0	15950	2789.165024680326	2
0	15955	2789.555245612037	1
0	15960	2789.919719244323	0
0	15964	2790.217567845981	1
0	15969	2793.601181308424	0
0	15973	2793.936991607927	1
0	15976	2794.84471145232	0
0	16004	2798.59108565227	1
0	16008	2799.575892194388	0
0	16014	2800.442860818444	1
0	16015	2802.300152595975	0
0	16019	2802.324670894268	1
0	16025	2802.590999032348	2
0	16026	2803.20526433803	1
0	16032	2806.642958498587	2
0	16036	2807.895789243713	3
0	16038	2807.952353598364	4
0	16040	2808.337843013726	3
0	16047	2809.102312955235	2
0	16052	2810.221817208526	1
0	16056	2811.591194281168	2
0	16061	2812.164415562468	3
0	16062	2812.165748623595	2
0	16068	2812.778764364259	1
0	16075	2813.131481699966	0
0	16086	2818.029566974431	1
0	16092	2818.877228745981	2
0	16097	2819.57492802685	3
0	16098	2819.719652535943	2
0	16106	2820.232179378909	3
0	16108	2820.727170965551	4
0	16109	2820.977396567351	3
0	16115	2821.084203530126	2
0	16120	2822.086661775562	1
0	16126	2824.396648526052	0
0	16143	2826.306374542522	1
0	16145	2826.393109740267	0
0	16205	2836.110176614478	1
0	16207	2837.871430107662	0
0	16223	2840.5489196171	1
0	16225	2840.809152007754	2
0	16230	2841.723067255967	1
0	16237	2842.265584637854	2
0	16239	2842.489972890291	3
0	16242	2843.76493172435	2
0	16248	2844.338483474643	1
0	16256	2845.20043186064	2
0	16259	2845.96136705484	3
0	16260	2847.342075556411	2
0	16270	2849.089671359122	3
0	16271	2849.240507879536	2
0	16281	2850.811290601436	1
0	16287	2851.259124641214	0
0	16312	2853.841790931779	1
0	16316	2854.052006230615	2
0	16317	2855.238353476647	1
0	16322	2855.393175177196	0
0	16350	2860.203308281519	1
0	16351	2861.290877688236	0
0	16357	2861.344341925347	1
0	16359	2861.470859007158	2
0	16365	2862.032707442104	3
0	16366	2862.344141041244	2
0	16371	2862.573489053378	1
0	16376	2862.582480663052	0
0	16405	2866.031173990169	1
0	16410	2867.357915372357	2
0	16411	2867.479485491092	1
0	16417	2867.618048223011	2
0	16420	2868.251700425377	3
0	16424	2870.69494183834	4
0	16425	2872.179205838022	3
0	16433	2872.763086087624	2
0	16438	2872.778114490639	1
0	16445	2874.135054446939	0
0	16458	2876.348400546095	1
0	16459	2876.474383112983	0
0	16492	2883.099067712048	1
0	16493	2883.343931111772	0
0	16517	2886.088495917664	1
0	16523	2887.47383073173	2
0	16525	2889.636850834787	1
0	16530	2889.782998470945	0
0	16553	2892.222443626533	1
0	16556	2892.84124403128	2
0	16558	2892.95262692391	3
0	16560	2895.431333750119	4
0	16562	2896.342151762254	5
0	16564	2896.512062847424	6
0	16565	2896.654392187282	5
0	16571	2897.156631093479	6
0	16572	2897.186008760506	5
0	16579	2897.523660836598	4
0	16584	2897.7906094766	3
0	16589	2898.199642244979	2
0	16593	2899.013665842681	3
0	16595	2899.205048610435	4
0	16597	2899.490879843776	5
0	16599	2899.917194380608	6
0	16603	2901.101034479097	7
0	16616	2904.457537840025	6
0	16621	2904.899393524097	5
0	16627	2905.202369602232	6
0	16628	2905.589207727091	5
0	16635	2906.510578862284	6
0	16636	2907.387797701238	5
0	16642	2907.65388972178	4
0	16647	2908.273326062487	3
0	16653	2908.631427391629	4
0	16654	2908.783422834289	3
0	16658	2909.334185633357	4
0	16661	2910.52518932661	3
0	16667	2911.08023514269	4
0	16670	2912.41896351481	3
0	16675	2913.064537038761	2
0	16680	2913.087488428391	1
0	16684	2913.222674133913	2
0	16688	2914.325949119574	3
0	16689	2914.331151085833	2
0	16701	2916.601820503316	3
0	16703	2917.08845812051	2
0	16708	2917.185979856446	1
0	16713	2918.406707094459	0
0	16746	2919.7981153184	1
0	16748	2920.732009024539	2
0	16750	2921.28366545285	1
0	16756	2921.351282684578	2
0	16762	2922.121526747872	1
0	16769	2922.527378594967	0
0	16782	2924.123289696073	1
0	16784	2924.3019653908	2
0	16786	2924.930343242171	1
0	16792	2925.306249579694	2
0	16793	2925.320755933225	1
0	16798	2925.485146956156	0
0	16811	2926.346677865084	1
0	16813	2927.689529473599	0
0	16847	2931.249431449811	1
0	16848	2933.361464981744	0
0	16862	2936.211148667977	1
0	16864	2937.058021232563	2
0	16866	2938.439336436403	3
0	16867	2938.702904060486	2
0	16873	2939.047642263447	3
0	16875	2939.918855615973	2
0	16880	2939.999480667019	1
0	16885	2940.162008001996	0
0	16917	2947.246935809364	1
0	16918	2947.392765473222	0
0	16941	2951.922172264191	1
0	16942	2952.0868466455	0
0	16981	2957.939428355135	1
0	16984	2958.38008443744	0
0	16993	2958.746328564486	1
0	16995	2958.900730672774	2
0	17002	2959.901693815479	3
0	17003	2961.553588020393	2
0	17008	2962.172990514272	1
0	17013	2962.800481769667	0
0	17046	2967.978681170949	1
0	17047	2968.508064496998	0
0	17068	2971.140420606658	1
0	17070	2971.64674822958	0
0	17087	2974.137039185772	1
0	17093	2975.019285092944	0
0	17099	2975.073971274312	1
0	17100	2975.118581199512	0
0	17132	2978.61031756623	1
0	17133	2979.923475984493	0
0	17158	2986.083127468375	1
0	17159	2986.621117377869	0
0	17166	2987.751984887392	1
0	17169	2988.372112005735	2
0	17172	2990.231350793366	1
0	17177	2990.387460156542	0
0	17254	2999.697867247218	1
0	17256	3000.684717956987	2
0	17258	3001.21596603847	3
0	17259	3001.218228485295	2
0	17264	3001.32086929768	1
0	17269	3001.338900923583	0
0	17273	3001.969500555089	1
0	17279	3004.468840258003	2
0	17280	3005.539179318356	1
0	17285	3007.301062300482	0
0	17327	3014.678626508485	1
0	17330	3015.123024354294	0
0	17367	3020.540460810067	1
0	17368	3020.586529877885	0
0	17388	3022.686114268514	1
0	17389	3022.963980428362	0
0	17438	3038.671504733794	1
0	17441	3040.346057928093	2
0	17442	3040.562468885297	1
0	17447	3040.887339105949	0
0	17451	3040.892623852298	1
0	17454	3041.721794306519	0
0	17477	3044.456281606205	1
0	17479	3044.62186939724	2
0	17480	3046.166065795148	1
0	17486	3046.697936515437	2
0	17490	3047.135637683716	1
0	17495	3047.257804915538	0
0	17508	3049.104601221998	1
0	17510	3050.848316882114	0
0	17628	3072.342670617439	1
0	17630	3072.665643845778	2
0	17631	3073.957913664005	1
0	17636	3073.980315879981	0
0	17650	3075.871332813348	1
0	17651	3075.933443859563	0
0	17657	3075.971419566548	1
0	17658	3076.159998803702	0
0	17682	3080.988279429896	1
0	17683	3081.352145666327	0
0	17748	3093.059244382773	1
0	17749	3093.198576580165	0
0	17806	3101.693823922662	1
0	17807	3102.674639294943	0
0	17813	3103.105831076884	1
0	17815	3103.574164120029	2
0	17816	3103.833131011339	1
0	17823	3104.418308107465	0
0	17897	3119.33697285637	1
0	17900	3119.700423105135	0
0	17911	3120.201166407264	1
0	17917	3123.163826884607	2
0	17920	3125.000311846596	3
0	17924	3126.881237234844	2
0	17931	3127.624754634602	3
0	17934	3128.406827381153	2
0	17940	3128.433281972238	3
0	17942	3129.208369842932	4
0	17943	3129.703929236005	3
0	17950	3131.878357353864	2
0	17956	3132.290381563364	1
0	17963	3132.624622929151	0
0	17992	3135.14057800291	1
0	17996	3138.877826510242	0
0	18016	3141.978332337666	1
0	18020	3142.870953071895	0
0	18056	3147.246158758565	1
0	18058	3147.48290261741	2
0	18062	3147.714203585511	3
0	18066	3148.075884817341	4
0	18069	3149.598193793391	5
0	18070	3149.674298816859	4
0	18082	3151.110820921303	3
0	18087	3151.255612272208	2
0	18093	3151.913649567278	1
0	18098	3152.158229626805	0
0	18109	3153.660209400105	1
0	18111	3153.791562368807	2
0	18112	3154.001030392551	1
0	18116	3154.682921407585	2
0	18119	3155.858976732667	1
0	18125	3156.971578355167	2
0	18130	3158.545041621151	1
0	18136	3161.753457392268	2
0	18137	3162.566967504936	1
0	18141	3162.710355060474	2
0	18143	3163.772827226778	3
0	18145	3164.889139412267	4
0	18149	3165.526286777443	3
0	18154	3166.515984280096	2
0	18158	3167.67385862053	3
0	18166	3169.793839007773	4
0	18171	3171.101218291002	3
0	18175	3171.632791266423	4
0	18179	3172.893015950034	5
0	18180	3173.018037414413	4
0	18185	3173.247533645539	3
0	18192	3174.341930913792	4
0	18193	3174.581498333199	3
0	18198	3174.59762166652	2
0	18203	3175.642585703227	1
0	18211	3177.095361778213	0
0	18215	3177.379625277209	1
0	18220	3178.283653122156	0
0	18242	3179.563633987347	1
0	18243	3179.565440595183	0
0	18266	3183.27305775996	1
0	18267	3183.504413327453	0
0	18288	3184.51712272208	1
0	18292	3184.853743640273	0
0	18316	3188.630757386641	1
0	18318	3188.994144633531	0
0	18356	3194.355565654371	1
0	18358	3195.078000533769	2
0	18363	3196.647383674496	3
0	18364	3196.826442749156	2
0	18370	3197.151904469269	3
0	18371	3197.249734885721	2
0	18380	3198.742703153988	1
0	18385	3198.838024060363	0
0	18392	3199.98372770334	1
0	18395	3201.001560850159	0
0	18407	3201.831207532085	1
0	18408	3202.287310082973	0
0	18425	3204.316011278954	1
0	18426	3204.394997275829	0
0	18432	3204.673038059374	1
0	18433	3205.693431048792	0
0	18441	3206.836023061888	1
0	18442	3207.459583892387	0
0	18448	3207.849904501184	1
0	18451	3209.257765348853	0
0	18468	3210.458587978394	1
0	18470	3210.556547265611	2
0	18471	3210.711888741947	1
0	18477	3210.908281355128	0
0	18483	3210.961709973477	1
0	18484	3211.331720525631	0
0	18488	3212.476038711468	1
0	18490	3212.566247682852	2
0	18492	3212.643020034543	3
0	18495	3213.39977667791	2
0	18500	3213.814644422417	1
0	18505	3214.717760161927	0
0	18538	3219.819072315079	1
0	18541	3220.484645589057	0
0	18548	3220.69575390944	1
0	18549	3220.707870208398	0
0	18560	3220.970752618345	1
0	18565	3222.424753678423	0
0	18580	3223.442405438815	1
0	18583	3225.640911357217	0
0	18592	3228.160444835973	1
0	18600	3230.575228792878	0
0	18606	3230.614326617824	1
0	18607	3230.955953855503	0
0	18624	3232.741120752825	1
0	18625	3232.895897858212	0
0	18634	3233.274328720854	1
0	18635	3233.34730739328	0
0	18648	3235.750518542767	1
0	18651	3236.233923216059	2
0	18652	3237.244383875424	1
0	18657	3238.547674984648	0
0	18673	3239.254051071375	1
0	18674	3239.351871700611	0
0	18684	3240.04264737056	1
0	18686	3240.771740156068	0
0	18698	3243.331756353585	1
0	18699	3243.447300264239	0
0	18706	3244.741698269919	1
0	18707	3244.972696653968	0
0	18713	3245.356948707663	1
0	18715	3245.680450976226	0
0	18724	3248.179309504473	1
0	18725	3248.47398472644	0
0	18776	3255.208882954182	1
0	18777	3256.847273433254	0
0	18794	3258.480359934693	1
0	18799	3260.847204010259	0
0	18810	3262.155389719464	1
0	18815	3263.496843735013	0
0	18826	3264.373892432951	1
0	18827	3264.502581893564	0
0	18838	3266.524674469719	1
0	18841	3267.023608935274	2
0	18843	3267.596258061425	1
0	18849	3267.654917388855	0
0	18873	3270.903483650087	1
0	18875	3270.903727259793	2
0	18877	3271.86527554406	3
0	18880	3272.731919367174	2
0	18885	3272.758236304299	1
0	18891	3272.81876182698	2
0	18895	3273.72399857024	3
0	18896	3273.885484485908	2
0	18901	3274.069663104119	1
0	18906	3274.440586099358	0
0	18917	3274.759921118161	1
0	18921	3275.440820724393	2
0	18922	3276.064407269055	1
0	18927	3276.478101063048	0
0	18953	3289.701406943572	1
0	18955	3290.334767805965	2
0	18956	3291.239220764457	1
0	18962	3291.452133880081	0
0	18968	3291.558600190582	1
0	18970	3291.709258439568	2
0	18972	3292.310096659251	3
0	18973	3292.54698468409	2
0	18978	3292.655232785341	1
0	18984	3293.260116517422	0
0	19008	3297.377373050325	1
0	19011	3297.644055813839	2
0	19012	3297.728376651385	1
0	19018	3298.085047054937	2
0	19020	3298.208111781709	3
0	19021	3298.97511889613	2
0	19026	3299.408967187925	1
0	19031	3299.832186679615	0
0	19055	3304.246295027044	1
0	19057	3304.320041835957	2
0	19058	3304.672349857424	1
0	19065	3305.361008391	0
0	19071	3305.539583028418	1
0	19074	3306.3844494574	0
0	19094	3308.275494037681	1
0	19096	3309.438820524459	0
0	19116	3310.989094934874	1
0	19120	3312.994337157927	0
0	19137	3315.815064803746	1
0	19138	3315.962648661475	0
0	19212	3330.325797323798	1
0	19215	3330.777708988884	0
0	19228	3334.019455605882	1
0	19233	3336.269000264227	0
0	19239	3336.326226431233	1
0	19244	3336.843660275736	2
0	19248	3338.145582636708	3
0	19250	3338.667455369032	4
0	19251	3339.095763515992	3
0	19256	3339.670864401712	2
0	19261	3339.745961330269	1
0	19268	3341.499480948922	2
0	19269	3342.203143573168	1
0	19274	3342.349615266366	0
0	19295	3343.981783963844	1
0	19303	3346.297910509485	0
0	19342	3350.608809943496	1
0	19343	3350.810420388427	0
0	19373	3354.047645498645	1
0	19376	3355.762542703153	2
0	19378	3356.290233755556	1
0	19388	3357.544963230459	2
0	19389	3357.651413335142	1
0	19397	3362.235353078284	0
0	19422	3374.651062124262	1
0	19427	3375.194588043342	2
0	19429	3375.921973157439	3
0	19431	3376.414200921717	4
0	19433	3376.659083121252	5
0	19434	3377.516238180384	4
0	19440	3378.323165864923	5
0	19441	3378.994985549457	4
0	19447	3379.424646893333	3
0	19454	3379.741080263899	4
0	19456	3380.023588109524	5
0	19457	3380.089319225563	4
0	19463	3380.481070822626	5
0	19464	3381.442925686238	4
0	19469	3381.564157673243	3
0	19475	3382.133070190212	4
0	19476	3382.438417878167	3
0	19482	3382.450843594474	4
0	19483	3384.791637915649	3
0	19487	3385.44071846916	4
0	19489	3385.627112145818	5
0	19494	3388.992903943148	4
0	19503	3390.360691412798	3
0	19508	3390.408183757579	2
0	19513	3390.468030113994	1
0	19519	3390.623296353431	2
0	19528	3393.767870579461	3
0	19531	3394.601254272847	2
0	19536	3395.091843464147	1
0	19541	3395.260166128833	0
0	19545	3395.367076063412	1
0	19547	3395.760834487573	2
0	19550	3398.04349267241	1
0	19555	3398.524980478592	0
0	19559	3398.70082084417	1
0	19562	3400.161532991175	0
0	19566	3400.574191513018	1
0	19568	3401.696147188402	2
0	19572	3403.956451137156	3
0	19574	3404.386807322522	4
0	19575	3405.060922559601	3
0	19579	3405.915282749832	4
0	19586	3407.24980898762	5
0	19588	3408.261592296857	6
0	19589	3408.366314295751	5
0	19594	3408.869476051115	4
0	19599	3409.940526262533	3
0	19605	3410.584713323383	4
0	19607	3411.784904475031	5
0	19613	3412.915168397425	6
0	19614	3413.413229211984	5
0	19618	3413.626086107261	6
0	19620	3414.031262694005	7
0	19627	3415.036264699948	6
0	19631	3416.045251046038	7
0	19635	3418.561346812705	8
0	19636	3418.858464635512	7
0	19640	3420.900299479783	8
0	19643	3421.526497010906	7
0	19648	3424.199506165128	6
0	19653	3424.403568951035	5
0	19658	3426.065698319883	4
0	19667	3427.696736057504	5
0	19668	3429.218547204226	4
0	19674	3429.31489509056	5
0	19675	3429.34877659179	4
0	19679	3430.084896932155	5
0	19681	3430.327025868878	6
0	19683	3430.741737466151	7
0	19685	3430.8647040057	8
0	19688	3430.950066633334	7
0	19697	3434.568721580173	6
0	19703	3435.564541831442	7
0	19710	3438.674182417123	8
0	19713	3439.097306317517	9
0	19721	3440.762700151267	10
0	19722	3440.764146913525	9
0	19728	3440.915932596686	8
0	19733	3441.290160735567	7
0	19738	3441.404491781253	6
0	19744	3441.709614556901	7
0	19748	3444.600682771722	6
0	19753	3444.874038432577	5
0	19759	3445.150546678659	6
0	19761	3445.333235191838	7
0	19763	3445.808182594617	8
0	19765	3447.323284200885	9
0	19767	3447.335459349429	10
0	19769	3448.490487421642	11
0	19770	3450.223307565851	10
0	19782	3453.884415633135	11
0	19783	3456.058501464654	10
0	19791	3457.545332470032	9
0	19796	3458.039444637099	8
0	19801	3458.444295264655	7
0	19808	3459.690037596003	6
0	19814	3460.987086249886	5
0	19820	3461.514612144018	4
0	19825	3461.903750089338	3
0	19830	3462.475970135827	2
0	19838	3465.403147262161	3
0	19840	3465.898552974382	4
0	19844	3466.340660960901	5
0	19852	3470.185427603648	4
0	19858	3470.86028399034	5
0	19859	3471.235350907816	4
0	19863	3472.275420344601	5
0	19867	3474.413903505375	6
0	19869	3474.453541640339	7
0	19872	3474.786843291374	6
0	19877	3475.391647503539	5
0	19883	3475.766575061218	6
0	19884	3476.280989829898	5
0	19888	3477.001364968669	6
0	19890	3477.843148514831	7
0	19893	3478.758629830695	6
0	19897	3479.186039139183	7
0	19901	3479.421091009258	6
0	19906	3479.529560593447	5
0	19912	3480.372162332177	4
0	19917	3481.003117834621	3
0	19921	3481.028475408992	4
0	19925	3482.564576658435	3
0	19930	3483.342896817135	2
0	19939	3484.018691246885	3
0	19940	3484.139514648964	2
0	19946	3485.20757218332	3
0	19948	3485.936282783848	4
0	19950	3488.370876844617	5
0	19951	3489.506423567163	4
0	19959	3492.289781858118	3
0	19964	3492.305410702973	2
0	19968	3494.304869810694	3
0	19970	3494.675243687591	4
0	19972	3495.261244704018	5
0	19974	3495.677230269532	6
0	19977	3496.251748568497	5
0	19981	3497.267674768071	6
0	19984	3498.008802971043	5
0	19989	3498.946660403233	4
0	19993	3499.98340058024	5
0	20001	3501.291569299456	6
0	20003	3501.594931849967	5
0	20011	3502.13349334503	4
0	20016	3502.230143658263	3
0	20021	3502.809764675094	2
0	20027	3504.584198961666	3
0	20029	3505.109016156524	4
0	20030	3505.856025969013	3
0	20037	3507.899658225147	2
0	20041	3508.565485146751	3
0	20046	3508.999309050633	2
0	20050	3509.599987149316	3
0	20054	3510.250705692333	4
0	20055	3510.614506822671	3
0	20060	3511.581740843381	2
0	20065	3511.823485872497	1
0	20072	3512.143234842855	0
0	20078	3512.911991578285	1
0	20079	3513.284868900796	0
0	20130	3520.6125224188	1
0	20131	3522.318065445015	0
0	20158	3526.900966967395	1
0	20161	3527.571047579945	0
0	20170	3528.398200464094	1
0	20171	3528.754479726222	0
0	20193	3530.278694767797	1
0	20194	3530.290988871751	0
0	20213	3533.707479055628	1
0	20215	3533.973385856084	2
0	20217	3534.092432544012	3
0	20218	3534.259129289635	2
0	20229	3534.859900318339	3
0	20230	3535.148733088554	2
0	20235	3535.218219843155	1
0	20240	3535.406537726449	0
0	20253	3536.490653023084	1
0	20254	3536.520053215732	0
0	20265	3538.660229255992	1
0	20269	3540.301243636865	2
0	20273	3541.308950208904	3
0	20274	3541.409996927758	2
0	20280	3542.521110554661	1
0	20286	3542.716711161967	2
0	20288	3543.015724392897	3
0	20290	3543.784836116458	2
0	20295	3544.728698337024	1
0	20301	3545.206240204959	2
0	20302	3545.291554327463	1
0	20308	3545.46542537917	2
0	20310	3545.633261351901	3
0	20313	3547.035484907315	4
0	20316	3547.044355947912	3
0	20321	3547.175537486689	2
0	20326	3547.190447524371	1
0	20331	3548.421572456437	0
0	20350	3550.996181790392	1
0	20355	3552.161979069856	0
0	20374	3553.03905063697	1
0	20375	3553.464017908693	0
0	20407	3557.038443161824	1
0	20409	3557.088324090702	2
0	20411	3557.129049870836	3
0	20414	3558.496979875799	2
0	20419	3559.724353775346	1
0	20425	3561.201459512231	2
0	20427	3561.521191125139	3
0	20430	3563.130221754499	2
[...]
4	160935	27853.479068117934	0.152573536407
4	160960	27858.212003159011	1.248951025634
4	161051	27877.458886421657	2.622770552919
4	161088	27882.213801836548	1.696163670322
4	161111	27886.556204284742	4.103607451737
4	161151	27891.652521482392	9.115796870263
4	161156	27891.734319318988	4.004431989919
4	161161	27892.134049123226	4.051757699487
4	161171	27894.16741373371	5.469172994654
4	161198	27897.814549464052	0.166430436661
4	161215	27899.666514759986	0.275923227645
4	161259	27911.696845255163	2.875424236957
4	161282	27914.379722413895	4.385110400045
4	161324	27917.410017641135	3.244243030739
4	161361	27925.108348939969	10.548526443792
4	161388	27928.134858350874	11.819530662114
4	161399	27928.775270749591	8.798930619972
4	161404	27928.855911183199	7.431015400511
4	161412	27931.077570599849	7.648399122978
4	161456	27937.971445813868	12.300328722874
4	161466	27938.638847150428	12.171964363038
4	161471	27940.671727605144	8.418083577441
4	161479	27941.637847657447	7.092140523738
4	161511	27946.791775193601	11.960511418696
4	161519	27948.20966794238	6.307906338154
4	161529	27949.262847582908	0.828070115164
4	161550	27951.605697022633	0.966297375325
4	161578	27955.197308281104	4.033295706318
4	161585	27956.749985850633	1.457013862469
4	161612	27959.960863049538	0.22753092965
4	161619	27960.358188964131	0.255419850957
4	161631	27962.65173610285	0.8806705215
4	161653	27965.913421447499	0.819604725448
4	161697	27971.391161156954	2.178059448206
4	161707	27972.011093797547	1.302522922944
4	161719	27973.590224518219	0.307208925852
4	161751	27979.777631306647	2.468216509211
4	161808	27991.398986965804	10.572417721917
4	161817	27992.588008575659	4.794780319097
4	161822	27992.672207289328	3.306054211955
4	161826	27992.990883348307	1.974808888998
4	161851	27997.40961739794	0.352122465979
4	161885	28009.14311668259	1.450822658847
4	161892	28010.098994841506	1.432169352052
4	161916	28015.113911285623	0.765626044519
4	161923	28015.417732041452	0.03784449617
4	161939	28020.251817409454	0.986908138667
4	161951	28022.130127565801	0.622684781714
4	161965	28022.650283451503	1.07552330641
4	162021	28030.884405771354	3.233719551138
4	162158	28055.816189532246	24.56545618292
4	162166	28056.912929312685	14.874164586781
4	162185	28059.156408367529	14.509355256162
4	162194	28059.977772167309	12.714259148873
4	162205	28060.370809634123	8.597334190504
4	162210	28060.87622911639	7.007447351797
4	162217	28063.046252788825	5.098382828203
4	162225	28065.03058770908	0.486238782849
4	162307	28083.484998035705	8.191210025826
4	162320	28085.355424436708	10.037300462211
4	162337	28087.774128010985	4.790584260834
4	162396	28100.71491797927	12.760410879398
4	162407	28105.224571002331	15.425600867784
4	162411	28105.247492095725	12.948069418518
4	162449	28115.795659618924	0.331440548309
4	162494	28126.964650128309	6.743603933099
4	162513	28130.929302043359	9.103396288429
4	162518	28130.938991206063	1.558150820038
4	162523	28131.150869473037	1.560388989896
4	162548	28135.787412286223	5.793574047988
4	162723	28164.19396396798	28.280959738321
4	162730	28164.412596183189	13.026622069963
4	162751	28166.366499958482	11.056586571924
4	162761	28167.504192489957	12.17595411145
4	162785	28170.884927668791	12.778748002381
4	162796	28173.399205723757	4.31207813973
4	162811	28175.039378972642	2.702873013207
4	162828	28176.990800067293	3.300342618108
4	162857	28180.627344001644	0.698088708417
4	162881	28187.936685958275	0.937396795236
4	162938	28193.183506919721	2.692347286512
4	162972	28199.535814781852	4.645907886632
4	162979	28199.940706548006	4.519555770513
4	162989	28202.050488988887	3.559340557656
4	163021	28212.138894232102	0.301478613775
4	163051	28219.680011956771	1.135290577772
4	163069	28226.236088997323	0.09653506269
4	163097	28235.765103658579	1.513656290942
4	163103	28237.204075508005	2.465000971697
4	163158	28248.889585834099	3.105181299804
4	163167	28250.328961915825	0.206771968514
4	163175	28251.05128379689	0.61496740207
4	163190	28254.46431624157	0.054488022958
4	163215	28258.736642837543	2.382475150383
4	163254	28265.429772525387	9.062140834769
4	163259	28265.570337625762	9.068330453874
4	163265	28266.699413703437	7.752213254923
4	163269	28266.807138733457	4.288771393407
4	163302	28271.917803478974	1.882646693638
4	163315	28273.187099804341	2.718586492961
4	163325	28273.90148012507	1.659664393569
4	163341	28277.183557581336	3.401066271409
4	163346	28277.517695323164	1.709192352493
4	163350	28277.518581824251	0.855309335514
4	163408	28289.138088526968	0.874679194952
4	163412	28289.253237440093	0.958960847476
4	163431	28293.229379245469	0.119359976257
4	163504	28303.185053167876	1.065477314827
4	163520	28307.622987639627	2.436927332062
4	163548	28314.172670060695	0.265148817726
4	163555	28314.993849714852	0.497697424992
4	163568	28320.122164577122	0.203281651697
4	163576	28323.527807825544	1.977384647841
4	163605	28329.025845987883	0.594446921092
4	163623	28331.824506874612	1.998096185406
4	163634	28334.376922018085	3.984027996237
4	163643	28335.529887422558	4.2919528081
4	163675	28340.604632261553	3.369668903121
4	163686	28342.322845490316	2.369456554008
4	163711	28347.284083728465	1.077855872745
4	163726	28350.581733057621	1.481428668158
4	163733	28351.505592727873	0.490320637206
4	163758	28354.10588175566	1.401228812889
4	163771	28355.950088761311	1.835148461687
4	163821	28366.942411097441	7.004401640465
4	163830	28367.252365554315	3.710057993538
4	163843	28370.600071668082	0.141179884197
4	163847	28370.771313879401	0.245207960741
4	163856	28372.68550329891	0.732452122684
4	163899	28380.803527457457	1.09149739805
4	163933	28389.162038512609	0.935412209496
4	163986	28401.611512313586	2.687344548445
4	164000	28403.228111007127	0.300544081461
4	164167	28447.835648230724	30.805295378484
4	164176	28450.87899894579	10.054753364193
4	164180	28451.986294197068	7.397952924062
4	164190	28453.775792190306	1.00356509636
4	164194	28454.928475074781	1.49256504151
4	164205	28458.663895539095	1.85151390529
4	164209	28458.673705747684	0.568748444575
4	164221	28461.04208298891	0.74300614502
4	164246	28465.645039689704	0.05842866265
4	164277	28468.409820886059	1.162138698108
4	164310	28479.444508002101	4.169352129547
4	164349	28486.008158397523	5.055702197961
4	164361	28488.583688911113	0.939304026765
4	164366	28489.69316082793	1.163471345875
4	164382	28493.175814991052	0.516260120994
4	164413	28501.006894518024	1.981206843264
4	164422	28501.750357813996	2.424920791817
4	164438	28503.240612308174	0.058442851109
4	164467	28514.302230826178	1.460557506183
4	164503	28522.71873359824	2.957161854618
4	164543	28528.631592886211	3.55425662712
4	164569	28531.441177681061	4.458832579318
4	164599	28535.047443016854	3.199938300077
4	164610	28536.594948977211	3.683197288743
4	164614	28536.630315060241	2.494567104242
4	164628	28539.603144188939	2.257995132594
4	164748	28558.117455139295	4.461110022371
4	164755	28559.96170232621	3.551699303734
4	164802	28565.478736503559	0.261564735129
4	164834	28574.751037142414	0.363586737825
4	164862	28579.84224974975	1.547432719452
4	164871	28580.306291987597	1.700131997353
4	164904	28585.82277793397	1.519079791577
4	164933	28588.996385064417	0.718220272336
4	164951	28592.45437457881	2.639996632719
4	165006	28599.595794686985	7.388610595352
4	165012	28599.731567754517	6.819648461218
4	165016	28599.946827791344	6.151355602555
4	165027	28601.538295616677	0.469320521069
4	165039	28604.485749115695	2.236484776496
4	165072	28611.279749446983	1.040535691394
4	165215	28642.052180553594	28.131638193239
4	165225	28643.839244112858	25.846627155009
4	165232	28644.374755499807	25.90191006807
4	165243	28645.182796852548	24.785156614251
4	165248	28645.312981804212	18.152656271315
4	165253	28645.397911534967	8.493946558644
4	165261	28647.703270038781	10.390849547292
4	165271	28651.703454254814	11.068008516604
4	165283	28652.561356583452	6.016916265841
4	165290	28653.504429251308	1.744710227561
4	165320	28658.304499391247	1.482831817052
4	165331	28659.200715533012	1.769300297303
4	165391	28665.877500765181	1.012280729192
4	165415	28672.563024591506	1.056734907989
4	165433	28676.432628399315	0.422593272818
4	165437	28676.485146494253	0.212547781568
4	165454	28680.203268124176	0.121528351227
4	165483	28681.681739113459	1.100138496193
4	165508	28685.139288231257	0.019093346052
4	165517	28686.154765682622	0.051311101483
4	165562	28692.987586365664	2.010331923831
4	165577	28694.164853877261	2.115855365702
4	165589	28698.431297157485	4.210152574683
4	165622	28702.49944332437	3.12394292041
4	165680	28716.738684991012	4.546865824412
4	165688	28718.071489957853	2.324583246304
4	165794	28737.445562069145	17.557908626248
4	165804	28738.942823689339	13.037065444278
4	165815	28740.620667562794	13.284384012467
4	165820	28741.106050448671	13.11527083861
4	165826	28741.556654779355	8.429973740533
4	165831	28741.639251384371	7.207921793518
4	165844	28744.145051222421	9.282728472999
4	165866	28746.679373691733	2.584178496728
4	165878	28747.784497169609	3.355429531149
4	165886	28751.462019383579	3.966822565687
4	165897	28755.009853833155	6.629906404719
4	165973	28765.310872856441	1.493051285217
4	166064	28778.10510452128	6.690543950367
4	166086	28781.011605666092	7.799429494294
4	166091	28781.108238572241	3.896901284548
4	166099	28782.492551926688	4.212283491092
4	166141	28788.840312457183	10.011130697313
4	166280	28810.613105581687	26.185966330563
4	166290	28811.323652563358	15.205384746366
4	166300	28813.969748773034	16.375967505744
4	166305	28814.023903711353	15.955884812768
4	166310	28814.113879978326	15.204655128797
4	166318	28814.882830040573	10.030621320777
4	166341	28818.570929230979	7.146592674195
4	166347	28819.54984771373	3.700527617588
4	166353	28820.150108461472	3.270166479421
4	166374	28822.127124041805	1.737547018806
4	166398	28826.588526877676	0.017104780728
4	166414	28828.292549150567	1.696724787781
4	166423	28829.703455046248	2.560365474518
4	166446	28835.110409324529	1.052058933405
4	166450	28835.326005331856	0.232060866838
4	166461	28837.420907812741	0.966361901161
4	166507	28841.925500702826	2.035650087678
4	166666	28869.508417924854	28.662519665291
4	166677	28871.103638426726	21.382440930647
4	166691	28871.766331084804	20.20239905805
4	166701	28873.725068247593	20.794934028404
4	166708	28873.858898234879	19.558216592484
4	166715	28874.938518965786	20.588390299725
4	166738	28878.449128660438	18.289436389944
4	166769	28882.587590687748	22.367381506097
4	166786	28885.616701275028	25.359725354771
4	166791	28886.369657990983	16.213380779031
4	166799	28886.920899989603	13.181232422483
4	166804	28887.70007385641	3.556865323121
4	166811	28888.623496491599	1.921758288017
4	166846	28895.597737493267	3.575987166226
4	166852	28895.938619403087	2.9217072678
4	166858	28896.331503651577	2.30429691586
4	166865	28896.385206733755	2.240947242507
4	166896	28898.700856781102	0.948479037118
4	166906	28900.578194762355	2.215573938656
4	166913	28901.558523866261	1.123553517569
4	166921	28903.680791663002	2.257580692024
4	166951	28908.770776757272	2.429289775324
4	167018	28917.237709309449	9.361912716511
4	167029	28919.843320197894	1.11069505005
4	167060	28925.814143074404	4.676897086529
4	167065	28926.305985722952	2.17899728949
4	167070	28926.65459823565	1.773249442605
4	167085	28928.758424959722	0.720674921004
4	167093	28929.765459385438	0.600352943274
4	167124	28937.097466763623	1.232376693947
4	167147	28940.120860042664	2.99657802577
4	167170	28945.325121842432	0.643289248084
4	167231	28953.634578754479	0.248197919526
4	167261	28956.769360301988	0.649176202896
4	167283	28959.150016896565	1.533463758964
4	167292	28959.924373800417	1.086254304191
4	167301	28962.798347977066	0.123468665973
4	167313	28963.641410826711	0.700084198487
4	167350	28972.350270889759	3.937714736701
4	167391	28985.919359781206	0.896421279148
4	167405	28987.7205795077	1.849957072196
4	167422	28989.98870921495	0.363262802029
4	167439	29000.591633848174	0.116672881395
4	167508	29011.673596790167	4.688924157446
4	167578	29022.653659727597	5.116241385454
4	167582	29022.931177962997	3.209853154264
4	167609	29026.955496573364	1.229272174843
4	167645	29037.399943131311	0.492754260872
4	167656	29038.472852126896	0.92812526821
4	167676	29040.468793179287	0.095741961534
4	167698	29043.806639722125	0.317511413608
4	167731	29052.729174213407	4.405667623532
4	167738	29053.909727782675	3.20009499601
4	167745	29054.755562936177	0.824297651914
4	167783	29063.915997049702	0.926028161735
4	167915	29082.503798735471	14.661057503589
4	167928	29083.839698862572	13.83688831847
4	167936	29084.156399212433	11.715873671475
4	167949	29084.511436643379	9.407192248424
4	167960	29086.230684533224	10.91470414426
4	167978	29087.356498427506	7.974193594595
4	167983	29087.520320495606	6.581160908537
4	167989	29087.890092142018	6.900428120497
4	167994	29089.267547728793	5.089987380218
4	168190	29137.756743741325	5.860367083835
4	168202	29139.706813981343	3.186484437035
4	168644	29227.552402293609	89.871585464047
4	168654	29228.422956179291	89.176433343588
4	168664	29229.070981630153	77.587108680344
4	168671	29229.928786936886	76.607268858923
4	168677	29230.67403841603	74.75497704582
4	168684	29231.718574609507	75.060189916806
4	168692	29233.017950462296	75.900086087505
4	168708	29235.976142404222	78.667371042435
4	168742	29240.24925716736	66.724775074843
4	168756	29241.232739020278	65.982167643151
4	168767	29243.252565733508	60.923457106111
4	168782	29243.772423889351	55.399660381636
4	168791	29245.468843476714	56.586406162368
4	168804	29246.510671404663	56.988656790746
4	168812	29247.703133509998	53.328791981889
4	168824	29248.786644646746	45.286418765459
4	168838	29252.549209105027	44.499194240038
4	168920	29265.250654962796	51.331574090775
4	168927	29265.973726321747	41.363997084975
4	168935	29266.868711551721	39.080963335683
4	168946	29267.54110185036	31.310438853963
4	168962	29269.994782800529	33.538140700252
4	169026	29282.167242164737	43.629667055943
4	169037	29283.333552292126	43.00610302081
4	169054	29284.287352496688	43.958677305264
4	169062	29285.58917076788	40.753493150393
4	169068	29286.08462769641	37.705872066481
4	169073	29287.994225339905	38.742893799251
4	169078	29288.926582750002	30.767668067066
4	169085	29290.184074144259	31.333329294756
4	169090	29290.560130133174	29.007276833989
4	169095	29290.717480419887	28.549026011663
4	169102	29291.053735425254	13.8691116569
4	169118	29296.769357330233	19.225395955976
4	169155	29300.700869310774	16.348224909613
4	169162	29301.289060572026	11.538171909903
4	169167	29301.573507300697	10.626992877799
4	169181	29307.84635669483	16.314850886729
4	169205	29312.697189460098	19.516867869553
4	169631	29392.868329352218	94.504652177315
4	169641	29394.605234618105	95.66833534386
4	169654	29396.323206860995	96.167124502757
4	169677	29399.63935572248	92.495593240063
4	169696	29401.402940731144	92.769096723751
4	169711	29405.789248791102	96.544327759561
4	169721	29406.345612004174	89.928995983773
4	169726	29406.810151483923	89.177454304463
4	169733	29407.595061443072	88.836072630559
4	169743	29410.688296158172	90.661254243191
4	169761	29413.989634119737	87.675931433485
4	169776	29417.693551549069	89.15397244962
4	169786	29419.973613868378	89.055529093618
4	169806	29422.302858948088	79.642553525929
4	169813	29423.412647124718	79.695789943563
4	169855	29427.149874003874	82.509211651288
4	169860	29427.214653003532	77.320877591213
4	169869	29428.261083745554	78.247633589945
4	169880	29429.817464837475	79.059580575974
4	169890	29431.324434878401	76.28861419282
4	169903	29432.191933157359	76.974587659072
4	169908	29432.926877094023	69.745791100476
4	169915	29435.332810909189	71.594806915319
4	170363	29531.206715069158	166.72448577192
4	170372	29531.828873494792	167.17293725071
4	170381	29532.386902637998	162.4962611226
4	170404	29535.845002456155	163.73119236734
4	170419	29536.244855501463	163.14674174657
4	170430	29541.677027579068	167.88840288874
4	170446	29543.929634954053	166.91096839796
4	170465	29550.639051400386	170.63319945487
4	170504	29554.092212927337	165.95558208106
4	170530	29558.777059781727	170.57508340442
4	170566	29561.84717421437	167.36846048875
4	170576	29563.188560994966	162.0625746993
4	170588	29564.570006703524	159.60934268686
4	170614	29566.973773305294	160.04527677487
4	170767	29587.038669665259	176.474889861
4	170772	29587.380490200228	175.56066924646
4	170777	29587.829361014093	167.2509578938
4	170786	29588.355267007811	163.30808603049
4	170791	29588.363515028038	160.50501336001
4	170796	29588.726690094657	157.62722451161
4	170801	29588.846671401042	156.69506706612
4	170815	29591.37367380141	155.72550751495
4	171361	29703.133341261954	264.21713017364
4	171410	29714.430269110113	274.708228818
4	171416	29715.413695726875	271.83213902232
4	171421	29715.440726395654	271.02104699909
4	171427	29717.353171674716	272.79255823058
4	171438	29717.832093261021	271.36741934293
4	171457	29719.471122037737	267.32382108923
4	171467	29720.022084907754	265.50605461583
4	171472	29720.024663171628	263.597100495
4	171485	29724.954357364739	267.90513437523
4	171554	29735.910741904458	273.03392964936
4	171594	29742.307957570343	266.87689421309
4	171606	29744.737510480761	266.00197473562
4	171617	29745.547217494034	263.10545407414
4	171622	29745.664691358487	262.19366916075
4	171629	29746.320211998217	260.54018838884
4	171634	29747.035638609087	259.21952176781
4	171641	29748.115846869889	241.13761970274
4	171646	29748.118271243607	232.59593240589
4	171653	29750.108946745044	233.76749401669
4	171676	29752.018950349256	230.28416982287
4	171691	29757.528849772249	230.67946796908
4	171726	29763.743786947932	236.02830537022
4	171732	29764.039369377699	235.93804199216
4	171737	29764.410916360941	235.1515972107
4	171743	29765.415562256589	235.89803695978
4	171748	29765.419547673289	233.62717958011
4	171768	29772.228674894852	238.54037267022
4	171812	29779.053040339842	231.45236772073
4	171819	29779.644891488376	227.82855851915
4	171829	29779.891626570458	224.66381888613
4	171838	29780.805798772482	222.54444257123
4	171844	29781.608605541955	221.97617549435
4	171852	29783.878861560054	223.70882037366
4	171861	29784.822899660883	219.03337345148
4	171871	29787.673403621365	214.3189886977
4	171894	29790.305556386415	209.15964596365
4	171907	29794.136200904443	209.01889715672
4	171912	29794.248289395546	207.82022745907
4	171917	29795.543292780291	207.53396633916
4	171926	29797.243421339133	202.31677482214
4	171946	29800.183275694516	203.06682321393
4	171951	29800.907201802727	202.78528463757
4	171956	29801.860157080724	200.98794564015
4	171963	29805.669968044615	195.92851086652
4	171990	29814.219164440039	204.33896249959
4	172046	29823.932730438216	212.7440769134
4	172064	29826.809022357059	208.45936864954
4	172111	29835.237493145589	215.4082300881
4	172116	29835.266191828942	213.56220596373
4	172123	29835.770764168517	213.91520097446
4	172129	29835.794209391332	213.69505386738
4	172139	29836.845956634348	212.15674602697
4	172151	29838.457729379191	213.19928379007
4	172160	29839.998325843388	200.31868512578
4	172191	29844.562791541838	202.22512121031
4	172201	29845.094542331413	195.96491782498
4	172208	29845.970346112491	195.89135970202
4	172236	29849.775541315898	193.0543413236
4	172243	29851.67368452867	187.27066018879
4	172286	29856.28830426324	186.49261179335
4	172291	29856.444369857433	182.76150871487
4	172298	29856.663563487213	182.91567468629
4	172652	29927.278143298067	247.36664756415
4	172662	29927.715249270019	241.98644428926
4	172668	29927.924547291826	240.1550020871
4	172685	29932.020734471745	241.19015780452
4	172890	29978.375639758312	281.34520356619
4	172912	29981.185009112575	278.46040714633
4	172923	29984.173972092046	280.50722297418
4	172928	29984.471205599698	279.3664807916
4	172937	29987.051591371971	279.76857323324
4	172942	29989.620983574718	279.21918114183
4	172948	29990.498124749875	278.2952935507
4	172953	29990.604901483795	272.94112576318
4	172960	29991.159576317816	267.60584055111
4	172967	29992.624477294525	265.82290219757
4	172980	29999.261285828306	268.46937340883

