version 2
run First-n2-9-20191016-14:52:49-1328
attr configname First-n2
attr datetime 20191016-14:52:49
attr experiment First-n2
attr inifile omnetpp.ini
attr iterationvars ""
attr iterationvarsf ""
attr measurement ""
attr network org.omnetpp.queueing.Pizza
attr processid 1328
attr repetition 9
attr replication ""
attr resultdir results
attr runnumber 9
attr seedset 9
param **.PS.maxInventoriedPS 2
param **.U1.interArrivalTime exponential(2s)
param **.U2.interArrivalTime exponential(4s)
param **.PS.serviceTimeForInventoryU1 exponential(0.8s)
param **.PS.serviceTimeForInventoryU2 exponential(1.0s)
param **.PS.serviceTimeDirectU1 exponential(1.2s)
param **.PS.serviceTimeDirectU2 exponential(1.4s)
param **.PS.probabilityProducing 0.5
param **.CS.serviceTimeU1 exponential(0.8s)
param **.CS.serviceTimeU2 exponential(1.0s)

vector 0 Pizza.EntryQueueU1 queueLength:vector ETV
attr interpolationmode sample-hold
attr title "queue length, vector"
vector 1 Pizza.CS queueLength:vector ETV
attr interpolationmode sample-hold
attr title "queue length, vector"
vector 2 Pizza.EntryQueueU2 queueLength:vector ETV
attr interpolationmode sample-hold
attr title "queue length, vector"
vector 3 Pizza.sink lifeTime:vector ETV
attr interpolationmode none
attr title "lifetime of arrived jobs, vector"
attr unit s
vector 4 Pizza.sink lifeTimeU2:vector ETV
attr interpolationmode none
attr title "lifetime of arrived jobs, vector"
attr unit s
0	0	0	0
0	21	1.907893945897	1
0	25	2.083502027234	2
0	28	2.448408400385	3
0	29	2.704536815502	2
0	38	3.765925530593	1
0	43	4.446252686648	0
0	55	6.665063224829	1
0	58	7.642138816179	2
0	60	8.370423982247	1
0	64	9.306358350106	2
0	68	10.559835936641	3
0	70	11.500513204696	4
0	71	11.85271860619	3
0	76	14.098040946837	2
0	81	14.377165055305	1
0	85	14.757140807609	2
0	87	16.107675452265	3
0	95	18.204695519153	4
0	96	20.697144789248	3
0	101	21.166259105171	2
0	106	23.477411241464	1
0	114	26.090747909011	2
0	118	26.816511586325	1
0	125	27.537168756112	0
0	131	27.826988539055	1
0	132	29.171861939982	0
0	153	35.526919019987	1
0	155	35.614512833783	2
0	163	37.069779748067	1
0	171	37.647033278751	2
0	173	37.94574795066	3
0	175	38.09107334273	4
0	176	38.335813599232	3
0	184	38.961634603063	4
0	188	39.836309225359	5
0	189	39.968722915694	4
0	195	40.027829360812	3
0	200	40.363649246669	2
0	206	40.920685041657	1
0	211	41.113584394978	0
0	237	44.640594402882	1
0	239	44.930478888708	2
0	242	45.440442158526	1
0	248	45.64419350794	0
0	254	45.651359061656	1
0	258	46.652721131118	0
0	264	47.005626961684	1
0	266	47.086498868998	2
0	267	47.412117582826	1
0	271	47.769506604169	2
0	275	47.987025946955	3
0	277	48.310274508507	4
0	278	48.348340687245	3
0	288	50.310117538806	4
0	292	51.610555789623	3
0	297	51.616405731816	2
0	302	52.066475784157	1
0	308	53.93197379468	2
0	310	54.278360452147	3
0	313	55.544721299609	2
0	317	55.73574434507	3
0	319	55.974535025717	4
0	321	56.117407205001	5
0	324	58.943281908277	4
0	330	59.803190415306	5
0	331	60.358420269287	4
0	336	62.065141428874	3
0	340	62.393946480351	4
0	345	63.237486871002	3
0	349	63.752792920703	4
0	351	63.837919161845	5
0	354	64.348967215946	4
0	359	65.367826608047	3
0	364	67.555095872724	2
0	368	68.504452959154	3
0	370	68.656475467981	4
0	372	68.815279292228	5
0	375	71.096528677682	4
0	379	72.433582920455	5
0	385	73.47641684768	6
0	387	73.545276252643	7
0	389	73.961311519077	6
0	394	74.646741811073	5
0	399	75.731889361265	4
0	403	75.817453311159	5
0	407	77.224442945154	4
0	412	77.509940461593	3
0	423	81.89609284431	4
0	424	82.804249501083	3
0	429	83.053455100737	2
0	439	86.438689609761	1
0	444	87.05279352828	0
0	465	89.600708929141	1
0	471	91.782290693164	2
0	472	92.053945374645	1
0	479	92.586950369561	0
0	500	95.73714064228	1
0	502	97.279599058069	2
0	508	98.575557260971	3
0	509	98.781872882784	2
0	515	99.054069068821	3
0	517	99.354129625785	4
0	519	99.446796107348	3
0	525	99.447200976747	4
0	527	100.454363098756	5
0	529	100.496780529978	6
0	530	100.497617448916	5
0	535	100.786216833195	4
0	539	100.790704038415	5
0	546	104.11506428306	4
0	552	104.143052717586	5
0	557	104.831768028863	4
0	567	107.205159289431	5
0	568	108.344487085112	4
0	574	108.370709221116	5
0	575	108.461506896803	4
0	580	108.476747467473	3
0	584	109.543042953865	4
0	586	110.373638805792	5
0	593	112.229521316957	4
0	597	112.745829227862	5
0	599	115.477351273147	6
0	603	116.321376442755	7
0	605	116.6299237057	8
0	609	117.003849223538	9
0	610	117.143334096394	8
0	615	120.06401334143	7
0	619	120.184135657626	8
0	623	120.592814516387	9
0	625	120.678351360337	10
0	627	120.739316840832	11
0	631	121.393511600039	12
0	632	121.477927216251	11
0	638	124.033687836494	10
0	646	124.615728418822	9
0	651	124.766410505368	8
0	657	125.296810573197	9
0	658	125.307349168012	8
0	663	126.720896983167	7
0	670	127.124061858985	8
0	671	127.251198216027	7
0	678	128.101577681463	8
0	679	128.560876123506	7
0	685	129.00449070526	6
0	690	129.185645032964	5
0	696	130.547926345512	6
0	697	130.671822593628	5
0	703	130.848625491555	6
0	704	130.921842015553	5
0	710	131.424487507102	6
0	716	133.976273824254	5
0	721	134.174248894603	4
0	727	135.133757347679	5
0	729	135.555952447462	6
0	730	135.960493365759	5
0	735	136.489641354113	4
0	740	136.890105004093	3
0	745	138.725123646046	2
0	753	140.497653061435	1
0	759	140.706990893179	2
0	761	140.918466191851	1
0	766	141.555505391046	0
0	799	145.791392929011	1
0	802	145.984077437266	2
0	805	146.616037900751	3
0	809	147.180031605689	4
0	810	147.721495039454	3
0	816	148.685939468611	2
0	821	149.58088234789	1
0	829	150.166626837221	2
0	830	150.220638037092	1
0	837	151.173211006208	0
0	843	152.462902351254	1
0	855	155.236157085603	2
0	857	156.388661865632	1
0	862	156.757419644574	0
0	868	158.634283020879	1
0	869	158.640932601733	0
0	904	160.465190978284	1
0	909	161.237036232567	0
0	917	162.50344981353	1
0	918	162.734845790884	0
0	940	165.273348357944	1
0	945	167.088811562409	0
0	953	168.189048390763	1
0	954	170.48061666454	0
0	965	171.004814382433	1
0	970	172.520149342149	0
0	988	173.948657613567	1
0	993	175.467626303837	0
0	1007	178.992761522048	1
0	1011	182.67453093177	2
0	1014	183.250935253665	1
0	1019	183.448314423828	0
0	1023	183.711467032741	1
0	1029	185.218716241728	2
0	1030	185.794028605667	1
0	1036	186.687179923479	0
0	1063	192.387362449568	1
0	1066	192.91857877092	0
0	1072	193.313891271675	1
0	1073	194.000049431043	0
0	1091	197.199642282746	1
0	1093	198.816534838164	2
0	1094	198.911296115732	1
0	1099	199.21279927234	0
0	1110	203.23681310112	1
0	1112	204.922468524184	2
0	1116	205.448793831888	3
0	1122	206.930164926779	4
0	1123	207.308289498715	3
0	1129	208.576791563492	4
0	1131	209.142574514056	5
0	1133	209.466578529083	6
0	1141	211.87694154635	7
0	1142	211.9721404646	6
0	1149	213.807627041369	7
0	1150	213.930326024578	6
0	1154	214.326881617411	7
0	1157	215.506097010195	6
0	1161	215.810908991346	7
0	1163	215.999975090584	8
0	1173	217.481733397517	9
0	1177	219.231135325731	10
0	1180	220.098201064572	9
0	1184	221.112994358851	10
0	1188	221.478422342061	11
0	1189	221.730071726893	10
0	1193	225.354387271387	11
0	1197	227.049138457155	10
0	1204	227.729348842423	9
0	1211	230.399713921832	8
0	1216	230.87713267805	7
0	1228	233.221969763731	6
0	1234	233.658271969054	7
0	1236	234.648044601791	8
0	1238	234.722213297403	9
0	1241	236.406900238261	8
0	1245	239.036456635833	9
0	1248	239.542767312949	8
0	1255	241.15864379695	7
0	1261	241.690367610621	8
0	1263	241.912279688423	9
0	1268	243.056252745593	8
0	1273	243.922048232753	7
0	1279	245.418542475761	6
0	1284	245.432607759382	5
0	1290	247.30896470176	6
0	1291	248.616249534069	5
0	1296	249.793062983394	4
0	1301	250.030831917523	3
0	1305	252.052099657581	4
0	1307	253.523087728926	5
0	1313	254.315810890924	6
0	1315	254.690551336761	5
0	1320	254.794080031457	4
0	1324	254.845251463412	5
0	1326	256.164921445023	6
0	1331	257.267913911582	5
0	1337	258.536157066431	6
0	1341	259.310640630895	7
0	1342	260.564353389918	6
0	1347	261.463831988938	5
0	1356	264.264250859965	4
0	1362	264.493774153369	5
0	1364	266.479355789159	4
0	1371	267.592771696248	3
0	1378	269.055973700781	2
0	1382	269.346262329344	3
0	1385	269.570031616544	2
0	1391	270.956563864191	3
0	1395	272.186975161187	2
0	1400	272.215279718195	1
0	1405	272.489087814985	0
0	1419	274.60033174001	1
0	1421	275.591291847906	2
0	1423	276.279685110384	3
0	1424	276.522505731285	2
0	1433	278.27996149851	3
0	1437	283.346370904242	2
0	1443	284.433645254842	1
0	1448	284.54476148277	0
0	1474	287.492959719298	1
0	1477	288.274764066958	0
0	1498	291.242062000295	1
0	1500	291.562610540199	2
0	1505	293.070917085483	1
0	1509	293.843514376911	2
0	1511	294.251857400887	3
0	1516	295.836513935779	2
0	1526	298.150624059733	3
0	1527	299.072478214585	2
0	1532	300.66879513764	1
0	1538	301.797017276902	0
0	1549	302.455337177733	1
0	1551	302.825138544242	0
0	1558	303.273322656651	1
0	1559	303.830302703806	0
0	1577	306.959896435726	1
0	1579	307.231813042975	2
0	1581	307.304825519366	3
0	1582	307.766176755761	2
0	1589	310.062949516732	3
0	1590	310.181493801405	2
0	1596	310.370888594606	3
0	1599	311.060244517323	2
0	1608	312.516267096177	1
0	1613	312.898491004809	0
0	1632	315.744272841432	1
0	1635	316.113708492012	0
0	1646	317.667229396938	1
0	1655	321.615986024567	0
0	1661	321.629694687439	1
0	1662	321.764307799377	0
0	1669	323.644358075011	1
0	1671	325.265453375349	2
0	1673	325.739016435487	3
0	1674	326.012784035724	2
0	1680	326.315523756775	1
0	1685	326.373492275917	0
0	1707	330.499860728959	1
0	1710	331.499597806883	0
0	1727	333.751522807456	1
0	1729	334.530236576066	2
0	1737	335.766449593554	3
0	1741	337.348337492715	4
0	1745	339.17644095828	5
0	1747	339.206526788287	6
0	1749	339.282242800754	7
0	1750	339.294838951346	6
0	1756	339.601279809812	7
0	1759	340.272064666346	6
0	1765	340.534699015677	7
0	1770	344.16416435358	8
0	1772	344.206142642969	9
0	1773	344.228933589187	8
0	1778	344.674730192559	7
0	1789	347.448755510198	6
0	1794	348.482361916525	5
0	1800	351.177125257412	4
0	1805	353.013605260253	3
0	1812	353.56836425701	2
0	1816	354.344323795109	3
0	1818	354.91649102218	4
0	1825	355.689663900047	5
0	1829	356.105080150411	4
0	1835	356.739279541951	3
0	1841	356.811440295802	2
0	1847	357.650388839	3
0	1848	357.750630367656	2
0	1853	359.072940512826	1
0	1857	359.133522495458	2
0	1862	360.192364502213	1
0	1867	360.786007675629	0
0	1875	362.980847162804	1
0	1878	363.462572763841	0
0	1882	363.48539862506	1
0	1886	364.724072550916	0
0	1911	366.432724301234	1
0	1912	366.837192088168	0
0	1926	368.922624918957	1
0	1927	369.629648354295	0
0	1964	380.670076112319	1
0	1966	381.01629343345	2
0	1971	382.644304779927	1
0	1976	382.95560254113	0
0	1990	384.613262000087	1
0	1992	384.64740681656	2
0	1993	385.294045090774	1
0	2005	386.632793159297	2
0	2007	386.787938238759	1
0	2015	388.358872837551	2
0	2016	389.068096655739	1
0	2022	389.179789879386	2
0	2024	389.600673169484	3
0	2026	389.906095978625	4
0	2028	391.010774011476	5
0	2029	392.149009604405	4
0	2035	392.887783267052	5
0	2036	392.979597068725	4
0	2040	393.23921342307	5
0	2043	393.610664069777	4
0	2047	393.692287137472	5
0	2049	394.347857634824	6
0	2053	395.152795844369	7
0	2054	395.335371234191	6
0	2060	396.286275509763	7
0	2063	399.029235615823	6
0	2067	400.150003078066	7
0	2073	401.569769305847	8
0	2076	402.735662492808	7
0	2080	402.816028024248	8
0	2084	405.180658407869	9
0	2087	405.818958363432	10
0	2090	406.108208629656	9
0	2097	406.532018151493	8
0	2105	407.289285139336	7
0	2111	408.093284806217	6
0	2116	408.560346290043	5
0	2123	409.485108102667	4
0	2128	410.143627828958	3
0	2134	410.835049473248	4
0	2138	411.880329039353	5
0	2142	413.434066172234	6
0	2145	413.556628184526	5
0	2149	414.139632016525	6
0	2153	414.41771839802	7
0	2156	415.318670956679	8
0	2157	415.33906797431	7
0	2163	415.38874371701	8
0	2165	417.099508118926	9
0	2166	417.379300237064	8
0	2170	418.387904783397	9
0	2174	419.134586003494	8
0	2179	419.341415992493	7
0	2183	419.647819102099	8
0	2187	419.784794102264	9
0	2190	421.308106101814	8
0	2195	421.840823903579	7
0	2201	422.221945295098	8
0	2204	422.571696272	7
0	2209	423.500953102568	6
0	2218	424.097384410049	7
0	2219	424.220010783952	6
0	2226	425.044004981331	7
0	2228	425.305122720829	8
0	2233	426.560415716746	7
0	2240	427.75921244296	6
0	2244	428.085579502132	7
0	2249	430.268545018581	8
0	2250	430.603990817505	7
0	2257	430.990502633671	6
0	2265	431.888077489934	7
0	2267	432.144113919208	6
0	2272	432.543212479807	5
0	2276	433.787062177667	6
0	2280	434.838044314597	7
0	2281	434.94671111075	6
0	2287	436.730077329256	7
0	2289	436.732852552248	8
0	2295	437.805225352528	9
0	2296	438.236753823696	8
0	2304	439.119015705033	9
0	2306	439.703788683086	10
0	2313	441.595198518315	9
0	2318	441.79993599954	8
0	2322	442.128520924348	9
0	2325	444.480679494287	8
0	2330	446.033700332161	7
0	2335	448.113535611392	6
0	2340	448.67642258153	5
0	2344	448.81575525937	6
0	2348	449.281181817296	7
0	2349	449.680398541849	6
0	2353	450.112471510656	7
0	2356	451.830746865689	6
0	2360	452.674844105845	7
0	2363	453.72144630277	6
0	2369	455.77711584493	5
0	2374	455.822771571373	4
0	2380	459.303086101807	3
0	2385	460.107123315596	2
0	2390	461.418307483402	1
0	2395	461.729539023244	0
0	2399	462.632398353593	1
0	2402	462.962186907487	0
0	2431	467.950035128171	1
0	2432	468.262454113537	0
0	2446	469.413840855892	1
0	2448	469.640082605751	2
0	2450	470.126615830471	3
0	2451	470.325253458292	2
0	2456	470.426256342137	1
0	2460	470.573276825258	2
0	2465	471.650602312624	3
0	2466	472.240759034963	2
0	2472	472.560384998266	3
0	2473	472.60454045642	2
0	2477	473.146118171596	3
0	2479	473.541420754675	4
0	2481	474.399922741819	5
0	2491	477.977194426576	4
0	2498	478.898127187074	3
0	2503	479.093706291805	2
0	2507	480.146495251403	3
0	2509	480.953222513556	4
0	2513	481.546414866929	3
0	2519	481.805352856132	4
0	2520	482.002551032665	3
0	2527	484.31377733224	4
0	2528	484.450211552505	3
0	2534	485.5767514125	4
0	2536	485.818825624931	5
0	2540	486.437666839471	6
0	2541	486.954913127703	5
0	2546	487.249441647966	4
0	2550	487.52900776375	5
0	2554	487.997558199294	6
0	2555	488.21703645531	5
0	2559	489.384023962777	6
0	2563	490.100805304544	7
0	2564	490.127729077788	6
0	2568	491.002745177993	7
0	2572	492.034744129039	8
0	2574	492.775213199906	9
0	2579	493.312777367942	8
0	2585	494.384836723816	9
0	2590	495.420537729873	8
0	2596	495.986591965106	9
0	2599	496.843180511889	10
0	2600	497.946754142868	9
0	2608	498.730215342241	10
0	2609	499.051055757591	9
0	2614	499.335596738844	8
0	2619	499.730669985824	7
0	2623	499.821893547779	8
0	2626	500.11379466563	7
0	2633	502.212845326277	6
0	2637	502.382836320345	7
0	2641	504.109526524284	6
0	2647	504.689785546252	5
0	2652	504.76677784124	4
0	2658	507.111875842069	5
0	2661	508.800754693155	4
0	2666	509.489604837228	3
0	2678	511.809199643705	4
0	2679	512.20680739489	3
0	2685	512.875869816696	2
0	2691	513.096161137921	3
0	2692	513.165711330264	2
0	2697	514.319219523629	1
0	2704	515.465894330864	2
0	2705	516.919333624238	1
0	2710	517.143489103668	0
0	2716	519.740236219458	1
0	2720	522.150340290454	0
0	2726	523.129189178002	1
0	2727	523.240904281872	0
0	2731	523.437338015885	1
0	2734	526.172738924629	0
0	2740	527.886714088917	1
0	2741	528.123810787998	0
0	2745	528.874047363865	1
0	2749	530.400228367983	0
0	2756	532.104299167075	1
0	2757	532.457537638807	0
0	2778	535.117674132678	1
0	2779	535.375646923889	0
0	2793	538.016709234609	1
0	2794	538.200298593451	0
0	2810	539.384566435555	1
0	2812	540.344027618755	2
0	2819	541.452424334474	3
0	2820	541.787781017005	2
0	2825	542.026375736575	1
0	2830	542.050385754438	0
0	2844	543.542625450194	1
0	2847	545.289907313447	0
0	2853	546.793756962561	1
0	2859	548.389816548929	2
0	2860	550.024835602691	1
0	2865	550.289934364446	0
0	2873	550.735857935381	1
0	2874	553.329259619694	0
0	2880	553.499300336327	1
0	2881	553.572643750174	0
0	2893	555.70048103411	1
0	2895	558.048928064239	0
0	2908	559.880312855865	1
0	2910	560.168410264472	0
0	2916	560.813725302525	1
0	2918	561.105073432611	2
0	2919	561.996670668383	1
0	2924	563.254198220677	0
0	2932	564.705500542847	1
0	2935	565.547239968389	0
0	2939	568.446486881754	1
0	2941	568.638197682801	2
0	2945	569.192332814446	3
0	2947	570.319667655601	4
0	2948	570.533775393318	3
0	2953	571.243419531218	2
0	2958	571.982498196588	1
0	2964	572.66423498726	2
0	2965	572.670181341018	1
0	2969	572.689913489507	2
0	2971	572.729683089174	3
0	2973	572.939973623849	4
0	2977	574.080978863942	3
0	2983	574.299593156761	4
0	2984	574.853390865564	3
0	2990	576.638171499379	2
0	2996	578.240725938382	1
0	3002	578.425482433624	2
0	3003	579.301794165223	1
0	3007	580.240944432869	2
0	3009	580.28831629262	3
0	3011	580.418241717712	4
0	3016	581.553642564337	3
0	3022	583.539956985773	4
0	3025	584.234303986417	3
0	3031	585.584234754547	4
0	3032	585.617588516364	3
0	3038	586.873672067368	4
0	3043	588.222621838147	3
0	3048	588.505246908261	2
0	3052	588.679066711241	3
0	3055	590.36831999479	2
0	3060	590.785439674883	1
0	3066	592.022538249602	0
0	3077	592.577036949361	1
0	3078	593.209797413087	0
0	3082	593.698827783671	1
0	3084	594.269815068375	2
0	3086	598.162902533237	3
0	3090	599.908426833427	4
0	3092	600.694275799042	3
0	3098	600.959175354347	4
0	3103	602.54192717216	3
0	3109	602.729265032656	4
0	3110	603.398913583681	3
0	3117	604.701979816513	2
0	3122	605.968273808474	1
0	3128	607.337060498027	2
0	3130	608.836160388789	1
0	3135	608.869613022585	0
0	3139	609.885469355949	1
0	3141	610.692289774956	2
0	3145	611.020683398267	3
0	3146	611.59602311487	2
0	3153	612.589315526627	1
0	3157	613.010880795673	2
0	3160	613.280975071895	1
0	3165	614.238944160485	0
0	3171	614.651216773969	1
0	3176	615.188450083694	2
0	3178	615.691926142183	3
0	3183	616.562840390997	2
0	3188	616.725838735371	1
0	3192	616.735329977444	2
0	3194	616.826116787923	3
0	3197	617.631355949403	2
0	3202	618.31732798314	1
0	3207	618.338306622898	0
0	3211	618.870724410895	1
0	3215	619.543896260004	2
0	3221	619.985328602542	3
0	3222	621.418679407077	2
0	3227	622.36023556283	1
0	3232	622.45737273315	0
0	3239	623.526749149169	1
0	3241	624.060887147274	2
0	3242	625.031721628399	1
0	3248	625.321121633255	2
0	3249	626.135381612909	1
0	3258	627.357289455168	0
0	3273	628.451476252495	1
0	3275	629.266353986745	0
0	3303	634.963973922537	1
0	3305	635.234748453427	2
0	3306	636.62209269243	1
0	3311	637.202439619462	0
0	3325	637.661018291238	1
0	3327	638.256695516667	2
0	3330	640.414526137898	1
0	3335	642.896036025508	0
0	3344	644.933221905245	1
0	3348	645.243428470382	2
0	3353	647.063783264736	3
0	3357	647.739954731627	4
0	3358	648.31053132597	3
0	3364	648.563048530914	4
0	3366	649.119976830908	5
0	3367	649.821261811342	4
0	3373	650.448413604058	3
0	3378	650.607045104202	2
0	3384	652.408240560759	1
0	3390	652.936632629348	2
0	3392	653.31113628114	1
0	3397	653.407270024146	0
0	3410	655.15940465356	1
0	3411	655.228741244215	0
0	3417	655.948713270489	1
0	3418	655.951897815615	0
0	3422	656.069248344764	1
0	3427	656.44323984983	2
0	3428	656.904581659632	1
0	3435	658.880370995718	0
0	3456	663.901631433312	1
0	3458	664.167344480459	0
0	3464	665.52648510154	1
0	3465	666.253694022935	0
0	3471	666.866073753214	1
0	3472	667.634637204437	0
0	3483	668.840038776279	1
0	3484	668.861777124384	0
0	3488	671.828873388648	1
0	3491	673.135085695019	0
0	3495	673.223400622391	1
0	3497	674.433384263942	2
0	3500	675.940163553704	1
0	3507	677.239387697884	2
0	3509	677.449604496606	1
0	3514	677.821579071815	0
0	3532	682.122031263641	1
0	3534	682.720666739234	0
0	3555	684.73514696159	1
0	3561	689.410329809203	0
0	3573	690.261547198425	1
0	3576	691.627943474635	2
0	3579	692.981582064597	1
0	3585	693.317484394867	2
0	3587	694.34585894479	1
0	3593	694.604750457414	2
0	3594	696.35267750334	1
0	3599	697.555228380627	0
0	3645	704.991499961129	1
0	3649	707.094797393179	2
0	3651	707.556797934771	3
0	3653	709.384081644438	4
0	3655	709.572637603785	5
0	3657	709.636521421968	6
0	3659	709.804017120643	7
0	3661	710.80308379157	8
0	3664	711.711846569116	7
0	3669	712.449390937383	6
0	3674	712.643315361639	5
0	3678	712.925716594065	6
0	3682	713.538234735704	7
0	3683	714.180386986905	6
0	3688	714.52724014544	5
0	3694	714.818144836069	6
0	3696	715.180709260459	5
0	3706	718.302578592747	4
0	3712	718.796676935266	5
0	3713	719.768226109838	4
0	3718	719.780929394778	3
0	3722	720.572834825455	4
0	3725	721.668858274458	3
0	3732	722.014371430236	4
0	3733	722.205368663751	3
0	3738	722.288432142869	2
0	3742	725.513034572364	3
0	3744	725.57072775106	4
0	3747	726.22555454734	3
0	3751	726.349165676493	4
0	3754	726.816545201277	3
0	3758	728.215768550434	4
0	3762	729.113520306848	3
0	3767	729.189254900971	2
0	3775	730.540967186309	3
0	3778	731.264690744011	2
0	3782	731.793862499872	3
0	3790	732.586042725448	4
0	3797	734.852475465905	5
0	3799	735.136302462089	6
0	3800	735.233297822894	5
0	3806	735.627116592185	6
0	3808	737.77759740744	7
0	3810	738.404876408493	8
0	3813	738.61888131975	7
0	3817	739.489419043589	8
0	3822	740.705667665229	7
0	3826	741.013763685853	8
0	3828	741.785484114003	9
0	3830	742.980463724107	10
0	3837	743.423661666171	11
0	3838	744.014821662736	10
0	3843	744.295720759841	9
0	3847	744.508720241891	10
0	3851	745.912770740068	9
0	3859	746.913374681268	10
0	3861	747.192283487286	11
0	3862	747.912644150077	10
0	3868	749.01965060238	9
0	3874	749.455521294721	10
0	3875	749.578419159663	9
0	3879	749.829672330123	10
0	3882	750.093746742941	9
0	3893	753.229681863714	8
0	3901	755.553566971277	9
0	3903	755.851350645793	10
0	3904	755.889944810602	9
0	3909	756.283151745613	8
0	3913	756.686014629098	9
0	3916	757.037756188024	8
0	3920	757.47420106862	9
0	3930	758.314950287557	8
0	3935	758.440713697653	7
0	3940	759.52521840111	6
0	3944	762.126874270614	7
0	3948	764.929286867669	6
0	3953	765.453218397928	5
0	3958	766.532709151205	4
0	3962	766.550024656249	5
0	3966	767.000881539371	6
0	3967	767.074455075911	5
0	3971	768.395720405326	6
0	3973	768.652661342283	7
0	3975	768.83848771196	8
0	3979	769.615398094335	9
0	3981	769.616822530822	10
0	3982	769.895902949737	9
0	3991	773.16955016426	10
0	3996	775.359109176793	9
0	4001	776.338426212168	8
0	4005	777.76484015896	9
0	4007	778.087388359529	10
0	4012	780.006747027608	9
0	4021	783.862828968836	8
0	4026	785.033584306136	7
0	4031	785.440951540093	6
0	4035	785.591410487468	7
0	4037	786.053674815833	8
0	4040	787.086472550679	7
0	4045	787.745226679167	6
0	4049	788.307615259191	7
0	4053	788.523597176326	6
0	4058	788.63771470473	5
0	4062	788.890267623647	6
0	4065	790.42993131735	5
0	4071	793.54228582157	6
0	4072	793.614653898504	5
0	4076	794.253693039709	6
0	4080	794.884103584012	7
0	4082	795.078123581237	8
0	4085	796.903077034304	7
0	4092	797.74659470353	8
0	4094	797.993582156439	9
0	4095	798.068596577151	8
0	4101	798.156562484274	7
0	4106	798.292781662757	6
0	4112	799.018831508523	7
0	4117	800.922267195957	8
0	4118	801.12953582511	7
0	4124	801.214237739185	8
0	4125	801.353906180607	7
0	4130	802.888853357684	6
0	4134	803.397515708244	7
0	4138	804.880354798048	8
0	4140	805.044290595874	9
0	4142	805.306565958018	10
0	4146	805.947241677425	11
0	4148	808.548270174926	12
0	4151	809.510576405662	11
0	4157	810.332031275279	10
0	4163	810.333160183358	11
0	4165	810.906671084173	10
0	4170	811.262121776978	9
0	4176	811.704652911336	10
0	4180	812.119272422452	11
0	4181	812.206705026789	10
0	4185	812.523726066618	11
0	4187	813.3225710394	12
0	4189	814.315301927868	13
0	4192	816.53828989561	12
0	4196	817.000948842588	13
0	4199	819.00599614875	12
0	4205	820.153747481908	11
0	4210	820.479080735324	10
0	4214	820.644767005144	11
0	4219	824.234524228713	12
0	4223	827.963548069739	11
0	4230	828.982017154544	12
0	4231	828.986363386389	11
0	4237	829.011501985052	12
0	4239	829.048381026851	13
0	4240	829.374246402428	12
0	4247	830.61406637951	11
0	4254	831.388756950421	12
0	4256	831.596178418014	13
0	4257	831.652227007126	12
0	4263	831.76735865016	13
0	4267	832.597156925476	14
0	4268	832.617110457977	13
0	4273	832.78201727013	12
0	4278	834.763273297202	11
0	4283	835.508346727573	10
0	4289	837.70235993962	11
0	4292	838.721063940061	10
0	4297	840.76358864743	9
0	4303	842.311814718727	8
0	4308	843.23000919826	7
0	4314	843.586993073768	8
0	4315	843.948848476543	7
0	4319	845.119467470457	8
0	4321	845.708746228913	9
0	4324	846.299151386638	8
0	4330	850.984753900375	9
0	4332	851.890960823311	10
0	4334	853.954743428042	11
0	4336	854.60000789332	12
0	4341	855.955177203682	11
0	4345	856.248084347657	12
0	4348	859.01396636171	11
0	4352	859.190493460574	12
0	4354	859.202114015362	13
0	4356	859.20938830043	14
0	4358	859.509517788938	15
0	4362	859.94825917126	16
0	4364	860.240998881261	17
0	4365	860.271781120006	16
0	4369	860.864666059619	17
0	4376	863.099150081189	16
0	4380	864.089136296367	17
0	4382	865.874929818235	18
0	4384	866.035857882213	19
0	4387	866.344282922893	18
0	4392	866.800716976861	17
0	4397	867.917522167086	16
0	4403	869.225957198963	15
0	4411	869.757516766138	16
0	4413	869.943219116122	17
0	4414	871.899428366499	16
0	4420	872.480987821885	17
0	4424	873.430726170147	18
0	4427	874.751250634391	17
0	4434	878.838874798388	16
0	4439	878.955749841011	15
0	4446	881.033778766887	14
0	4452	882.210416861454	13
0	4460	882.331330706684	14
0	4461	883.436292418024	13
0	4467	883.836196103773	14
0	4468	884.411146370326	13
0	4472	886.239205408832	14
0	4474	886.583198663596	15
0	4476	886.917443013556	16
0	4479	888.339436690369	15
0	4483	889.36381198016	16
0	4486	890.253830065799	15
0	4491	890.74621509314	14
0	4495	891.135736813047	15
0	4499	893.672526214799	16
0	4500	893.814477769674	15
0	4504	894.096187944235	16
0	4508	894.472457967905	17
0	4509	894.695770823556	16
0	4513	896.33111664675	17
0	4517	897.379468711501	18
0	4518	897.560543864947	17
0	4523	898.129986019592	16
0	4528	898.727725657919	15
0	4534	899.198658127078	14
0	4539	900.348711043808	13
0	4548	902.309067979596	12
0	4553	903.423885385886	11
0	4561	904.535917116137	12
0	4564	906.052473363791	11
0	4570	906.36847912327	10
0	4575	906.624820979571	9
0	4584	908.845973304844	10
0	4586	909.024561855258	11
0	4588	909.299753832559	12
0	4589	910.008459344076	11
0	4594	910.202682897167	10
0	4598	910.240997047353	11
0	4600	911.380860566503	12
0	4603	912.027279232681	11
0	4608	912.745151589396	10
0	4615	914.643971559987	9
0	4619	915.066032081209	10
0	4622	915.1497656854	9
0	4629	916.309381926405	8
0	4633	916.654006025004	9
0	4635	920.478937217346	10
0	4637	920.767065652509	11
0	4643	923.964467759323	12
0	4644	924.890578572526	11
0	4650	924.985902043436	12
0	4652	925.930869743965	11
0	4658	926.011861493816	12
0	4659	926.555271340221	11
0	4665	926.686816161319	12
0	4668	927.00781643122	13
0	4669	928.076005148773	12
0	4675	929.198797213716	11
0	4680	929.208855863796	10
0	4686	931.659878333265	11
0	4687	932.019142523218	10
0	4692	932.557526451219	9
0	4697	932.999645855156	8
0	4703	933.754653800147	9
0	4704	934.416532880116	8
0	4709	934.880416446049	7
0	4713	935.719320481707	8
0	4717	938.166880849233	7
0	4722	939.662144846651	6
0	4727	941.383077230473	5
0	4733	943.436487342817	6
0	4734	943.565667206683	5
0	4739	944.033006995182	4
0	4744	946.915359307904	3
0	4750	947.437907566391	4
0	4751	947.610606608119	3
0	4757	949.613202733865	4
0	4758	950.770288064024	3
0	4766	952.838157977925	4
0	4767	953.081961380988	3
0	4772	954.260321290729	2
0	4777	954.893744515703	1
0	4783	956.641434482333	2
0	4786	957.300376896172	1
0	4790	957.337385667279	2
0	4792	958.87139665171	3
0	4794	959.294350796901	4
0	4798	959.656603472716	3
0	4804	959.969820099513	4
0	4805	960.303991137551	3
0	4809	960.733726807189	4
0	4814	961.451451150958	3
0	4820	962.078050909534	4
0	4822	962.698412348997	5
0	4825	963.356741074297	4
0	4829	963.757969597919	5
0	4832	966.186769359523	4
0	4837	967.382641330983	3
0	4841	967.458891133783	4
0	4843	968.466221599392	5
0	4846	969.211995564697	4
0	4852	969.593843022869	3
0	4857	969.645975251478	2
0	4861	970.708596913297	3
0	4864	972.090343593999	2
0	4868	973.237146932136	3
0	4872	974.125940851731	2
0	4877	974.211781179413	1
0	4886	975.824847191369	2
0	4890	976.578376419318	3
0	4892	977.197327054615	2
0	4897	977.503769422989	1
0	4902	979.12327415842	0
0	4972	989.744947880032	1
0	4975	990.54314375782	0
0	4984	992.438397797778	1
0	4988	992.852353848287	2
0	4995	993.724762799428	3
0	4997	993.979227090559	4
0	4998	995.111524876288	3
0	5005	996.188310691186	4
0	5010	997.569918333329	3
0	5015	997.632744661672	2
0	5020	997.689871758444	1
0	5025	998.844411512745	0
0	5040	999.404341253091	1
0	5041	999.494423584148	0
0	5047	999.787990756752	1
0	5048	1000.267308770982	0
0	5054	1001.897500806594	1
0	5057	1003.085016240223	0
0	5061	1003.692400895651	1
0	5065	1005.57435402975	2
0	5066	1007.635681677609	1
0	5070	1008.96412652015	2
0	5073	1009.11674606005	1
0	5077	1009.253379911071	2
0	5079	1009.437764602646	3
0	5083	1010.266523434051	2
0	5090	1011.138905773202	3
0	5091	1011.175886481779	2
0	5098	1011.743086893967	3
0	5099	1011.760265295567	2
0	5104	1013.861496194642	1
0	5109	1014.396563093673	0
0	5115	1015.08837848885	1
0	5116	1016.418266382277	0
0	5120	1016.695646473076	1
0	5123	1017.649247119634	0
0	5139	1018.375956696864	1
0	5140	1018.689020831003	0
0	5144	1018.829082038901	1
0	5146	1019.078231248428	2
0	5148	1019.095600049759	3
0	5152	1019.724826514742	4
0	5155	1020.340692472048	3
0	5164	1022.711294199052	2
0	5170	1023.891792140636	1
0	5177	1024.760434041322	0
0	5183	1025.629399607733	1
0	5184	1025.740398849268	0
0	5215	1031.913219508299	1
0	5217	1032.152241850068	2
0	5220	1032.720017939992	1
0	5226	1034.098336446675	0
0	5233	1034.154956382271	1
0	5239	1036.237724715081	2
0	5240	1036.756396744557	1
0	5249	1038.097013147925	2
0	5250	1038.160406316943	1
0	5256	1038.204520886738	2
0	5258	1038.411889254363	3
0	5261	1038.947916864774	4
0	5262	1039.276187524302	3
0	5268	1039.33436495252	4
0	5269	1039.391748651277	3
0	5275	1039.602553625534	4
0	5276	1039.722064381699	3
0	5282	1041.16205933518	4
0	5284	1041.761997387431	5
0	5285	1041.802449212406	4
0	5289	1041.872790379526	5
0	5293	1041.994803737381	6
0	5295	1042.231199495767	5
0	5300	1042.838741182516	4
0	5304	1043.827669960938	5
0	5307	1045.753473425279	4
0	5312	1046.534735680098	3
0	5316	1047.047545375416	4
0	5318	1048.005031944547	5
0	5321	1048.184250845591	4
0	5325	1048.218468144843	5
0	5332	1049.263525568331	4
0	5337	1049.509691065409	3
0	5343	1049.677656867077	4
0	5344	1050.231200489285	3
0	5349	1052.069582768084	2
0	5355	1053.094161129902	3
0	5357	1053.579495130877	4
0	5359	1054.071846770116	3
0	5365	1054.448532766485	4
0	5367	1055.333804484926	5
0	5368	1055.517471474106	4
0	5372	1057.083890208489	5
0	5380	1058.8311483092	6
0	5383	1060.627336468244	5
0	5387	1061.013776123219	6
0	5389	1061.534988767915	7
0	5392	1062.501578926005	6
0	5396	1062.892054200369	7
0	5403	1067.090187066976	6
0	5409	1067.296035948804	7
0	5410	1068.149250506826	6
0	5416	1069.153194142282	7
0	5418	1069.237091851435	8
0	5422	1070.279237881892	9
0	5423	1070.375693074532	8
0	5429	1071.339122368558	7
0	5434	1071.500884433653	6
0	5440	1071.86427376318	7
0	5442	1072.707882980114	8
0	5443	1074.064910515014	7
0	5449	1075.634727106896	8
0	5452	1076.056908284558	7
0	5457	1078.809964499514	6
0	5463	1080.600388643322	7
0	5468	1081.587254836222	6
0	5473	1081.935108792118	5
0	5478	1082.299920286713	4
0	5482	1082.776243220048	5
0	5484	1083.064808548851	6
0	5488	1083.488148858583	7
0	5491	1084.629812050365	6
0	5498	1085.724153630919	5
0	5503	1087.17299540385	4
0	5507	1087.743706615895	5
0	5509	1089.404759764787	6
0	5513	1090.297537574589	5
0	5519	1091.028797038913	4
0	5525	1091.264742422684	3
0	5530	1091.897404992489	2
0	5537	1093.670114412809	3
0	5538	1093.676955008263	2
0	5543	1093.94673079103	1
0	5548	1097.403185982985	0
0	5567	1100.256356407563	1
0	5572	1101.817318285816	0
0	5599	1106.6837676755	1
0	5601	1108.307993514856	2
0	5605	1109.057699718279	3
0	5606	1109.213948345495	2
0	5617	1110.426658360652	3
0	5620	1110.838813869983	4
0	5621	1111.411222765727	3
0	5627	1111.493419596547	4
0	5628	1112.261608676562	3
0	5633	1112.582018714555	2
0	5640	1114.649119264839	1
0	5645	1115.246292277012	0
0	5665	1117.518637660987	1
0	5671	1119.494303069641	2
0	5673	1120.679421287607	3
0	5678	1124.240532997706	2
0	5683	1125.300192653054	1
0	5690	1126.538058270318	2
0	5692	1127.111833003019	3
0	5696	1127.432153144132	4
0	5698	1127.666624046995	5
0	5699	1127.976558815953	4
0	5705	1128.636080271857	3
0	5711	1128.707365349999	4
0	5712	1129.46034580816	3
0	5716	1130.971887464215	4
0	5718	1131.094642190965	5
0	5720	1131.36695160103	6
0	5722	1131.760090017554	7
0	5725	1131.962988517613	6
0	5730	1134.050156499744	5
0	5734	1134.415323193484	6
0	5738	1134.803938040876	7
0	5741	1136.853764185505	6
0	5747	1137.129079440348	5
0	5752	1137.149300079515	4
0	5757	1137.366352979317	3
0	5762	1139.641710220252	2
0	5771	1142.199637941602	3
0	5772	1142.339484151537	2
0	5777	1142.46456748846	1
0	5782	1142.965685925458	0
0	5790	1143.871872301469	1
0	5795	1145.987671771925	0
0	5803	1146.932495784228	1
0	5805	1147.898976845135	2
0	5806	1149.394014067794	1
0	5813	1149.854677175258	0
0	5827	1151.992650952576	1
0	5830	1152.954386445942	0
0	5853	1155.19459481269	1
0	5855	1155.973687605808	2
0	5859	1156.959462157101	3
0	5862	1157.927240606318	4
0	5864	1157.960160441258	5
0	5866	1160.004148835751	4
0	5872	1160.549986500437	3
0	5877	1161.712932465424	2
0	5883	1162.859168489911	3
0	5886	1163.409228424156	2
0	5893	1164.862023702873	1
0	5900	1165.610338132935	2
0	5903	1166.674328967061	1
0	5911	1169.724779471046	2
0	5919	1171.165703188124	3
0	5923	1172.349196507306	4
0	5924	1173.729708786713	3
0	5931	1175.836738664194	2
0	5935	1176.959075343741	3
0	5942	1177.867499054228	2
0	5948	1178.730963004381	1
0	5953	1179.07398947941	0
0	5967	1181.168473527637	1
0	5969	1181.299475856095	2
0	5970	1181.540478525851	1
0	5975	1181.8223370747	0
0	5979	1181.925749195016	1
0	5985	1182.454556639363	2
0	5987	1182.982359173338	1
0	5995	1183.5357944303	2
0	5996	1184.08354699499	1
0	6004	1185.062510575534	2
0	6005	1185.063947107064	1
0	6011	1185.455193437603	2
0	6013	1185.458246289739	3
0	6016	1186.749469683358	2
0	6021	1187.154725456049	1
0	6025	1187.188534630676	2
0	6030	1188.010628861482	1
0	6035	1188.476423343729	0
0	6059	1190.720134577196	1
0	6061	1191.258055553511	0
0	6082	1194.396117244265	1
0	6083	1194.865128374007	0
0	6093	1197.52309069402	1
0	6095	1198.157208049358	0
0	6108	1199.054258816276	1
0	6109	1199.365898101271	0
0	6123	1200.933260680256	1
0	6128	1202.705416137025	0
0	6142	1203.560253088882	1
0	6145	1204.312672840194	0
0	6149	1204.606324138552	1
0	6156	1205.30584301341	0
0	6160	1205.411851486812	1
0	6162	1206.312653914184	2
0	6164	1206.922693660443	3
0	6166	1207.065515675985	4
0	6169	1207.700954023827	3
0	6174	1208.134439424117	2
0	6179	1208.52461495457	1
0	6183	1208.831519500158	2
0	6186	1210.457540317096	1
0	6191	1211.699362365698	0
0	6220	1218.446917309751	1
0	6222	1218.547233690833	2
0	6223	1219.190330596015	1
0	6228	1219.385226500338	0
0	6237	1220.907814344812	1
0	6241	1221.604703931969	0
0	6262	1224.802604065534	1
0	6264	1225.145836361948	2
0	6266	1225.242088046408	3
0	6268	1226.283648092473	4
0	6272	1226.664516469896	5
0	6276	1227.997449985954	6
0	6282	1229.473890793326	7
0	6283	1229.666852752824	6
0	6292	1230.464307163094	7
0	6296	1231.082224419673	8
0	6297	1231.163483463789	7
0	6305	1232.334614016201	6
0	6314	1233.643815943748	5
0	6319	1233.908877557863	4
0	6325	1234.307728882926	3
0	6330	1235.937814775205	2
0	6335	1236.777900858565	1
0	6340	1239.061960260886	0
0	6344	1240.574433106675	1
0	6347	1241.740263108309	0
0	6353	1241.989825576222	1
0	6354	1241.991544017103	0
0	6367	1242.800247845628	1
0	6368	1243.040892713456	0
0	6380	1243.852881445896	1
0	6382	1243.884218174592	2
0	6383	1244.111816431945	1
0	6388	1244.291402830794	0
0	6394	1245.295101051418	1
0	6395	1245.740619254215	0
0	6404	1248.634305445804	1
0	6406	1249.954999969345	2
0	6414	1252.093755946712	1
0	6421	1252.461477687221	0
0	6428	1252.754688631958	1
0	6429	1253.149505608964	0
0	6435	1253.309270918978	1
0	6439	1254.13167726453	0
0	6463	1258.758029625545	1
0	6466	1259.576855952718	0
0	6505	1266.426576093264	1
0	6511	1268.859329689297	2
0	6512	1269.236286774971	1
0	6517	1269.393239591914	0
0	6523	1269.95617194399	1
0	6524	1270.870221067166	0
0	6528	1271.070063858892	1
0	6531	1271.347675553112	0
0	6545	1276.438494585483	1
0	6551	1278.473471608577	2
0	6555	1279.835788961951	1
0	6561	1280.41868766377	0
0	6565	1280.50585081732	1
0	6567	1281.118828806534	2
0	6570	1282.568583049859	1
0	6575	1282.882500900652	0
0	6587	1285.501691980646	1
0	6589	1286.059376314181	0
0	6605	1287.814689568123	1
0	6609	1288.194643338885	2
0	6613	1291.193774339181	1
0	6618	1291.328954090795	0
0	6635	1292.682140390128	1
0	6637	1292.958441136311	0
0	6647	1294.770696884713	1
0	6648	1295.12600191252	0
0	6652	1295.935246106585	1
0	6658	1297.428021812611	2
0	6659	1297.679259496039	1
0	6664	1298.104167947932	0
0	6683	1301.836451004711	1
0	6685	1302.173462954556	0
0	6709	1305.082348079227	1
0	6712	1305.828003870406	0
0	6731	1307.535691779024	1
0	6732	1309.834575663499	0
0	6743	1310.919228912886	1
0	6745	1310.969370537378	2
0	6751	1313.091106012718	1
0	6760	1314.722884440823	2
0	6762	1315.270699606841	1
0	6768	1315.277520177672	2
0	6769	1315.28952414982	1
0	6775	1315.725720828325	0
0	6779	1316.279217482395	1
0	6782	1317.663415481297	0
0	6786	1318.431405758718	1
0	6790	1320.949899680143	2
0	6792	1322.293378406768	3
0	6799	1323.468435393524	4
0	6801	1323.727842436382	5
0	6802	1324.238653216587	4
0	6808	1324.730969166853	5
0	6809	1325.282766710227	4
0	6814	1326.139941375866	3
0	6818	1327.960851740474	4
0	6822	1329.117023504994	5
0	6823	1330.343682308886	4
0	6827	1330.459333777263	5
0	6829	1331.242742978093	6
0	6834	1334.004472542663	5
0	6838	1334.174213496389	6
0	6840	1334.389207921502	7
0	6844	1335.855757950935	8
0	6848	1336.396898790076	9
0	6849	1336.668662723863	8
0	6854	1337.903352381048	7
0	6862	1339.368828104898	8
0	6864	1339.768412897947	7
0	6870	1339.873335831945	8
0	6872	1340.17674426915	9
0	6877	1340.750563107617	10
0	6878	1341.243335691537	9
0	6884	1341.246811329818	10
0	6885	1342.35322444068	9
0	6890	1342.77630552838	8
0	6897	1343.526367146558	9
0	6900	1344.298300567533	10
0	6902	1345.148231005678	11
0	6903	1345.278508273529	10
0	6910	1346.871786473462	9
0	6917	1347.370679066224	8
0	6922	1347.743212739956	7
0	6928	1348.461221933015	8
0	6929	1348.840575881346	7
0	6934	1349.202750362881	6
0	6940	1350.235215095866	5
0	6945	1350.930251065797	4
0	6949	1353.105624311627	5
0	6951	1355.224701683654	6
0	6955	1355.657380029878	5
0	6960	1355.932621334094	4
0	6966	1357.121972602995	5
0	6969	1357.502762697965	4
0	6973	1357.514704125587	5
0	6978	1358.137054831548	4
0	6984	1358.4083041426	5
0	6985	1358.490148611272	4
0	6989	1358.730887877389	5
0	6992	1358.877365530381	4
0	6998	1359.211969992936	5
0	7002	1361.379191349206	6
0	7003	1362.625715655496	5
0	7009	1363.79725418284	4
0	7014	1364.452586328152	3
0	7018	1365.12223201518	4
0	7020	1365.929967121474	5
0	7022	1366.223292392205	6
0	7026	1367.42195963103	5
0	7034	1368.469110366086	4
0	7040	1368.616404053943	5
0	7042	1368.707177473351	6
0	7043	1368.809570162667	5
0	7047	1368.925413941707	6
0	7050	1370.336692687109	5
0	7054	1371.342098836113	6
0	7058	1372.523573530287	5
0	7063	1372.68321238705	4
0	7067	1373.600890648847	5
0	7069	1374.17070619113	6
0	7071	1374.361719676091	7
0	7073	1375.341926373166	8
0	7075	1375.770934261726	9
0	7079	1379.004804152022	10
0	7080	1379.741780711997	9
0	7089	1380.44371027416	8
0	7094	1382.556434967335	7
0	7099	1384.749711362704	6
0	7104	1385.208609910476	5
0	7109	1386.485009791502	4
0	7113	1386.619114115446	5
0	7117	1386.960370016811	6
0	7119	1388.53148455874	5
0	7124	1390.876918640639	4
0	7129	1391.585880819584	3
0	7136	1393.75688752185	2
0	7141	1394.398325293322	1
0	7146	1394.808270898503	0
0	7171	1397.734560243909	1
0	7173	1397.908948178254	2
0	7174	1397.959214426668	1
0	7182	1400.495109375553	2
0	7183	1401.20810503635	1
0	7188	1401.65914304614	0
0	7197	1402.661759603742	1
0	7199	1403.212783761662	0
0	7205	1403.228212833746	1
0	7207	1403.508936963936	2
0	7208	1404.815925354897	1
0	7214	1405.367292357559	0
0	7233	1406.497564043619	1
0	7234	1406.576296906721	0
0	7240	1407.062811521902	1
0	7242	1407.886438430352	2
0	7244	1408.644542792192	1
0	7249	1408.968526705697	0
0	7260	1410.288269853428	1
0	7261	1410.428434592137	0
0	7265	1411.033241702173	1
0	7272	1412.086193633841	0
0	7276	1412.542530547111	1
0	7282	1413.949134022222	2
0	7284	1414.232151199846	3
0	7288	1415.611410350782	4
0	7289	1416.2990565403	3
0	7293	1417.160041993786	4
0	7295	1417.740310207606	5
0	7299	1418.091470855036	6
0	7300	1418.197968763472	5
0	7304	1418.97419802359	6
0	7309	1420.576027013825	5
0	7315	1421.65958143024	6
0	7317	1422.701150992465	7
0	7318	1422.899068406957	6
0	7322	1423.063036649718	7
0	7327	1424.280881497179	6
0	7333	1424.965338936031	7
0	7334	1425.204829203211	6
0	7341	1426.250924380454	5
0	7349	1427.355764297498	6
0	7350	1427.475658327789	5
0	7356	1427.951660952778	6
0	7357	1429.172639001889	5
0	7361	1429.214974045066	6
0	7363	1429.308921076121	7
0	7365	1429.474175139183	8
0	7370	1432.872594941996	7
0	7375	1433.091970343879	6
0	7380	1434.194947722135	5
0	7384	1435.07353093902	6
0	7389	1438.195171478909	5
0	7394	1438.958511220242	4
0	7399	1439.596532288908	3
0	7407	1440.175933228344	4
0	7410	1440.389881515778	3
0	7415	1441.142241324681	2
0	7420	1441.190496006244	1
0	7426	1442.704505493067	0
0	7433	1443.298642684332	1
0	7434	1443.497979662032	0
0	7440	1443.925261769154	1
0	7442	1444.315562077589	2
0	7444	1445.472652631019	3
0	7445	1447.241687304979	2
0	7449	1447.577036836894	3
0	7453	1448.498036271952	4
0	7456	1448.946434333045	5
0	7458	1449.159573085864	6
0	7460	1449.886356282677	7
0	7461	1449.987290533162	6
0	7472	1450.427215627935	5
0	7477	1450.478751888658	4
0	7483	1451.283596044024	3
0	7489	1451.364325774741	4
0	7491	1453.298141158365	3
0	7496	1453.898164059236	2
0	7506	1458.163683546483	3
0	7507	1458.188192831682	2
0	7515	1458.520132779294	3
0	7518	1460.545689102251	2
0	7523	1460.649090926822	1
0	7527	1460.717501565954	2
0	7529	1460.872767929549	3
0	7533	1461.183476717764	4
0	7535	1461.548279387453	3
0	7541	1461.710153029703	4
0	7542	1461.887173964184	3
0	7548	1463.286885824223	2
0	7553	1463.306357086026	1
0	7559	1463.617360497942	2
0	7560	1464.650571279168	1
0	7566	1466.364791907132	2
0	7567	1466.959232951726	1
0	7572	1467.344303197959	0
0	7576	1467.546198064032	1
0	7585	1469.083219047089	0
0	7597	1471.940882921	1
0	7598	1472.83694349954	0
0	7609	1473.341751486168	1
0	7610	1474.127551161329	0
0	7626	1474.880483194339	1
0	7628	1475.030002497653	0
0	7634	1475.258182091773	1
0	7635	1475.605226352344	0
0	7653	1479.819732544932	1
0	7655	1480.890376128353	2
0	7658	1481.404806460173	1
0	7665	1481.595651704246	2
0	7666	1482.407736006162	1
0	7671	1482.812094598234	0
0	7688	1485.42999169364	1
0	7689	1485.598073590919	0
0	7696	1485.860351060228	1
0	7698	1486.401038958468	2
0	7699	1486.4493319294	1
0	7709	1487.388770530089	0
0	7732	1490.641393233447	1
0	7734	1490.72862585373	2
0	7738	1491.064755094794	3
0	7742	1491.708568408516	2
0	7747	1491.709632881791	1
0	7751	1491.860772533906	2
0	7756	1492.738004810819	1
0	7762	1495.036434633988	2
0	7764	1495.955288121222	3
0	7766	1497.088971400422	4
0	7768	1498.937831850506	5
0	7772	1500.308813429177	6
0	7774	1500.321713118847	7
0	7776	1501.77461719766	6
0	7782	1501.983032228162	7
0	7783	1502.088433314764	6
0	7787	1502.261254550122	7
0	7790	1504.710397604814	6
0	7795	1505.084282390898	5
0	7801	1505.791324747214	6
0	7804	1506.802779622359	5
0	7808	1507.533801507927	6
0	7811	1508.151168335375	5
0	7815	1509.099205660632	6
0	7817	1510.891393970621	7
0	7820	1511.822996349827	6
0	7825	1512.311034691834	5
0	7830	1513.301103689243	4
0	7836	1513.88811804459	5
0	7837	1514.026049987215	4
0	7841	1514.492954643088	5
0	7844	1515.555261546473	4
0	7852	1517.977581393624	5
0	7853	1518.341573233966	4
0	7857	1518.556511327812	5
0	7860	1519.055314396834	4
0	7864	1519.086864276999	5
0	7872	1520.638081232281	4
0	7879	1521.078112235546	5
0	7880	1521.344166820287	4
0	7885	1521.44955902742	3
0	7890	1521.675480831858	2
0	7894	1524.146462034304	3
0	7899	1527.95689297848	2
0	7904	1528.796757183495	1
0	7912	1529.860076015528	2
0	7913	1529.896492024212	1
0	7917	1530.485454794454	2
0	7921	1532.265247323769	3
0	7924	1534.021222072722	2
0	7928	1534.673340369013	3
0	7931	1535.35942710834	2
0	7936	1537.016651706519	1
0	7941	1537.899224913508	0
0	7945	1537.960354798746	1
0	7948	1539.054187230971	0
0	7952	1539.448699522447	1
0	7955	1541.870723187154	0
0	7972	1543.544593798665	1
0	7976	1545.345465368348	0
0	7982	1545.360273594673	1
0	7983	1545.603343836801	0
0	7994	1545.948096157208	1
0	7995	1546.077553884569	0
0	8013	1549.252712819711	1
0	8016	1549.767547361849	0
0	8022	1549.815085285218	1
0	8025	1550.838463337136	0
0	8032	1550.990466035168	1
0	8033	1551.220870210931	0
0	8039	1552.149691119804	1
0	8040	1552.612088543149	0
0	8046	1553.009825285557	1
0	8052	1555.864931920393	0
0	8079	1557.242253155001	1
0	8081	1557.667572541705	0
0	8087	1558.069062846299	1
0	8092	1558.521930795231	2
0	8096	1558.856921123886	3
0	8098	1559.302662689149	2
0	8103	1559.494791684791	1
0	8109	1561.170998791567	0
0	8113	1561.265723875446	1
0	8116	1562.396984416242	0
0	8120	1562.415884183017	1
0	8123	1563.533565133467	0
0	8129	1563.758754236959	1
0	8137	1565.440179278122	0
0	8149	1566.944272616976	1
0	8151	1567.618953365889	2
0	8152	1568.093614603148	1
0	8157	1569.17274348824	0
0	8168	1570.108222808668	1
0	8170	1570.296202021635	2
0	8171	1570.345331398479	1
0	8177	1571.037350328598	0
0	8188	1571.769585150126	1
0	8189	1573.424007849735	0
0	8208	1575.615207464945	1
0	8217	1580.126280431701	2
0	8218	1580.989331374642	1
0	8224	1581.634018177842	0
0	8240	1585.548083496024	1
0	8241	1586.018444788178	0
0	8247	1586.31478061172	1
0	8250	1587.910868868251	0
0	8261	1588.446799351979	1
0	8264	1588.955654877273	0
0	8268	1591.09036474716	1
0	8271	1592.373888173938	0
0	8284	1594.518885310695	1
0	8285	1594.789403745239	0
0	8292	1595.646355636587	1
0	8293	1595.661181467058	0
0	8299	1595.787511654546	1
0	8300	1595.934968294546	0
0	8314	1597.318251491626	1
0	8316	1597.625253257733	2
0	8318	1598.448927315054	3
0	8320	1600.272850064513	4
0	8324	1601.314586631745	5
0	8326	1601.535251794298	6
0	8330	1602.750714986525	5
0	8337	1603.665286843012	6
0	8338	1604.276695767688	5
0	8345	1605.28730901144	4
0	8350	1606.538087164173	3
0	8355	1608.007998348266	2
0	8365	1609.241533127479	3
0	8367	1610.254922026683	2
0	8372	1610.371415481172	1
0	8377	1612.768654805916	0
0	8392	1614.721035750054	1
0	8393	1615.660910969837	0
0	8399	1616.082926336428	1
0	8400	1616.281585379893	0
0	8404	1616.828170176013	1
0	8406	1617.522550247312	2
0	8410	1618.134932193539	3
0	8411	1619.070936759449	2
0	8415	1619.133511483937	3
0	8417	1619.259342549147	4
0	8423	1619.909617129772	5
0	8424	1620.293933920378	4
0	8430	1620.585810963915	5
0	8431	1622.180625465202	4
0	8435	1625.216524684465	5
0	8438	1625.473834139572	4
0	8442	1625.751169290217	5
0	8445	1626.213961082449	4
0	8449	1626.216513929875	5
0	8451	1627.276066388007	6
0	8454	1627.353336758417	5
0	8458	1628.420447270684	6
0	8467	1633.244235440966	5
0	8472	1633.772551019693	4
0	8478	1634.610394403982	5
0	8479	1634.936810049935	4
0	8483	1636.469216423074	5
0	8489	1638.184860099293	6
0	8492	1638.677370568002	5
0	8499	1639.881758804402	4
0	8505	1640.429390285081	3
0	8513	1641.402849174457	2
0	8519	1642.131673168768	3
0	8520	1642.139502539044	2
0	8524	1642.233646902086	3
0	8526	1642.5113056702	4
0	8536	1645.84009543143	5
0	8537	1646.035992407673	4
0	8546	1647.002108751431	3
0	8550	1648.389546928793	4
0	8552	1649.965439357206	5
0	8554	1650.024262206516	6
0	8559	1650.436744756748	7
0	8560	1650.659028707187	6
0	8565	1650.659330445356	5
0	8571	1652.77854694347	4
0	8576	1653.413497245205	3
0	8580	1654.297195131602	4
0	8583	1654.966700110449	3
0	8591	1657.134944055484	4
0	8593	1657.644034855004	5
0	8594	1658.728332318859	4
0	8599	1660.2607386996	3
0	8605	1661.400497115696	2
0	8613	1662.181444092073	3
0	8615	1662.468969976926	2
0	8623	1663.188965320498	1
0	8629	1663.337467144197	0
0	8654	1666.067295653005	1
0	8657	1668.07030974034	0
0	8666	1668.174320516122	1
0	8670	1668.851904424305	2
0	8671	1669.277966145322	1
0	8677	1669.373592394343	2
0	8679	1669.397951462998	3
0	8682	1670.097646712179	2
0	8688	1671.034428652114	1
0	8694	1672.765274667349	0
0	8706	1674.043203830566	1
0	8707	1674.821685357634	0
0	8713	1675.971998722176	1
0	8714	1676.168220076603	0
0	8718	1676.211347516934	1
0	8720	1676.628011493883	2
0	8723	1677.85411068537	1
0	8728	1677.982517155565	0
0	8732	1678.085774701345	1
0	8739	1679.746424114263	2
0	8740	1679.791201250988	1
0	8746	1679.878782385765	2
0	8751	1682.754057264928	1
0	8758	1682.987156519551	0
0	8770	1683.803022701412	1
0	8771	1683.868884222931	0
0	8775	1684.623842697094	1
0	8781	1687.329977134254	2
0	8783	1688.921001440688	3
0	8784	1688.933171991771	2
0	8788	1689.050567685325	3
0	8790	1689.455025133291	4
0	8793	1690.508012270469	3
0	8801	1691.784711766695	4
0	8802	1692.521858984397	3
0	8806	1694.484917554818	4
0	8808	1694.777458333245	5
0	8815	1696.773006216228	6
0	8816	1697.099995268492	5
0	8821	1697.567247375961	4
0	8826	1700.347244348366	3
0	8831	1701.214038797077	2
0	8835	1701.286841490129	3
0	8839	1702.257212882549	4
0	8843	1703.460612145793	5
0	8846	1704.987309029209	6
0	8850	1705.590542123174	5
0	8855	1705.949344179475	4
0	8861	1706.115175232098	5
0	8862	1707.14596013859	4
0	8866	1707.880409005899	5
0	8868	1708.388372268351	6
0	8871	1708.880670617971	5
0	8877	1711.170143914538	6
0	8878	1711.170568037563	5
0	8885	1713.309611904835	4
0	8889	1714.333107051783	5
0	8891	1714.385196091714	6
0	8894	1715.296836109739	5
0	8899	1715.999616101002	4
0	8905	1716.214120301452	3
0	8911	1717.295910333283	2
0	8918	1717.509775016904	3
0	8919	1718.309315478524	2
0	8925	1718.789894216351	3
0	8926	1719.05947404535	2
0	8931	1719.179957394755	1
0	8937	1720.09605911703	2
0	8942	1722.305133176747	1
0	8948	1723.363687531807	0
0	8971	1726.389334605627	1
0	8972	1726.579335091661	0
0	8978	1727.198819300978	1
0	8980	1728.456388682476	2
0	8982	1728.573416866508	1
0	8987	1728.748324511712	0
0	9005	1730.516187276631	1
0	9006	1730.656341554498	0
0	9023	1734.000564471014	1
0	9035	1738.327051666422	0
0	9059	1740.829226004861	1
0	9060	1740.892743744866	0
0	9072	1743.833967305667	1
0	9078	1748.011331782895	2
0	9079	1748.126483445754	1
0	9084	1748.163142047357	0
0	9096	1750.194041074557	1
0	9097	1750.801908672461	0
0	9107	1751.719293268053	1
0	9109	1752.403649495013	2
0	9115	1753.756656502686	3
0	9122	1754.719098841478	2
0	9129	1756.573198258973	1
0	9133	1757.895917466798	2
0	9141	1761.146173643691	3
0	9142	1761.18251434081	2
0	9146	1761.859049192193	3
0	9151	1764.18681819414	2
0	9158	1765.579187216456	1
0	9164	1767.104987122985	2
0	9168	1768.232853419993	3
0	9170	1769.286185125319	4
0	9173	1769.446856204209	3
0	9178	1770.830987370224	2
0	9186	1772.288457679719	1
0	9192	1772.389360607242	2
0	9194	1772.422113905969	3
0	9196	1773.050383265684	4
0	9198	1773.139462140455	5
0	9203	1773.666231527	4
0	9208	1774.007279742424	3
0	9214	1774.555749194282	2
0	9222	1775.037756411602	3
0	9224	1775.351246095069	4
0	9225	1775.561092538666	3
0	9229	1775.946859797307	4
0	9234	1777.900845326862	5
0	9236	1778.264673531415	6
0	9237	1778.304204407948	5
0	9242	1778.699671918261	4
0	9246	1779.077654885221	5
0	9250	1779.708857286872	4
0	9256	1780.392655385198	5
0	9257	1780.464859368933	4
0	9262	1782.117217467726	3
0	9273	1784.558360375094	4
0	9275	1785.048769754018	5
0	9276	1785.05170119434	4
0	9282	1786.63248093591	5
0	9283	1786.685493562036	4
0	9292	1790.110747665159	3
0	9296	1790.414429239992	4
0	9299	1792.215211162338	3
0	9304	1793.245045041206	2
0	9312	1796.335498345553	3
0	9314	1796.640079318829	4
0	9315	1796.71023561583	3
0	9321	1797.166279801894	4
0	9322	1797.260383909565	3
0	9327	1799.494787553278	2
0	9332	1800.366184340657	1
0	9338	1801.894197338085	2
0	9340	1802.559210139851	1
0	9346	1802.637729535614	2
0	9347	1804.632365109179	1
0	9351	1804.870305373594	2
0	9356	1805.494733548001	1
0	9361	1805.603610434063	0
0	9388	1809.09825564985	1
0	9389	1809.933376978429	0
0	9420	1812.987613555096	1
0	9422	1813.008576330007	2
0	9428	1814.818651795521	1
0	9435	1815.734463737263	2
0	9437	1815.748429734108	3
0	9440	1815.936688489523	2
0	9445	1816.63088474989	1
0	9450	1816.950608195381	0
0	9454	1817.353766042866	1
0	9457	1817.642929978515	0
0	9461	1817.909916082552	1
0	9464	1818.292631487759	0
0	9478	1819.961570529229	1
0	9479	1820.436751092143	0
0	9490	1821.402053605091	1
0	9491	1821.580355022394	0
0	9495	1821.615894870314	1
0	9504	1822.695326728074	2
0	9505	1823.814505250085	1
0	9510	1823.982935741587	0
0	9529	1827.966420172199	1
0	9532	1829.766394782637	0
0	9540	1834.084007068059	1
0	9545	1836.743122954762	0
0	9551	1838.604218628806	1
0	9555	1839.736065387137	2
0	9562	1840.828041143407	1
0	9566	1841.503381197517	2
0	9568	1841.957686897682	3
0	9571	1842.923622433518	2
0	9579	1843.640534927328	1
0	9587	1844.020312986338	0
0	9608	1849.178955164728	1
0	9610	1850.462049104231	2
0	9615	1851.800236111539	1
0	9621	1852.513686303285	0
0	9630	1853.714897051852	1
0	9632	1853.902402446307	2
0	9636	1854.645346064197	1
0	9641	1856.06067109042	0
0	9647	1856.967700156631	1
0	9649	1857.536259472308	0
0	9653	1858.572492621813	1
0	9658	1859.115070292538	0
0	9671	1860.667043983232	1
0	9672	1860.830754662065	0
0	9724	1871.245935445762	1
0	9725	1871.250738397966	0
0	9731	1871.824558385679	1
0	9732	1871.876621194322	0
0	9738	1872.008838896055	1
0	9741	1873.015300853271	2
0	9742	1873.566544151028	1
0	9748	1873.657985683621	2
0	9750	1874.159462845707	1
0	9756	1874.190440246453	2
0	9759	1875.538401206874	1
0	9763	1877.591373334608	2
0	9767	1878.120474673642	3
0	9769	1879.581411906336	4
0	9777	1881.589355805786	3
0	9782	1882.284185938906	2
0	9790	1886.865037119608	1
0	9795	1888.073105246117	0
0	9801	1889.460308620998	1
0	9803	1889.821810978961	2
0	9806	1890.711217618466	1
0	9810	1891.752655957066	2
0	9814	1893.255849360176	1
0	9819	1893.342185915108	0
0	9837	1897.491386849307	1
0	9839	1897.783085851252	0
0	9857	1900.938249538283	1
0	9859	1901.461357785374	2
0	9862	1904.693249358199	1
0	9869	1906.621028905679	0
0	9875	1906.761636560861	1
0	9880	1910.886962078066	2
0	9881	1912.777499592279	1
0	9887	1913.646584643723	2
0	9892	1914.465373751477	1
0	9898	1915.191138700152	2
0	9900	1916.425409050399	1
0	9907	1917.057123450631	2
0	9909	1917.163978510466	3
0	9914	1918.250698871002	4
0	9915	1918.622914646017	3
0	9920	1918.763767314716	2
0	9926	1918.925851155783	3
0	9930	1919.915000072958	4
0	9931	1919.919609476458	3
0	9935	1920.50358183717	4
0	9941	1923.336211492885	5
0	9945	1928.248943481995	4
0	9950	1928.47571146849	3
0	9955	1929.051924148	2
0	9961	1929.887630392897	3
0	9963	1929.948557943547	4
0	9965	1930.151674705297	5
0	9968	1930.808231376219	4
0	9973	1933.108888604023	3
0	9977	1933.189868603715	4
0	9979	1933.576848969193	5
0	9982	1933.882903147366	4
0	9987	1935.096659909591	3
0	9993	1936.774210321632	4
0	9994	1937.947348242612	3
0	9999	1940.659759233619	2
0	10004	1943.645238115042	1
0	10009	1944.687501431332	0
0	10013	1944.952183868184	1
0	10016	1945.256128063635	0
0	10020	1945.293764241806	1
0	10026	1947.491784967717	0
0	10037	1947.986758788713	1
0	10039	1948.453362924363	0
0	10045	1948.742133813924	1
0	10048	1949.290402709518	0
0	10073	1957.806123184357	1
0	10074	1958.478900211427	0
0	10089	1960.850949010637	1
0	10090	1961.447720746223	0
0	10096	1961.563962793282	1
0	10098	1961.846355753332	2
0	10099	1962.122322884079	1
0	10104	1962.352062862457	0
0	10123	1967.477096566845	1
0	10125	1969.191635627522	2
0	10130	1970.982449465845	3
0	10132	1971.040832100742	4
0	10134	1971.058396878184	5
0	10137	1972.126154901609	4
0	10144	1973.202071900045	5
0	10145	1974.358110224049	4
0	10150	1974.755758879686	3
0	10155	1974.761220892773	2
0	10167	1979.464473034246	1
0	10172	1979.936400822048	0
0	10178	1980.481258512998	1
0	10181	1981.865477968016	0
0	10202	1985.597533537011	1
0	10205	1986.03440603267	0
0	10219	1989.170190161401	1
0	10223	1991.757485657745	2
0	10224	1992.193138792971	1
0	10229	1992.799785819122	0
0	10253	1995.953247651989	1
0	10255	1996.754164073342	2
0	10257	1999.248928113125	3
0	10259	2000.091379519649	4
0	10264	2002.081028471624	3
0	10272	2002.516920216716	4
0	10273	2002.730738609795	3
0	10279	2003.147868377752	4
0	10281	2004.257385468412	3
0	10285	2004.986165514029	4
0	10288	2006.223201575553	3
0	10293	2007.250050009724	2
0	10299	2007.926886651222	3
0	10302	2008.904632252118	4
0	10303	2009.495653314233	3
0	10309	2009.604005472516	2
0	10315	2009.822798581167	1
0	10321	2010.051089844916	0
0	10341	2014.580503711367	1
0	10342	2015.23931377317	0
0	10359	2016.464491209416	1
0	10360	2016.732618654471	0
0	10377	2022.051372212704	1
0	10378	2022.296680570761	0
0	10388	2024.022379856072	1
0	10391	2024.355266560195	0
0	10422	2029.224301637398	1
0	10426	2030.758355344853	2
0	10429	2031.364410419207	1
0	10434	2031.752860868104	0
0	10451	2035.072623110434	1
0	10455	2035.334115270384	0
0	10486	2041.125179150996	1
0	10488	2041.417228398564	2
0	10490	2041.654788502862	3
0	10493	2042.709784991703	2
0	10498	2042.801950036253	1
0	10507	2043.122845730258	2
0	10508	2043.356325466781	1
0	10515	2043.878920857039	2
0	10516	2044.224649851399	1
0	10521	2044.929732394544	0
0	10525	2045.011277435978	1
0	10527	2046.158983319989	2
0	10529	2046.51760158275	3
0	10532	2048.288438519621	2
0	10536	2049.749372812671	3
0	10538	2051.255534157774	4
0	10540	2051.554945546297	5
0	10542	2052.325792509828	6
0	10545	2053.77407573124	5
0	10550	2054.739713019444	4
0	10555	2054.799737239673	3
0	10566	2057.482213716799	4
0	10568	2058.545124131188	3
0	10576	2061.224731567497	2
0	10581	2061.246885286686	1
0	10586	2061.637385389296	0
0	10597	2063.827889509509	1
0	10601	2064.577494817618	0
0	10618	2065.540791436417	1
0	10619	2065.559569686672	0
0	10640	2070.013672408256	1
0	10641	2070.098670534237	0
0	10653	2071.334954539427	1
0	10654	2071.343666108652	0
0	10672	2073.568780051218	1
0	10674	2074.447022814437	0
0	10686	2076.282802663415	1
0	10687	2076.296617501273	0
0	10704	2077.818296982813	1
0	10705	2077.933916808756	0
0	10709	2079.089565887063	1
0	10713	2080.485179657747	2
0	10714	2080.506294360602	1
0	10720	2080.909184727677	2
0	10723	2081.825829919523	1
0	10728	2083.556213327374	0
0	10749	2085.269464219247	1
0	10752	2087.293211899823	0
0	10782	2090.904134759599	1
0	10784	2091.45304551796	2
0	10789	2093.042809693293	1
0	10794	2093.106053000039	0
0	10807	2094.016886600038	1
0	10810	2095.210960496776	0
0	10827	2098.276018021573	1
0	10830	2099.224694294401	0
0	10847	2100.674849788586	1
0	10850	2100.85196115039	0
0	10859	2102.121466740983	1
0	10860	2102.452102511518	0
0	10909	2110.979656445234	1
0	10910	2111.090281035885	0
0	10916	2111.436944219571	1
0	10917	2111.542651462582	0
0	10924	2111.967302398018	1
0	10928	2113.156468840564	2
0	10929	2114.169100093828	1
0	10935	2115.097760841363	0
0	10957	2115.499512462686	1
0	10961	2117.155111114801	0
0	10981	2119.426663809292	1
0	10983	2119.627514800161	2
0	10986	2121.323006116329	1
0	10992	2122.012811982975	0
0	11000	2123.165967500516	1
0	11002	2123.885215251682	0
0	11011	2126.802194075796	1
0	11014	2128.034517961673	2
0	11015	2128.258586786437	1
0	11022	2129.21230549187	2
0	11024	2129.357728897031	3
0	11026	2129.377811358661	4
0	11028	2129.502509146648	5
0	11030	2129.957388617183	6
0	11032	2130.013006014607	7
0	11033	2130.559476327614	6
0	11038	2131.154477068437	5
0	11044	2131.884426204963	6
0	11045	2133.14576657704	5
0	11051	2134.291064586103	6
0	11055	2135.889567090921	5
0	11060	2135.977441550369	4
0	11064	2136.108079912907	5
0	11070	2140.091380443929	6
0	11073	2140.613623055552	7
0	11076	2141.079326909873	6
0	11082	2141.131118464506	7
0	11083	2141.294055811551	6
0	11088	2141.790517373443	5
0	11094	2142.644947864308	4
0	11103	2143.99684134747	3
0	11109	2145.51332993218	2
0	11114	2145.904733230899	1
0	11120	2145.934620290902	2
0	11122	2145.9984612811	3
0	11124	2146.191523465959	4
0	11128	2147.115898586194	3
0	11136	2148.623385882114	4
0	11137	2149.333141919827	3
0	11143	2149.961432776506	4
0	11144	2150.269491635601	3
0	11149	2150.607391123677	2
0	11155	2151.595883117198	3
0	11157	2151.662354037808	4
0	11160	2151.915092835301	5
0	11161	2152.045513930295	4
0	11166	2152.582152338864	3
0	11171	2153.67367779173	2
0	11175	2154.370749126281	3
0	11177	2155.510966293022	4
0	11179	2156.783151978627	5
0	11185	2158.537332473193	6
0	11187	2159.739068303569	7
0	11190	2161.035089100466	6
0	11196	2162.381613899083	5
0	11202	2162.856560022067	4
0	11209	2163.767793109687	3
0	11215	2165.509629590568	4
0	11217	2166.179442246217	5
0	11221	2167.033703443299	6
0	11223	2167.094524266742	7
0	11226	2169.186434352877	6
0	11230	2169.46210400818	7
0	11233	2172.062371998282	6
0	11241	2173.23598877311	5
0	11246	2173.269273410823	4
0	11254	2175.72357570062	5
0	11255	2175.734229588034	4
0	11259	2176.405402633512	5
0	11263	2176.832757649389	4
0	11268	2177.338786939301	3
0	11274	2179.153571254231	2
0	11281	2180.04647934813	1
0	11285	2181.46897620861	2
0	11287	2182.533960896017	3
0	11289	2182.816158063128	4
0	11292	2183.911006014726	3
0	11298	2184.567465542187	4
0	11300	2184.656863002603	5
0	11302	2185.114546331969	6
0	11306	2185.525267199266	5
0	11313	2185.628916695932	6
0	11314	2186.539333189881	5
0	11320	2188.704837263055	4
0	11326	2189.05965607123	5
0	11327	2189.33097043834	4
0	11332	2190.333428335114	3
0	11336	2190.439004457314	4
0	11338	2191.102930098871	5
0	11341	2191.516466021711	4
0	11349	2192.915933013608	3
0	11354	2193.201599964448	2
0	11360	2194.640637647004	3
0	11363	2196.429347491934	2
0	11367	2196.605083045097	3
0	11369	2198.268663073515	4
0	11372	2198.934232803675	3
0	11377	2200.415632624507	2
0	11381	2200.70998130936	3
0	11385	2201.532470065962	2
0	11390	2202.586315615376	1
0	11394	2202.753934109836	2
0	11397	2204.257948254236	1
0	11403	2205.114810552823	2
0	11406	2207.337800625397	1
0	11411	2208.341741875411	0
0	11417	2210.572766394267	1
0	11420	2212.20159816862	0
0	11424	2212.623733163407	1
0	11427	2213.617202652017	0
0	11431	2213.746330027297	1
0	11435	2214.533324779756	2
0	11436	2214.557610803898	1
0	11440	2214.87811564226	2
0	11443	2215.683840779524	1
0	11447	2215.910923915926	2
0	11452	2217.282637050854	3
0	11453	2218.080002266083	2
0	11458	2218.119780679057	1
0	11462	2219.356734598074	2
0	11468	2220.534130458421	3
0	11470	2221.097950438343	2
0	11475	2221.106218626417	1
0	11479	2221.89797751577	2
0	11482	2222.591219288261	1
0	11487	2223.779028433487	0
0	11513	2226.685454830896	1
0	11514	2226.801087606498	0
0	11531	2227.904626645061	1
0	11536	2230.801587386728	0
0	11554	2234.938754724753	1
0	11556	2235.091473312003	2
0	11558	2236.294770023196	3
0	11562	2237.152280635436	4
0	11564	2237.797961455076	5
0	11565	2239.010588765152	4
0	11572	2240.901937608237	3
0	11577	2240.915574786417	2
0	11582	2241.24041235778	1
0	11587	2241.909775492046	0
0	11591	2242.130895306794	1
0	11593	2242.831361958966	2
0	11598	2243.15939686953	1
0	11603	2243.378495073688	0
0	11609	2244.048077224588	1
0	11611	2244.365928945813	0
0	11633	2246.978740029336	1
0	11636	2249.984119228624	0
0	11640	2250.554421628402	1
0	11644	2250.734486473611	2
0	11645	2250.836259448697	1
0	11652	2251.728008489349	0
0	11656	2251.948144068754	1
0	11659	2253.250708457048	0
0	11663	2253.345431460908	1
0	11668	2253.923802612334	2
0	11669	2254.494629350048	1
0	11674	2255.786697276678	0
0	11701	2259.67245117333	1
0	11706	2260.550852660938	0
0	11726	2263.938281300502	1
0	11729	2265.407399972776	0
0	11735	2266.0476341527	1
0	11737	2266.494161246409	2
0	11739	2266.684763486548	1
0	11743	2266.777351819152	2
0	11745	2269.600494516711	3
0	11749	2271.197800350969	4
0	11751	2271.585691079326	5
0	11756	2271.914098199022	4
0	11762	2272.646907237988	5
0	11764	2272.910275034761	6
0	11765	2273.006137782962	5
0	11769	2273.142646590491	6
0	11772	2273.908472588401	5
0	11776	2274.454606349115	6
0	11778	2275.056866113776	7
0	11781	2275.335521268017	6
0	11786	2275.894281358438	5
0	11793	2276.705730361933	4
0	11798	2276.714383451077	3
0	11804	2278.345859899342	4
0	11806	2278.618656833555	5
0	11810	2279.88726186841	4
0	11815	2280.166803393921	3
0	11819	2280.62783749341	4
0	11823	2280.844121370754	5
0	11825	2281.293511179391	6
0	11827	2281.889423837586	5
0	11833	2282.383205738957	6
0	11834	2282.784355577373	5
0	11839	2283.237814838322	4
0	11843	2283.390449094113	5
0	11846	2284.226399226047	4
0	11852	2284.270270464556	5
0	11854	2284.356389907099	6
0	11855	2285.312924418505	5
0	11861	2285.985977052589	4
0	11866	2286.621526651937	3
0	11873	2288.676008959218	2
0	11881	2289.835252602368	3
0	11883	2290.708284374713	2
0	11890	2292.441025608561	1
0	11894	2292.65254300938	2
0	11897	2293.657483296285	1
0	11901	2295.023545223487	2
0	11904	2296.340778551496	1
0	11908	2297.008096831281	2
0	11911	2298.839389988971	1
0	11917	2300.010082876288	0
0	11928	2300.474336594614	1
0	11929	2300.538097236355	0
0	11942	2301.893461205145	1
0	11943	2302.214922795331	0
0	11961	2304.663008111438	1
0	11963	2305.679325531818	2
0	11964	2306.804333774119	1
0	11969	2307.056197093421	0
0	11980	2307.691261234802	1
0	11982	2308.308006009313	2
0	11983	2308.390143498654	1
0	11990	2309.27618707684	0
0	12006	2319.933794169595	1
0	12010	2323.105427953834	2
0	12011	2324.019883855524	1
0	12015	2324.22068129329	2
0	12019	2324.552651199829	3
0	12020	2324.770816435685	2
0	12025	2325.76621844965	1
0	12029	2326.462514988268	2
0	12031	2328.669836557314	3
0	12036	2329.544921005587	4
0	12039	2330.605237025691	5
0	12040	2330.662678214214	4
0	12045	2330.664103443188	3
0	12050	2333.919198592018	2
0	12060	2337.121750130705	3
0	12064	2337.634233818129	4
0	12065	2337.682822070914	3
0	12070	2338.023301869837	2
0	12075	2338.447662164384	1
0	12082	2339.93796086118	0
0	12088	2340.374405620616	1
0	12089	2340.553833097137	0
0	12111	2341.812671612756	1
0	12113	2341.945861792927	0
0	12133	2344.27967800216	1
0	12135	2345.611718489419	2
0	12136	2347.071531217158	1
0	12143	2348.606618577853	0
0	12149	2348.999640799186	1
0	12151	2349.620550651961	0
0	12178	2352.674064319926	1
0	12179	2352.749855954355	0
0	12185	2353.190391122167	1
0	12188	2353.336217206343	2
0	12190	2353.61478160052	3
0	12195	2354.06128752342	4
0	12197	2354.513984614965	5
0	12198	2354.526006535923	4
0	12208	2356.172939117757	3
0	12214	2356.405120984141	4
0	12215	2356.863515585735	3
0	12220	2357.235369804625	2
0	12224	2358.699219635065	3
0	12232	2358.969023435584	4
0	12233	2359.33063596283	3
0	12238	2360.562384572168	2
0	12243	2360.629600824413	1
0	12248	2362.692314168262	0
0	12273	2365.158576438924	1
0	12277	2366.543214025643	2
0	12280	2367.5678011465	1
0	12287	2368.009011933432	0
0	12291	2368.972680733708	1
0	12295	2369.806896017117	0
0	12314	2370.446633326373	1
0	12315	2370.580540280306	0
0	12329	2371.951626820807	1
0	12339	2374.283901942836	2
0	12340	2375.382230365501	1
0	12345	2375.757544147472	0
0	12352	2378.584741075332	1
0	12353	2378.829969132594	0
0	12359	2378.8706523163	1
0	12361	2380.124509047301	0
0	12392	2383.08033404174	1
0	12394	2383.125319754113	0
0	12408	2385.76505342438	1
0	12413	2387.743732796991	0
0	12423	2388.886523330108	1
0	12424	2389.309778727857	0
0	12442	2390.917473218343	1
0	12444	2391.832725138028	0
0	12472	2395.316232833748	1
0	12474	2396.08608124104	0
0	12480	2396.918378972861	1
0	12482	2397.070775169768	2
0	12483	2397.35169118672	1
0	12488	2398.054165412227	0
0	12492	2398.180864148401	1
0	12496	2399.212739196813	0
0	12502	2399.758135223495	1
0	12503	2399.826068754345	0
0	12534	2406.325214911514	1
0	12538	2406.536907562089	0
0	12556	2408.113482824353	1
0	12559	2408.617952537064	2
0	12560	2408.942133301455	1
0	12567	2409.557400123635	0
0	12594	2412.882146692081	1
0	12596	2413.911194024389	2
0	12602	2415.330886560906	1
0	12607	2416.227480010671	0
0	12611	2416.471530467115	1
0	12613	2416.721541613202	2
0	12617	2416.962767967305	3
0	12619	2417.90725138277	2
0	12628	2420.268635162322	1
0	12632	2420.344014505109	2
0	12637	2422.058693460316	3
0	12639	2422.1261366918	4
0	12641	2422.164300399228	5
0	12643	2422.758447517819	4
0	12648	2422.865601406311	3
0	12653	2423.822350607361	2
0	12657	2423.85626653317	3
0	12659	2424.388151069452	4
0	12661	2425.181156994096	5
0	12664	2426.274978803376	4
0	12668	2427.574838548299	5
0	12671	2428.215428199632	4
0	12675	2428.396277595133	5
0	12677	2428.455584454305	6
0	12682	2429.993786692154	5
0	12690	2430.06158455209	6
0	12693	2430.969425896235	5
0	12698	2431.01718662399	4
0	12704	2431.99381256997	3
0	12710	2432.324125172307	2
0	12716	2432.32432542919	3
0	12717	2432.694057003056	2
0	12723	2434.196685808592	3
0	12730	2436.676553389541	2
0	12735	2437.665234526856	1
0	12743	2439.461086840542	0
0	12749	2439.464934594612	1
0	12752	2440.351419475804	0
0	12756	2441.435317811024	1
0	12759	2442.402569670521	0
0	12770	2444.680095368709	1
0	12773	2445.327514070802	0
0	12781	2448.831894665433	1
0	12784	2450.951747333713	0
0	12805	2452.264062193413	1
0	12806	2452.594368741459	0
0	12815	2453.933015224275	1
0	12820	2455.384806677306	0
0	12844	2459.444798327855	1
0	12846	2460.693734664973	0
0	12854	2460.956251206365	1
0	12856	2461.557291710367	2
0	12858	2461.61696775834	3
0	12859	2461.762552385284	2
0	12864	2462.951076789245	1
0	12868	2463.132980504237	2
0	12870	2463.515970939452	3
0	12872	2463.964204868966	4
0	12876	2465.547412957046	5
0	12878	2466.199654959695	6
0	12881	2466.457458856703	5
0	12886	2467.752415907707	4
0	12892	2468.887754494956	5
0	12894	2469.469790141835	4
0	12900	2470.468984507162	5
0	12903	2471.10285725412	6
0	12905	2471.528291815526	7
0	12906	2472.140332047145	6
0	12913	2472.294601865502	7
0	12915	2472.498388057063	6
0	12921	2472.86852549016	7
0	12923	2473.010572050316	8
0	12925	2473.377476896466	9
0	12927	2473.950676189047	8
0	12932	2474.024826043633	7
0	12938	2474.180275241452	8
0	12940	2474.355023075583	7
0	12945	2474.90929827037	6
0	12950	2475.457080487865	5
0	12955	2476.102832139228	4
0	12961	2476.471753124617	5
0	12962	2476.529259186234	4
0	12969	2476.674538119148	3
0	12975	2478.04700921952	4
0	12976	2478.160956022244	3
0	12980	2478.717063472778	4
0	12988	2483.40927581143	5
0	12989	2483.973440378942	4
0	12994	2487.91462519493	3
0	13000	2488.621392762581	2
0	13006	2489.010506237672	3
0	13009	2490.104190443183	2
0	13015	2490.974547914943	3
0	13016	2491.056037542253	2
0	13020	2491.510626930362	3
0	13023	2492.745821562755	2
0	13030	2494.593599424519	1
0	13037	2496.840201943289	0
0	13043	2498.749413998607	1
0	13046	2498.827226373132	2
0	13047	2499.715369889012	1
0	13052	2500.228529432635	0
0	13064	2501.820800663266	1
0	13065	2502.012026878566	0
0	13071	2502.288847590884	1
0	13072	2503.062237726612	0
0	13094	2506.162834655442	1
0	13095	2506.544467670481	0
0	13153	2518.331728121982	1
0	13155	2519.337917846751	2
0	13156	2519.83673023706	1
0	13161	2520.471411374455	0
0	13180	2522.428484988851	1
0	13181	2522.465663270183	0
0	13203	2527.247883015931	1
0	13206	2527.878433942701	0
0	13225	2531.997378887979	1
0	13226	2533.897721160707	0
0	13237	2534.111696329343	1
0	13240	2534.477620826504	0
0	13246	2534.948205623028	1
0	13247	2535.785473216668	0
0	13267	2543.349453577211	1
0	13271	2544.081356424131	0
0	13291	2545.776499517561	1
0	13294	2546.858318027275	2
0	13295	2547.001384273351	1
0	13301	2547.042282095561	2
0	13303	2547.620457403216	3
0	13307	2549.76897731199	2
0	13312	2550.133994614134	1
0	13319	2551.95022100341	0
0	13325	2552.054592244848	1
0	13332	2553.721978891948	2
0	13334	2554.03127336941	3
0	13335	2554.113020933998	2
0	13341	2554.789060892298	1
0	13348	2555.21726101841	0
0	13364	2556.726952917714	1
0	13365	2557.013707670817	0
0	13374	2557.792614393584	1
0	13384	2563.62042965568	2
0	13385	2563.959172588535	1
0	13389	2564.728376790517	2
0	13391	2564.888319860253	3
0	13395	2567.109820716855	2
0	13400	2567.485612177771	1
0	13404	2567.979512082181	2
0	13407	2569.552052318257	1
0	13415	2570.658330017557	0
0	13456	2578.193906839629	1
0	13457	2578.594550156969	0
0	13461	2579.624551152801	1
0	13465	2579.823647139121	2
0	13468	2580.37837179013	3
0	13469	2580.660217640254	2
0	13475	2580.94249632795	1
0	13480	2580.978315221424	0
0	13493	2582.191207753977	1
0	13494	2582.572818346849	0
0	13505	2584.973251852957	1
0	13507	2585.668413002259	0
0	13519	2587.147484446817	1
0	13526	2590.132345549601	0
0	13538	2591.397847118672	1
0	13541	2591.818616982452	0
0	13547	2593.713453936219	1
0	13551	2596.506703087772	0
0	13571	2599.191600383007	1
0	13572	2599.358649197039	0
0	13593	2603.888973171495	1
0	13596	2604.923962185576	0
0	13602	2606.97966463784	1
0	13605	2607.131961122601	0
0	13643	2612.991966764056	1
0	13646	2614.014915553494	0
0	13677	2619.059334698212	1
0	13682	2620.637890268837	0
0	13689	2621.050869445811	1
0	13691	2621.277377981082	0
0	13697	2621.824738196997	1
0	13699	2622.457377791934	0
0	13720	2624.30370810563	1
0	13725	2625.507730499364	0
0	13732	2625.938471437921	1
0	13733	2626.176678885886	0
0	13749	2628.365945668433	1
0	13753	2628.994557679279	0
0	13771	2631.164144313446	1
0	13775	2631.436136244329	2
0	13778	2632.902904673899	1
0	13783	2633.154583549675	0
0	13794	2635.529960387019	1
0	13802	2637.808362673457	0
0	13817	2638.921805061622	1
0	13819	2638.93014647188	2
0	13821	2639.303611961054	1
0	13827	2640.286065076453	0
0	13833	2640.396606331475	1
0	13834	2640.411358849489	0
0	13842	2640.727325467403	1
0	13844	2640.877781598562	2
0	13845	2640.896906968147	1
0	13852	2641.750376477176	0
0	13856	2642.132098998592	1
0	13858	2643.242479620687	2
0	13860	2645.501181959107	3
0	13862	2646.521586421387	4
0	13866	2647.296887900615	3
0	13873	2648.646386850688	4
0	13874	2648.73141888138	3
0	13879	2649.302446373297	2
0	13883	2650.381501994672	3
0	13885	2650.844592538818	4
0	13887	2651.190080928554	5
0	13890	2652.897304472574	4
0	13894	2655.111626301923	5
0	13898	2655.889760925773	6
0	13899	2655.974868174563	5
0	13905	2658.112848702461	6
0	13909	2658.900632095455	7
0	13910	2659.03993107348	6
0	13915	2659.648257660535	5
0	13919	2659.937032155467	6
0	13922	2660.722981633793	5
0	13927	2661.04980252637	4
0	13933	2662.646519168457	5
0	13940	2665.577904209841	4
0	13945	2665.697730846504	3
0	13952	2665.910879866615	4
0	13953	2666.714028228322	3
0	13958	2667.220708481685	2
0	13965	2668.632173664871	1
0	13970	2671.734544473508	0
0	13981	2672.24597341015	1
0	13985	2672.699647257124	0
0	14016	2678.056371912715	1
0	14019	2680.405991349468	0
0	14030	2681.488251833227	1
0	14036	2684.243043976594	0
0	14057	2686.66492297299	1
0	14061	2687.522953497867	2
0	14063	2687.775227757078	3
0	14065	2688.295766791792	4
0	14066	2688.486036782228	3
0	14073	2689.558191006283	2
0	14081	2690.698730595186	3
0	14085	2691.135686717045	4
0	14089	2691.552491467387	5
0	14090	2691.989847326127	4
0	14096	2694.821508306853	3
0	14101	2695.103555895278	2
0	14106	2695.511535721735	1
0	14114	2697.305241699296	2
0	14115	2697.568103603455	1
0	14120	2698.002326711524	0
0	14136	2699.631666066519	1
0	14137	2700.136835802902	0
0	14141	2702.179674557242	1
0	14143	2702.669190179369	2
0	14145	2703.102252619627	3
0	14148	2704.715313529235	2
0	14153	2705.875333733049	1
0	14161	2709.4976555008	2
0	14162	2709.562612952687	1
0	14168	2710.163004454674	2
0	14169	2710.570774469526	1
0	14175	2711.647632880976	0
0	14181	2712.225946223535	1
0	14182	2713.013050378407	0
0	14186	2713.744644898767	1
0	14188	2714.13268135671	2
0	14193	2715.04756852805	1
0	14198	2715.192569898993	0
0	14216	2716.816500994497	1
0	14217	2716.974994312206	0
0	14224	2717.986132879728	1
0	14228	2718.376460868422	2
0	14230	2718.393138645935	3
0	14231	2718.846966821699	2
0	14237	2720.297843730122	3
0	14239	2720.53479152592	4
0	14240	2721.303139032137	3
0	14245	2722.019489453811	2
0	14249	2722.201699010934	3
0	14251	2722.270846346603	4
0	14253	2722.293333158012	5
0	14258	2724.572753666675	4
0	14267	2726.728082623181	3
0	14275	2728.083028847895	4
0	14276	2729.956867524729	3
0	14282	2731.024876802079	2
0	14287	2731.377983187185	1
0	14292	2733.599894501504	0
0	14309	2734.720600071368	1
0	14311	2736.530052125299	0
0	14332	2738.404939851125	1
0	14333	2738.52026783024	0
0	14346	2738.981292256058	1
0	14347	2739.41456690187	0
0	14356	2740.911725205145	1
0	14358	2741.434292002252	2
0	14360	2741.556104138688	3
0	14366	2743.615549563951	2
0	14370	2743.656712410591	3
0	14374	2744.891715822282	4
0	14377	2745.987295042793	3
0	14381	2746.245693386441	4
0	14384	2746.581132413775	3
0	14391	2748.239565253201	2
0	14397	2748.303018243646	3
0	14400	2748.469187729946	4
0	14401	2748.524817499657	3
0	14407	2748.699989428833	4
0	14409	2748.782586067167	5
0	14412	2749.511103729664	4
0	14416	2750.637755282775	5
0	14419	2751.022707665492	4
0	14424	2752.851409191826	3
0	14430	2754.283065051864	4
0	14431	2755.21646377562	3
0	14437	2756.505842389779	2
0	14442	2757.192088308989	1
0	14452	2759.789947074467	2
0	14454	2760.741902974658	3
0	14456	2760.770757411518	4
0	14460	2761.917436985124	5
0	14461	2762.076193774333	4
0	14465	2762.333489430594	5
0	14468	2763.624053867031	4
0	14473	2764.306944363804	3
0	14481	2766.850308256244	4
0	14483	2767.322538728474	3
0	14489	2767.972386609817	4
0	14491	2768.070679391347	5
0	14493	2768.211769276211	6
0	14494	2768.896903970126	5
0	14500	2769.120236067477	6
0	14504	2769.209211114963	7
0	14506	2770.124367697735	6
0	14511	2770.515096663011	5
0	14515	2770.638796393494	6
0	14518	2771.649002897933	5
0	14524	2772.482841671633	6
0	14527	2774.180876288123	5
0	14531	2775.188937317024	6
0	14534	2777.608822310461	5
0	14540	2779.523775352406	6
0	14541	2779.633990092455	5
0	14548	2781.463693815268	4
0	14555	2782.888181818425	3
0	14559	2783.487236023971	4
0	14561	2783.887307785534	5
0	14564	2784.891045517505	4
0	14571	2785.697592881759	3
0	14580	2786.982876396521	2
0	14584	2787.765265531271	3
0	14587	2788.781462412687	2
0	14591	2789.574682922244	3
0	14593	2790.635941773584	4
0	14598	2791.515369674483	3
0	14605	2792.833752368585	4
0	14608	2793.982314104369	3
0	14614	2794.827940337521	4
0	14615	2795.016150924161	3
0	14620	2795.810453656073	2
0	14626	2797.252139218792	3
0	14628	2797.393260387979	4
0	14630	2797.930034120021	5
0	14631	2798.394124993064	4
0	14638	2798.86923131037	3
0	14646	2800.930840453427	4
0	14647	2800.932265561716	3
0	14651	2801.056213570338	4
0	14654	2802.39961560931	3
0	14658	2802.920697804254	4
0	14661	2803.872930302632	3
0	14665	2803.991892006836	4
0	14671	2805.020300136106	3
0	14676	2806.189531965312	2
0	14682	2806.815807674745	3
0	14684	2806.991063348188	2
0	14693	2808.624840616763	1
0	14703	2810.542025156779	2
0	14704	2810.783790933687	1
0	14712	2815.004116094947	2
0	14713	2815.09695932649	1
0	14718	2815.655130066057	0
0	14729	2816.259493202274	1
0	14732	2817.063432849782	0
0	14740	2817.591252962353	1
0	14743	2819.998787661121	0
0	14749	2820.172341546358	1
0	14751	2822.108147790931	0
0	14776	2824.105683389523	1
0	14778	2824.520920510312	2
0	14781	2826.875516922838	1
0	14788	2827.670070785157	0
0	14799	2828.09365001374	1
0	14801	2828.255343069039	2
0	14804	2829.03483092444	3
0	14807	2830.214374802246	4
0	14809	2830.40565900382	5
0	14810	2830.948927431506	4
0	14816	2830.997647588066	3
0	14821	2831.139797269728	2
0	14828	2831.538836247712	3
0	14830	2831.755672556556	2
0	14836	2833.39383336264	1
0	14841	2833.472004552717	0
0	14864	2836.577383036415	1
0	14865	2836.749947960932	0
0	14869	2837.094645876085	1
0	14871	2837.949211480753	2
0	14875	2838.362861862952	3
0	14878	2838.678313905911	2
0	14882	2838.92929460913	3
0	14885	2839.542721465566	2
0	14889	2840.060968901581	3
0	14892	2841.049817286173	2
0	14896	2841.49127451639	3
0	14898	2842.091142783631	4
0	14903	2842.692498163841	3
0	14913	2847.505706082063	4
0	14914	2847.644198029842	3
0	14920	2848.242377673929	4
0	14922	2849.070320502973	5
0	14923	2849.182097422118	4
0	14927	2850.279653734449	5
0	14930	2850.876775611336	4
0	14937	2852.079542703787	3
0	14942	2853.430706713823	2
0	14947	2853.839268202175	1
0	14953	2854.4263170917	2
0	14957	2856.833242672656	1
0	14962	2856.864254627037	0
0	14966	2857.097800814653	1
0	14969	2859.143135139492	0
0	14973	2860.258342722394	1
0	14978	2863.529765727036	2
0	14980	2863.847449768826	3
0	14982	2864.193361662907	4
0	14985	2865.613179307489	3
0	14991	2866.269571914941	4
0	14992	2866.521611990472	3
0	14999	2867.144473992179	2
0	15003	2867.20439649857	3
0	15010	2868.28410186247	4
0	15012	2868.30445468404	5
0	15013	2869.250169297232	4
0	15019	2869.440628121547	5
0	15020	2869.803216770536	4
[...]
4	139655	26777.207548644405	8483.1940442816
4	139698	26786.737512784589	8485.3692601216
4	139706	26789.943808723646	8486.853881812
4	139719	26791.431095789573	8486.7743438926
4	139724	26791.532465391857	8486.81485834
4	139729	26792.164687024421	8485.3256446264
4	139734	26793.357224488402	8472.5787148959
4	139739	26796.1234731462	8468.6060711903
4	139748	26799.639452936103	8470.9162330224
4	139773	26809.039562656135	8478.1356280174
4	140520	26985.529119833475	8627.1929697247
4	140525	26986.948120018816	8625.192237402
4	140532	26988.081163518542	8623.0760858567
4	140541	26989.46326328777	8623.2071422188
4	140551	26991.140911336955	8617.1441571517
4	140562	26993.238432883119	8610.8450238793
4	140567	26993.655266455031	8609.2336845309
4	140574	26994.221082720732	8602.7144569322
4	140584	26999.563515057399	8605.8819344777
4	140620	27007.00995016056	8607.0801552753
4	140625	27007.253362661426	8604.922515507
4	140634	27011.022830601527	8605.985712243
4	140852	27061.386974691611	8647.3643445799
4	140860	27061.556376611278	8643.480094771
4	140869	27062.859918724368	8633.8191969646
4	140883	27065.66007733202	8627.1639866332
4	140888	27065.716741561712	8623.3583003219
4	140897	27066.859853572776	8619.6610218328
4	140911	27068.449639990482	8618.1392189699
4	140918	27068.907799500828	8607.4503629041
4	140930	27071.155475669389	8599.8802263357
4	140939	27072.650872994519	8600.6013041658
4	140956	27074.239010982394	8591.9631392995
4	140971	27078.362998247733	8592.8610357256
4	140995	27083.393914423292	8597.2163302188
4	141010	27086.822534848353	8596.4514251738
4	141038	27094.445353347713	8584.2452808213
4	141043	27094.532295165115	8583.2508872379
4	141052	27095.779020826144	8581.2425477939
4	141064	27097.610204230372	8582.9456193097
4	141099	27103.348679924444	8580.7262946366
4	141112	27105.6344445202	8575.2839767898
4	141128	27107.75129023571	8574.2479074065
4	141135	27108.817797924441	8574.2921363807
4	141140	27109.216469413462	8570.5410130209
4	141145	27109.308878188221	8569.2724320742
4	141152	27111.418238475336	8565.8218626837
4	141160	27111.678398237448	8559.9523936451
4	141181	27115.397426610081	8561.6158166735
4	141224	27121.558568270378	8563.4601176142
4	141257	27129.566647123768	8568.7244644608
4	141270	27131.544196975805	8567.5627430311
4	141288	27135.932252721544	8557.601107536
4	141305	27138.178124097014	8559.7282138139
4	141320	27140.957115541715	8548.3759817085
4	141344	27144.636963749877	8541.3211026939
4	141377	27149.948894916877	8541.234556926
4	141395	27152.611412902407	8532.723226056
4	141498	27175.142957925873	8554.1430294127
4	141509	27176.830966539187	8555.2584292671
4	141527	27181.752250202017	8558.3064821107
4	141550	27186.075292195503	8560.6018683177
4	141700	27216.566786412977	8580.492822479
4	141722	27221.828336853728	8584.2526988535
4	141733	27223.870073787388	8582.7362364413
4	141755	27229.166040283393	8586.2908688106
4	141760	27229.225063109203	8583.0037381917
4	141765	27229.868541811414	8581.2292126379
4	141772	27231.747612568861	8577.6311004291
4	141777	27232.448341175865	8569.3994180522
4	141782	27232.801268753522	8569.4427035279
4	141793	27235.850205042771	8562.5503147472
4	141872	27254.670276983341	8580.2056535383
4	141881	27255.490351194855	8573.429706434
4	141888	27255.660924226051	8573.425543346
4	141897	27257.564659495368	8574.2043152476
4	141933	27262.817805951242	8572.2641716915
4	141938	27262.838119262577	8566.2234278373
4	141956	27267.43999579551	8568.0147312604
4	141972	27270.352083892707	8565.6128275952
4	141983	27272.09083147544	8566.5446246953
4	141990	27273.683754975195	8567.9334747992
4	142001	27275.478270876451	8567.9992825644
4	142010	27277.399162475309	8565.0105345136
4	142027	27278.97388435504	8566.1008172805
4	142035	27280.603139163733	8564.7818929772
4	142043	27284.747074231065	8567.3552270452
4	142054	27290.097540587401	8570.9259995926
4	142073	27293.346635299353	8573.0298825639
4	142131	27301.639748335183	8581.2275682967
4	142136	27301.818248375431	8577.8525777953
4	142144	27304.745731177065	8573.7496775412
4	142156	27305.479087299055	8562.5084207908
4	142162	27308.023377881062	8564.7641601478
4	142167	27308.169409209278	8556.833902274
4	142172	27308.668344703071	8555.361046736
4	142183	27310.557851019172	8553.4032287941
4	142261	27323.317608664555	8560.010565253
4	142317	27334.157323820667	8568.7794388965
4	142322	27334.408619031258	8564.6418614627
4	142328	27336.384987899333	8565.9253122774
4	142337	27339.116975341646	8548.3066665145
4	142344	27340.178020967937	8548.820504559
4	142349	27341.675256880959	8539.9793095969
4	142360	27344.793627644418	8530.0278756132
4	142371	27347.232765463912	8524.3377771209
4	142376	27347.856494883326	8523.2299335953
4	142384	27349.586502681717	8519.6387834633
4	142398	27350.630265425088	8520.051900812
4	142418	27352.592846503922	8522.0078983723
4	142433	27356.031151435468	8524.5025811512
4	142440	27362.057181394164	8525.5447220242
4	142464	27364.722565982059	8525.473919239
4	142475	27367.28931614814	8526.490928547
4	142484	27367.984719310326	8524.9911431441
4	142494	27368.961439547736	8521.8230842155
4	142504	27371.037916970724	8514.9489851217
4	142536	27381.719986501576	8523.5364679745
4	142542	27382.255329773095	8521.9580063565
4	142550	27384.800064785244	8505.922785987
4	142565	27386.60021977548	8507.4094146972
4	142575	27387.055590665667	8507.4440957398
4	142581	27387.422849814638	8506.390637673
4	142586	27387.525235107243	8494.5094293772
4	142592	27388.814049332964	8491.0172478765
4	142608	27391.742556192958	8489.9542226439
4	142647	27396.878507656216	8491.0055397975
4	142653	27399.463128528338	8485.2745146668
4	142663	27400.729410315176	8483.9740688768
4	142769	27417.754457228798	8496.5619465089
4	142775	27419.977896176186	8494.5465785747
4	142791	27421.936184154784	8487.4316280052
4	142872	27436.849891504122	8502.2826992907
4	142879	27438.563414740919	8502.6598291048
4	142893	27440.974772951481	8497.5749519225
4	142919	27444.613681615116	8501.0154467448
4	142929	27447.224169343669	8500.993823195
4	143046	27465.749159793788	8515.6694750073
4	143084	27473.492529057274	8515.935769727
4	143090	27474.616584971485	8516.9171644788
4	143095	27475.034766506555	8515.3080590044
4	143115	27483.412107506244	8523.2733672822
4	143160	27492.87823875899	8527.6979421028
4	143170	27493.55714611112	8525.7570660636
4	143179	27496.533117601195	8528.3727480405
4	143187	27497.188518588492	8527.1306065062
4	143192	27497.829201524053	8525.9040615325
4	143201	27498.912858716411	8526.814562284
4	144018	27655.462134596816	8681.6487446878
4	144035	27658.81211553705	8684.3554973871
4	144042	27659.087491881077	8678.6233076938
4	144051	27660.040798765974	8662.0313173683
4	144077	27663.577318933946	8662.4188094507
4	144082	27664.100912201836	8662.8385179345
4	144088	27664.980500237575	8661.1218153925
4	144093	27665.637816933498	8638.9449659035
4	144098	27667.170217844376	8632.6035943618
4	144104	27667.912914141067	8631.6139748979
4	144109	27668.235159800611	8619.7460469084
4	144115	27672.150021696929	8615.0609560873
4	144124	27675.144714883513	8617.8127437198
4	144138	27680.241034493322	8622.543055878
4	144190	27685.315385069129	8618.6072757442
4	144197	27686.95710656862	8597.8155554758
4	144206	27690.26546358344	8599.2718269414
4	144213	27693.813432761537	8598.3203369491
4	144233	27698.196037008536	8602.5943509816
4	144283	27707.837171411327	8609.9886731773
4	144288	27708.061255843258	8597.3379528609
4	144297	27711.080483527275	8593.8447709367
4	144319	27715.579212254295	8597.1641326171
4	144337	27715.902267191304	8594.6183299297
4	144343	27717.074329587259	8594.974101257
4	144348	27717.711779092013	8595.5067993243
4	144353	27718.908360164227	8595.2753046195
4	144359	27723.133715612072	8591.1288689067
4	144378	27729.672862338505	8590.7689310837
4	144439	27739.257754765096	8593.0315830011
4	144446	27739.760248752493	8579.3861502074
4	144459	27743.968015711102	8575.0019498674
4	144472	27746.803148329236	8576.9371611075
4	144477	27747.256144061797	8572.0099167721
4	144488	27751.078005976118	8573.3832301693
4	144546	27761.786636380004	8583.0327929957
4	144553	27761.892343736455	8580.6164544683
4	144567	27766.043146398662	8582.7392172246
4	144597	27771.329768327859	8585.3606657786
4	144607	27772.078734583278	8585.9438069339
4	144655	27785.369927621659	8590.9947468933
4	144686	27790.039489867248	8588.5673931055
4	144692	27790.203337365133	8588.5358959549
4	144704	27792.356117899681	8590.0581881183
4	144717	27796.01542311892	8592.2245559497
4	144727	27796.381446534935	8590.7920204713
4	144733	27796.889261212722	8588.4919272142
4	144740	27798.165037917948	8588.0158006264
4	144751	27800.59980708131	8589.9166105415
4	144756	27801.147564032662	8589.6958128923
4	144771	27806.628635836932	8588.2846950273
4	144805	27811.715011155724	8573.9742820648
4	144811	27812.284511616016	8574.2466052748
4	144818	27812.906546964245	8574.0367494435
4	144828	27813.272931330572	8573.7439635477
4	144838	27816.429386533726	8575.4879581084
4	144855	27819.871609532133	8573.3911722273
4	144862	27821.069011018106	8571.4938410828
4	144874	27822.398490353005	8569.9232544177
4	144880	27823.29625392527	8568.6441652682
4	144885	27824.829803104165	8565.6173387854
4	144890	27825.637093182428	8535.0358130254
4	144896	27827.305697553629	8535.9599678072
4	144907	27828.619705566974	8528.5379439212
4	144952	27835.499415907461	8535.0295967695
4	144982	27842.162492923682	8536.6694967099
4	144987	27843.359758048848	8527.8289632784
4	144995	27843.70478633936	8526.2967445349
4	145018	27849.056992746977	8531.4840947919
4	145033	27854.152224689562	8532.8345991948
4	145214	27890.573061892382	8567.0081591238
4	145246	27895.590501605112	8570.4426214303
4	145259	27896.696182295888	8567.0834667191
4	145273	27897.461294629532	8566.4272636556
4	145284	27899.447533486289	8560.4952731349
4	145289	27900.418076223907	8559.0782946398
4	145296	27902.789676760091	8555.8094430234
4	145317	27906.032932020428	8558.7169450775
4	145670	27974.268966720922	8626.7439192106
4	145683	27976.17875515949	8624.7455796922
4	146157	28059.893341495641	8702.5006856978
4	146162	28060.265240131665	8694.5477611184
4	146169	28061.01999694899	8685.6082166444
4	146176	28062.800178490533	8675.7856509385
4	146187	28067.363466778273	8678.8503947075
4	146221	28076.919065665009	8683.3464036756
4	146255	28079.154146363426	8682.6102436787
4	146265	28079.943207481316	8680.6874261008
4	146274	28080.459197194365	8674.3346812155
4	146279	28080.47329969288	8673.0914788025
4	146284	28080.559797325325	8666.6414943268
4	146295	28082.750569354298	8666.7071391329
4	146306	28085.0125864501	8666.0543314155
4	146311	28085.361668493014	8663.7034281207
4	146320	28086.545266149821	8660.5289298358
4	146407	28108.01945817381	8680.6428241971
4	146418	28108.909503620846	8677.4668826531
4	146425	28109.319653242579	8672.7229944346
4	146443	28112.663471234311	8675.7391347779
4	146551	28133.929730407483	8691.2788450809
4	146558	28134.607890652777	8689.6107830496
4	146563	28134.721677665728	8687.5133874882
4	146570	28136.76857259713	8686.4544756326
4	146580	28138.653838779781	8672.0290851193
4	146592	28138.924765874497	8666.1088505904
4	146618	28141.581754047929	8666.3002704944
4	146625	28143.785026649158	8663.955635366
4	146637	28144.860938755679	8662.1302800041
4	146660	28153.153578704366	8666.0387589504
4	146855	28197.99985591034	8710.1848486679
4	146862	28199.513705878736	8709.2071708277
4	146881	28201.805461123637	8707.0889837729
4	146914	28212.487581729908	8717.4364116074
4	146941	28217.606917715218	8719.5972273669
4	146960	28223.401609492509	8724.3848530194
4	146967	28224.861598348031	8724.5368594763
4	146984	28229.746694611703	8719.7565725577
4	147165	28266.602570573548	8742.8780869126
4	147182	28269.246540819425	8735.3226202673
4	147200	28270.365206799867	8720.3314172751
4	147211	28272.467710825276	8721.1942288603
4	147221	28273.260362748688	8720.1378910274
4	147229	28273.831186026413	8715.3754845176
4	147242	28275.277729626685	8716.2152617295
4	147387	28309.535210202724	8750.2490328017
4	147399	28312.122009975904	8743.7984155902
4	147405	28312.17339223374	8742.929906726
4	147412	28313.218391470088	8736.6064391567
4	147420	28315.637263380048	8737.2906078872
4	147433	28316.368003233727	8736.4599968543
4	147444	28316.98218237929	8734.2097315547
4	147450	28317.351997649284	8731.5656332426
4	147457	28318.406878855294	8728.4438963972
4	147467	28320.33460015602	8728.6294300717
4	147476	28321.501418669687	8722.7416746151
4	147492	28325.350237654687	8718.9822140975
4	147519	28331.814345104123	8721.5165892165
4	147526	28332.061441608877	8713.8818597039
4	147537	28332.472969392863	8707.7195191703
4	147546	28334.128714514232	8708.516124498
4	147566	28336.794452446912	8706.5609039046
4	147590	28340.995931403539	8709.2900544394
4	147595	28341.832118814411	8709.9308397692
4	147605	28344.792589479263	8708.0547076158
4	147721	28364.925086818086	8727.4319184385
4	147734	28366.740946787693	8721.7232444849
4	147745	28368.409603613893	8723.3124643467
4	147752	28369.073697257193	8722.875904053
4	147762	28370.768859709581	8721.6339688429
4	147785	28374.153489293033	8719.7903181565
4	147796	28375.365098945446	8705.1052590852
4	147801	28375.450086821372	8703.6466296969
4	147809	28378.502133699324	8693.067356603
4	147814	28378.871338284628	8684.4954401356
4	147819	28382.735570971584	8686.3759440228
4	147825	28384.7140435425	8686.3301583196
4	147830	28384.841123482911	8685.0750313844
4	147839	28391.03722219379	8690.2373945033
4	148070	28431.205359989911	8719.7878228009
4	148076	28431.839691470665	8715.6624874206
4	148088	28433.211329695581	8716.9232047663
4	148134	28443.879215686644	8725.4914407044
4	148139	28443.88362226958	8725.3537445031
4	148145	28446.298008066993	8717.2977776928
4	148152	28448.2837511863	8717.8491987541
4	148165	28450.854247392039	8714.1975508567
4	148174	28452.547242072107	8713.3297291282
4	148212	28458.945304659685	8712.4049513404
4	148232	28463.859480785697	8709.6421727959
4	148241	28466.706780140818	8711.506260172
4	148309	28480.899897425994	8723.91592594
4	148809	28575.97780266897	8814.2162436089
4	148816	28576.277855596273	8814.1847828165
4	148825	28576.590651607005	8814.1388350608
4	148866	28584.109324832623	8821.1298170685
4	148885	28586.052467538059	8820.5964806254
4	149176	28646.696180407707	8868.6730695505
4	149184	28647.751117694483	8867.6557193663
4	149194	28648.779838283751	8866.1958341396
4	149201	28649.619569169808	8865.4505376177
4	149218	28654.28948194723	8867.110238711
4	149235	28655.609640280584	8863.5842329636
4	149242	28657.727081829172	8859.6415702756
4	149253	28658.483880107783	8859.9676966004
4	149262	28659.970009882679	8860.849371312
4	149275	28662.67410634165	8863.4977489735
4	149304	28666.310882990083	8863.1045836314
4	149313	28667.935941730707	8861.816319171
4	149339	28670.352024943157	8858.1589147025
4	149369	28674.496130035232	8854.4522786908
4	149378	28675.692329006851	8855.0160989263
4	149399	28682.382438393606	8860.0022751235
4	149413	28686.651645395201	8842.0276311727
4	149424	28688.069957655658	8841.5696886399
4	149433	28691.528225425014	8843.2466029143
4	149450	28693.32490387536	8837.3681359317
4	149464	28696.568905393254	8833.2328990818
4	149824	28775.706383326649	8911.5512912175
4	149845	28779.26369724816	8914.3770364593
4	149850	28779.348924040153	8911.6543761432
4	149855	28779.593858287651	8910.5946407677
4	149862	28781.345503268009	8910.9849915894
4	149874	28784.623215967402	8906.022156133
4	150045	28821.148095606492	8940.9461420814
4	150056	28822.82482584132	8935.2935467143
4	150083	28825.309393340621	8935.5959820689
4	150126	28832.296423332141	8936.7296703696
4	150155	28836.761575139981	8940.4673111146
4	150170	28839.370118813563	8940.332433988
4	150235	28854.530670437807	8954.4595114732
4	150671	28937.523927346843	9036.1262863599
4	150681	28938.799767945542	9036.358048681
4	150686	28939.231866870871	9019.0490971839
4	150691	28939.52215237332	9018.4512305075
4	150707	28942.264515572328	9015.4604875331
4	150724	28943.349954102312	9013.8206514968
4	150734	28946.591408153348	9015.2216187424
4	150868	28972.318232396552	9040.8855227715
4	150885	28975.464970330078	9041.9578405977
4	150894	28976.931004602522	9042.4161975636
4	150908	28979.313831186551	9043.0304468236
4	150917	28980.811602450663	9029.3451613423
4	150935	28983.060440028684	9026.8502975656
4	150945	28983.48569891508	9026.3189592141
4	150950	28983.846883172043	9024.8177584744
4	150958	28985.431997334852	9026.0821763952
4	150993	28988.961759854138	9029.517495273
4	151014	28991.906719635358	9027.4442451137
4	151021	28992.708874759655	9028.0613328995
4	151048	28997.304269032548	9030.1674990312
4	151076	29000.291105268828	9032.7301449987
4	151084	29002.314439137088	9033.6251456627
4	151100	29005.458819586164	9035.9857609217
4	151139	29011.768691515462	9041.6036764595
4	151158	29017.136436786048	9032.3828927481
4	151163	29017.150935465573	9032.085189644
4	151174	29019.62820572724	9031.8144002727
4	151274	29035.396444939541	9046.4451883362
4	151281	29035.553397659354	9043.3141461901
4	151309	29039.660520815489	9045.3009782832
4	151336	29041.855774125678	9044.9730714722
4	151343	29042.938992895178	9043.7739888747
4	151430	29065.689130402902	9065.272416405
4	151435	29066.033099713993	9064.9207553884
4	151440	29067.274404653108	9065.9877146523
4	151445	29067.606726817172	9062.2383155436
4	151462	29072.44242954872	9067.0037023496
4	152086	29210.200151079511	9200.0144885231
4	152108	29215.86139203556	9195.1851664807
4	152113	29215.976985554752	9194.8781137697
4	152120	29217.134497527313	9193.5933806501
4	152132	29219.766279437503	9192.2475447069
4	152193	29228.540345723317	9198.2786677268
4	152202	29231.490919499394	9196.9968362963
4	152210	29231.959493284487	9193.205765287
4	152245	29243.367001748619	9200.0592119576
4	152256	29246.164439864744	9201.412008277
4	152263	29247.369344960752	9201.329678179
4	152275	29250.062813981849	9199.0781266732
4	152291	29252.35163131799	9200.9481626166
4	153503	29508.743311192399	9452.0032442941
4	153511	29509.883406711791	9451.6078429968
4	153543	29513.843430536886	9453.4029559232
4	153557	29516.941329250193	9446.0571411948
4	153567	29518.210256960401	9444.0219956671
4	153581	29520.858450600904	9441.2428858664
4	153623	29526.753253809745	9437.6516595449
4	153632	29527.677440406398	9429.4721680455
4	153652	29532.698857491531	9433.6841799934
4	153664	29533.342822014575	9433.2388815276
4	153669	29533.361563109995	9424.9670618077
4	153676	29534.513615374624	9417.0877813009
4	153685	29537.336918627745	9417.4565032858
4	153700	29539.61713545619	9410.0520526014
4	153705	29539.620734753954	9407.5304600238
4	153718	29544.242782566806	9411.3033289742
4	153865	29573.247900765471	9438.4375359066
4	153870	29573.330181239517	9437.8759013256
4	153875	29573.466102640252	9429.5370940446
4	153889	29579.525926667246	9434.1377376326
4	154385	29683.358821903356	9537.3338219096
4	154393	29683.813836369265	9529.5779915865
4	154403	29684.470329266312	9527.0650473723
4	154419	29689.983304063712	9532.4622799009
4	154508	29706.117512368327	9544.2308079922
4	154522	29707.2195026618	9539.1090479661
4	154538	29710.992345450074	9541.0083823454
4	155407	29906.591373734067	9732.5089744968
4	155417	29906.914914184589	9726.6998992601
4	155427	29907.885365246956	9722.986424658
4	155447	29909.777968562561	9710.9739132411
4	155472	29919.434579991179	9699.328489395
4	155487	29921.34541217541	9694.1163885931
4	155504	29923.434626772245	9693.5579002667
4	155512	29925.653414397449	9688.7139054417
4	155522	29926.776995517661	9685.5298368821
4	155541	29932.398196914788	9689.1171175626
4	155737	29973.334251021856	9729.1319603582
4	155742	29973.592236080737	9728.6460361047
4	155751	29974.602573923643	9724.7367713288
4	155756	29975.204956891315	9722.693497327
4	155764	29975.917700530897	9714.6156022254
4	155772	29977.244247798135	9711.820965264
4	155777	29979.126268502497	9710.4614054956
4	155782	29979.644679032084	9708.5216416288
4	155787	29980.308815967801	9705.8793149909
4	155799	29982.489905106764	9705.1075422497
4	155822	29985.275455760331	9705.8286749613

