version 2
run First-n4-14-20191016-17:03:54-2580
attr configname First-n4
attr datetime 20191016-17:03:54
attr experiment First-n4
attr inifile omnetpp.ini
attr iterationvars ""
attr iterationvarsf ""
attr measurement ""
attr network org.omnetpp.queueing.Pizza
attr processid 2580
attr repetition 14
attr replication ""
attr resultdir results
attr runnumber 14
attr seedset 14
param **.PS.maxInventoriedPS 4
param **.U1.interArrivalTime exponential(2s)
param **.U2.interArrivalTime exponential(4s)
param **.PS.serviceTimeForInventoryU1 exponential(0.8s)
param **.PS.serviceTimeForInventoryU2 exponential(1.0s)
param **.PS.serviceTimeDirectU1 exponential(1.2s)
param **.PS.serviceTimeDirectU2 exponential(1.4s)
param **.PS.probabilityProducing 0.5
param **.CS.serviceTimeU1 exponential(0.8s)
param **.CS.serviceTimeU2 exponential(1.0s)

vector 0 Pizza.EntryQueueU1 queueLength:vector ETV
attr interpolationmode sample-hold
attr title "queue length, vector"
vector 1 Pizza.CS queueLength:vector ETV
attr interpolationmode sample-hold
attr title "queue length, vector"
vector 2 Pizza.EntryQueueU2 queueLength:vector ETV
attr interpolationmode sample-hold
attr title "queue length, vector"
vector 3 Pizza.sink lifeTime:vector ETV
attr interpolationmode none
attr title "lifetime of arrived jobs, vector"
attr unit s
vector 4 Pizza.sink lifeTimeU1:vector ETV
attr interpolationmode none
attr title "lifetime of arrived jobs, vector"
attr unit s
vector 5 Pizza.sink lifeTimeU2:vector ETV
attr interpolationmode none
attr title "lifetime of arrived jobs, vector"
attr unit s
0	0	0	0
0	36	7.626999046764	1
0	38	8.121256100938	2
0	40	8.592762200753	3
0	43	9.015562409945	2
0	47	9.290477850807	3
0	53	12.082512191556	4
0	56	14.807052354365	3
0	61	15.550341021095	2
0	68	18.662060041799	1
0	72	19.533082634406	2
0	74	19.783352831826	3
0	79	21.125440150436	2
0	89	21.923402854585	3
0	90	22.223555706012	2
0	96	23.178123964034	1
0	101	23.346580836548	0
0	122	24.636962172741	1
0	124	25.316049656925	2
0	125	25.66949243822	1
0	131	26.732722597439	0
0	153	28.541120584351	1
0	155	29.88324860689	0
0	174	31.193327856406	1
0	176	32.389651279579	2
0	178	32.578047182824	3
0	180	33.699032736389	4
0	183	34.362025287344	3
0	193	35.247446043162	2
0	199	35.480822734369	3
0	201	35.95095534835	4
0	202	36.061679513684	3
0	207	36.275887387052	2
0	212	36.345266017002	1
0	216	36.432617714555	2
0	219	36.989474935104	1
0	224	37.33250529324	0
0	233	38.121827624036	1
0	241	39.051720331575	2
0	245	39.617952809793	3
0	248	41.309624465348	2
0	254	43.22338801666	1
0	259	44.015963744994	0
0	284	50.234808548404	1
0	288	50.844470518017	0
0	294	50.977615240935	1
0	298	51.438972643971	2
0	300	52.382775818836	1
0	306	52.724376510161	2
0	309	53.347281837545	3
0	310	53.646946662812	2
0	317	54.696912540047	1
0	323	56.450595068309	0
0	337	57.633215522256	1
0	340	58.942146584808	0
0	380	66.342709955781	1
0	381	66.387091223729	0
0	394	66.778251973138	1
0	397	67.124173285966	0
0	419	69.231119673175	1
0	423	69.317578521801	2
0	424	69.418668157418	1
0	429	69.883819771117	0
0	436	70.47596753432	1
0	438	71.112024011282	0
0	490	81.869871429534	1
0	494	82.164521549498	2
0	495	82.226412609751	1
0	501	83.293636254061	2
0	502	83.657730597435	1
0	508	84.022020107943	2
0	512	85.838065191899	3
0	514	87.123300446053	4
0	517	87.607137985461	3
0	523	88.234106639244	4
0	524	88.398199311727	3
0	528	88.589926762588	4
0	532	90.139215209051	5
0	533	90.66765665906	4
0	537	91.834313155801	5
0	542	92.387477916725	4
0	546	94.164177525782	5
0	550	94.481856568356	6
0	553	95.028706055459	5
0	557	95.069806565657	6
0	559	95.211604520168	7
0	562	96.029288968459	6
0	566	96.105594674186	7
0	569	96.292543385968	6
0	575	97.613954626428	5
0	580	98.003177869844	4
0	585	100.240774541889	3
0	590	100.952066488988	2
0	595	102.762908431932	1
0	599	103.723312436031	2
0	602	104.559231947884	1
0	606	104.911857086177	2
0	610	106.007244276717	3
0	611	106.824041864729	2
0	616	107.322680377433	1
0	621	108.831131685383	0
0	643	109.674353588873	1
0	646	110.251559308118	0
0	650	110.68826709864	1
0	652	110.947097630682	2
0	655	111.353616286007	1
0	666	114.489006334095	2
0	668	114.669972156304	3
0	671	114.748369262131	4
0	672	116.271901552785	3
0	680	116.842720473363	2
0	688	117.571444204338	1
0	694	118.462779583924	0
0	701	118.571303492104	1
0	703	119.693094282353	2
0	705	120.6277751907	3
0	706	121.167622770365	2
0	713	122.742929858565	3
0	714	123.38354171386	2
0	719	124.505974028094	1
0	727	125.346378542127	0
0	733	125.352927452053	1
0	735	126.606348545447	2
0	736	126.815576358697	1
0	741	127.386075157539	0
0	752	127.855992698813	1
0	753	128.210040218417	0
0	757	129.89892322274	1
0	761	131.828126266523	2
0	765	134.622700300045	1
0	771	135.788037233635	0
0	799	138.855381060603	1
0	801	139.837597917472	0
0	809	140.339174509603	1
0	812	141.292589587894	2
0	814	141.80119552694	3
0	815	141.908397206715	2
0	821	143.442151958085	3
0	822	143.719680589374	2
0	830	144.539645325062	3
0	832	144.666072598391	4
0	834	144.760508153551	5
0	836	145.014266877967	4
0	843	147.079321513617	3
0	848	147.967232497755	2
0	855	148.566636896544	1
0	863	149.624133242653	0
0	894	155.674254535919	1
0	897	156.607910218719	0
0	904	157.191176243896	1
0	905	157.555857603843	0
0	918	159.530591150397	1
0	921	160.466304283677	2
0	925	163.419140823315	1
0	931	164.418566375598	0
0	951	169.111694705435	1
0	954	169.786955797726	2
0	957	171.337515789649	1
0	962	172.766017120647	0
0	983	176.019145631794	1
0	985	177.062444470574	2
0	987	177.227555665796	3
0	988	177.528824544821	2
0	993	178.612257145513	1
0	999	178.871735656389	2
0	1001	181.028294569678	3
0	1002	181.184935259943	2
0	1006	181.708594556186	3
0	1010	182.771965324063	4
0	1011	183.313426256363	3
0	1015	183.320820810619	4
0	1018	184.692116464037	3
0	1024	187.406451668944	4
0	1026	189.588529378694	5
0	1028	190.356030248598	6
0	1033	191.384466456891	5
0	1038	192.013958749273	4
0	1046	196.477520392651	5
0	1048	196.521516565067	6
0	1050	197.88109324807	7
0	1051	198.00259072715	6
0	1057	198.366892702306	7
0	1059	198.510148248642	8
0	1062	198.955374292062	7
0	1066	199.51375466417	8
0	1068	200.470634418129	9
0	1071	201.456420552095	8
0	1077	204.040851577507	7
0	1083	204.878538898865	6
0	1088	205.563197970604	5
0	1094	206.289174569745	6
0	1095	207.750176815555	5
0	1099	207.787329311952	6
0	1101	209.051489048556	7
0	1107	211.850301224038	6
0	1112	212.495379761489	5
0	1116	213.56405297426	6
0	1121	216.326613067039	5
0	1127	216.574557152714	6
0	1130	218.863115485297	5
0	1136	219.02745972278	6
0	1138	219.502150308369	7
0	1139	220.325164873355	6
0	1146	220.814751390235	5
0	1151	220.868026360708	4
0	1157	221.391876277777	5
0	1158	222.202480077675	4
0	1163	222.221733398085	3
0	1168	222.739421352673	2
0	1175	223.333958245367	3
0	1176	224.961685243136	2
0	1181	225.156629602835	1
0	1185	225.487700391957	2
0	1187	226.720172179785	3
0	1190	227.201020075011	2
0	1194	228.153453414931	3
0	1196	229.155411423947	4
0	1198	230.095808958085	5
0	1200	232.979125298992	6
0	1205	234.283826137769	7
0	1209	235.686407033094	8
0	1210	236.843666625562	7
0	1219	238.621698341173	6
0	1224	238.779375932263	5
0	1229	239.183258080395	4
0	1234	239.577575592294	3
0	1239	239.588735509263	2
0	1246	241.51416335602	1
0	1251	241.975612285232	0
0	1257	243.141295148952	1
0	1258	243.329786487079	0
0	1262	244.533595836953	1
0	1264	244.850683325144	2
0	1266	244.91097512066	3
0	1272	246.075353251963	4
0	1273	246.483791202761	3
0	1280	248.871767356834	4
0	1281	249.97181721427	3
0	1287	250.520973506136	2
0	1292	251.021452894642	1
0	1299	252.204569067201	2
0	1300	252.420323549305	1
0	1307	252.722443476147	0
0	1332	254.541659141021	1
0	1333	255.042774139337	0
0	1345	255.294181183275	1
0	1346	255.478365381829	0
0	1352	255.546160907489	1
0	1356	257.490255125974	0
0	1368	258.615262777966	1
0	1369	259.01170480128	0
0	1462	278.605060957263	1
0	1463	278.622200822327	0
0	1469	279.10710710087	1
0	1470	279.675601893328	0
0	1518	287.567115964705	1
0	1522	289.5701592544	0
0	1526	290.203330219129	1
0	1528	290.288649873606	2
0	1530	290.596427484585	3
0	1532	292.218435585177	4
0	1534	293.562989736429	5
0	1536	294.551892867836	6
0	1541	300.297356281449	5
0	1549	302.574006697304	6
0	1550	302.614067210364	5
0	1556	302.749194160994	6
0	1558	302.945680558952	5
0	1563	302.965876397709	4
0	1571	304.429975343921	5
0	1572	304.607270496079	4
0	1578	305.205164283072	5
0	1582	308.207865440554	6
0	1585	309.097089257903	5
0	1589	309.227241880028	6
0	1591	309.242563693784	7
0	1593	310.886605633646	8
0	1597	312.591150836159	9
0	1600	313.35972448056	10
0	1604	313.475426809659	11
0	1605	313.731964346769	10
0	1611	314.286423940193	11
0	1613	314.29378537261	12
0	1614	314.375222581815	11
0	1618	316.156671309974	12
0	1620	316.25467399285	13
0	1622	316.424522279455	14
0	1626	317.591045474124	15
0	1628	318.12595977505	16
0	1632	318.8854812844	17
0	1633	318.893440285529	16
0	1639	321.593063770428	15
0	1644	322.088750446266	14
0	1649	323.427988586723	13
0	1654	324.407686999622	12
0	1660	325.419236864205	13
0	1662	326.468515050663	14
0	1663	327.624031930312	13
0	1667	328.438809648544	14
0	1670	330.860844584299	13
0	1674	331.049454685935	14
0	1677	333.502774515406	13
0	1684	335.161765806852	14
0	1685	335.256028733048	13
0	1690	335.814804783262	12
0	1695	338.239442222439	11
0	1703	341.298816227845	10
0	1709	341.577403658971	9
0	1714	341.91223973137	8
0	1720	342.36557918573	7
0	1725	342.80432314579	6
0	1731	343.914697679693	5
0	1737	344.476939184608	4
0	1745	345.221505714972	5
0	1746	345.418933836428	4
0	1751	345.789999978052	3
0	1757	346.76873835177	4
0	1758	346.814440288054	3
0	1765	347.884306713831	4
0	1766	347.962554420296	3
0	1772	348.343895707549	4
0	1774	348.380645092805	5
0	1776	348.434399290551	6
0	1779	348.818462232499	7
0	1781	349.161265372217	6
0	1790	349.874394952181	7
0	1791	350.735995754901	6
0	1796	352.570775573602	5
0	1802	352.983389157956	6
0	1803	352.988213611962	5
0	1809	353.780664612518	6
0	1810	353.831782590185	5
0	1815	354.345681604933	4
0	1819	355.501326087807	5
0	1821	355.939181415958	6
0	1825	356.403565880419	7
0	1826	356.575548649293	6
0	1834	359.145588992369	5
0	1839	359.250198224086	4
0	1846	360.357143135832	3
0	1850	360.613190106441	4
0	1852	361.278041778222	5
0	1855	363.840055069998	4
0	1859	365.072282059676	5
0	1863	365.279115554709	6
0	1867	366.658735796061	7
0	1868	366.692235187328	6
0	1874	367.795724280701	7
0	1876	368.654285129758	8
0	1879	369.442932665509	7
0	1883	369.58076938114	8
0	1885	369.644052455277	9
0	1887	369.694830790108	10
0	1893	370.257317706464	11
0	1895	370.539556815761	10
0	1900	371.361817506233	9
0	1904	372.078112493931	10
0	1906	372.677820825373	11
0	1909	373.053892514294	10
0	1913	373.093186560117	11
0	1917	374.161851945301	12
0	1918	374.169788241619	11
0	1923	374.964048629178	10
0	1927	375.064250910502	11
0	1931	376.490090180939	10
0	1938	377.513831839106	9
0	1943	379.176228565951	8
0	1947	379.530509891393	9
0	1949	380.495595821185	10
0	1954	382.292821435152	9
0	1959	383.461572495396	8
0	1965	384.81431980399	9
0	1967	385.05619072031	8
0	1976	386.208350105413	7
0	1981	387.33818532075	6
0	1985	388.775557580071	7
0	1988	389.001082927672	6
0	1993	391.413806602441	5
0	1997	391.476347881774	6
0	2002	393.586524407123	5
0	2008	393.82810465851	4
0	2014	394.08708805625	3
0	2021	396.171122566278	4
0	2022	396.486549323536	3
0	2027	396.583921075922	2
0	2033	396.758498063922	3
0	2036	397.372788639158	2
0	2040	397.521031844603	3
0	2046	401.309371528883	2
0	2051	402.477383903696	1
0	2057	402.570623259031	2
0	2059	402.791262053032	3
0	2060	404.405044988912	2
0	2064	404.853144649921	3
0	2067	405.339843995494	2
0	2072	406.315884741652	1
0	2077	406.681357959233	0
0	2097	408.064764088562	1
0	2100	409.602302625777	0
0	2155	420.243121820333	1
0	2160	420.890963219733	2
0	2161	421.247542313761	1
0	2169	422.643605469919	0
0	2182	423.590730110624	1
0	2185	424.635324778133	0
0	2194	425.783938272922	1
0	2198	427.439070835544	0
0	2218	431.366773534595	1
0	2219	431.978199474212	0
0	2225	432.102444552538	1
0	2230	433.108542021284	0
0	2239	433.220197520079	1
0	2243	434.378964846701	2
0	2244	434.548352720309	1
0	2249	434.610608673172	0
0	2257	436.02163156722	1
0	2261	437.24518257368	2
0	2262	437.301451595283	1
0	2273	438.719534075601	2
0	2275	441.378194517103	1
0	2284	441.812092400906	0
0	2310	444.364452860576	1
0	2312	444.692111243799	2
0	2316	447.293518097725	1
0	2322	447.591393750688	0
0	2353	449.486248456642	1
0	2354	449.960609282654	0
0	2360	450.132832711143	1
0	2361	450.681103605101	0
0	2367	451.134558844811	1
0	2368	451.143397876421	0
0	2372	452.184276830037	1
0	2374	453.469056372167	2
0	2377	453.65014481425	1
0	2381	453.759148724246	2
0	2387	455.637997895149	3
0	2389	457.007035439236	2
0	2399	458.902219307815	1
0	2407	460.156701481943	2
0	2408	461.2057049756	1
0	2416	462.342946210554	0
0	2449	465.11872932146	1
0	2450	465.18004688837	0
0	2456	465.252468416503	1
0	2457	466.058087141289	0
0	2478	468.839287502011	1
0	2480	470.718799023817	2
0	2481	470.727172496985	1
0	2488	472.548031815206	0
0	2494	472.864881688108	1
0	2499	473.889144805058	2
0	2500	474.371703557946	1
0	2504	474.406010485787	2
0	2507	475.333724910289	1
0	2511	476.051116982793	2
0	2513	476.322474851523	3
0	2521	479.103610809705	4
0	2522	479.119466689812	3
0	2527	479.7189931179	2
0	2531	479.852811078897	3
0	2535	482.668732806075	4
0	2536	482.685703150984	3
0	2540	482.901101599148	4
0	2549	487.095795054129	3
0	2555	487.660963518739	2
0	2562	488.464302525283	1
0	2568	490.20746863009	2
0	2573	491.940626637329	1
0	2578	492.492232885665	0
0	2584	493.820466292895	1
0	2590	494.595235801034	0
0	2614	496.725701103808	1
0	2617	497.290448155567	2
0	2619	497.71790972916	3
0	2622	498.138345748986	2
0	2629	498.745025026125	3
0	2630	498.980747482019	2
0	2636	499.675325070848	1
0	2641	499.757800154203	0
0	2680	502.341263717608	1
0	2681	502.791185876317	0
0	2687	503.543663616098	1
0	2689	503.817491460013	0
0	2695	503.862256413795	1
0	2696	503.890721052986	0
0	2716	505.323722948338	1
0	2720	507.005039907592	0
0	2731	507.213833613344	1
0	2734	507.34507466242	2
0	2735	507.681879368475	1
0	2743	507.990239458344	2
0	2744	508.001868897022	1
0	2750	508.026019672316	2
0	2752	508.268817252339	3
0	2754	509.333092412124	4
0	2757	510.593015040378	3
0	2762	510.608208097171	2
0	2768	511.131592156385	1
0	2773	511.35544444967	0
0	2779	511.760151038181	1
0	2782	512.493635771705	0
0	2796	513.564998600881	1
0	2799	513.96681808932	2
0	2802	516.866553497858	3
0	2804	517.831841153109	4
0	2806	517.99781631928	5
0	2811	519.522038984041	4
0	2816	519.885532197679	3
0	2821	520.073929372684	2
0	2826	520.619389171365	1
0	2834	521.157050559542	0
0	2887	527.280747888352	1
0	2888	527.431597656034	0
0	2897	527.8882815855	1
0	2898	527.941837190587	0
0	2904	528.613286843034	1
0	2905	528.7045605742	0
0	2930	532.573395016885	1
0	2933	533.067730491659	0
0	2939	533.089577969877	1
0	2944	533.700595149095	0
0	2981	536.110717099135	1
0	2982	536.628666239574	0
0	2988	537.008532487214	1
0	2989	537.249546613876	0
0	2996	537.579128766931	1
0	2999	537.964316614468	2
0	3000	538.373392696892	1
0	3006	538.449447520504	0
0	3017	539.499178886345	1
0	3019	539.665564471526	2
0	3021	540.29827895859	1
0	3027	540.719322512291	0
0	3038	540.825768790082	1
0	3039	542.186993087728	0
0	3139	561.819086466276	1
0	3143	562.697121309418	2
0	3146	563.044984199128	1
0	3151	563.34427627463	0
0	3200	569.285660564939	1
0	3202	569.571831671868	2
0	3203	569.820839275283	1
0	3208	573.077632256193	0
0	3214	574.721190089577	1
0	3220	575.924450888142	2
0	3221	576.464417463784	1
0	3225	577.251604846892	2
0	3227	577.263673734369	3
0	3229	579.558455733039	4
0	3232	581.433911099453	3
0	3239	584.243119014277	2
0	3245	585.642481533573	3
0	3246	586.186246430378	2
0	3252	587.207681006851	1
0	3258	587.701191743486	2
0	3259	587.892901218978	1
0	3264	589.429328642642	0
0	3268	589.979937652213	1
0	3271	590.025185240556	0
0	3437	624.346837075443	1
0	3440	624.643371117819	2
0	3441	625.344168345073	1
0	3447	626.665614681175	2
0	3448	626.850794625981	1
0	3453	627.792799278283	0
0	3464	628.234309518325	1
0	3466	628.828014975747	0
0	3481	631.856821896713	1
0	3482	632.167192258072	0
0	3515	634.925671364317	1
0	3518	635.068976555887	0
0	3522	637.364818006021	1
0	3526	637.449357347762	2
0	3528	637.765671184734	3
0	3529	637.859634132613	2
0	3533	638.765349894766	3
0	3537	639.480192511379	4
0	3540	639.751066302254	3
0	3546	641.716832451063	2
0	3551	642.239526324041	1
0	3556	642.459133888672	0
0	3560	643.320367882451	1
0	3563	644.265119954567	0
0	3578	646.589164631598	1
0	3579	647.016466845256	0
0	3586	647.986963713346	1
0	3587	648.240084735271	0
0	3593	648.778269000281	1
0	3594	649.153330330143	0
0	3618	651.678106689608	1
0	3620	652.232440847048	2
0	3622	652.280858511409	3
0	3626	653.411414426314	2
0	3631	655.292344135316	1
0	3639	655.961558084531	2
0	3640	656.128031446079	1
0	3645	656.731645163848	0
0	3649	657.101469594461	1
0	3657	658.59165198279	2
0	3659	658.926691394792	3
0	3663	659.340767965448	4
0	3666	659.598311069097	5
0	3667	659.621206278031	4
0	3676	661.159235415038	5
0	3677	661.179083645169	4
0	3684	661.919107146693	3
0	3690	664.101520355588	2
0	3695	664.820782058991	1
0	3701	664.995532006587	0
0	3721	667.079991959631	1
0	3723	667.646586533687	2
0	3725	667.958297566513	3
0	3729	668.315012206003	4
0	3733	669.474386470851	3
0	3737	670.222220782356	4
0	3740	671.02925411051	3
0	3746	671.880913365475	4
0	3749	672.36596155945	3
0	3754	673.388016631854	2
0	3759	675.833157898814	1
0	3765	676.871609383352	0
0	3773	677.061736285624	1
0	3774	677.133719167484	0
0	3780	678.236006834284	1
0	3784	680.018035162157	2
0	3789	680.847075066151	3
0	3791	680.873549659887	4
0	3792	681.206712956965	3
0	3798	683.728245235122	2
0	3804	686.814529686592	3
0	3808	687.02395727587	4
0	3809	687.098462993367	3
0	3816	687.771407967421	4
0	3819	688.468412747863	3
0	3824	690.003598599553	2
0	3829	690.008876234416	1
0	3841	692.805019170495	0
0	3854	695.303565641775	1
0	3856	695.345685285673	2
0	3857	695.748336337598	1
0	3862	696.018590655162	0
0	3877	697.518210740229	1
0	3878	697.618337299921	0
0	3903	700.770975059231	1
0	3906	704.21788092357	0
0	3931	706.497273566317	1
0	3936	707.854077265949	0
0	3943	708.212993359988	1
0	3945	709.08704751106	2
0	3948	709.671706175998	1
0	3953	710.349157439929	0
0	3966	711.500998811077	1
0	3971	712.758889498266	0
0	3987	715.74387704813	1
0	3989	716.033267676935	0
0	4003	719.369781670803	1
0	4006	721.216779961205	0
0	4020	723.514385677645	1
0	4023	725.986218895963	0
0	4036	729.178745269124	1
0	4037	730.800789082612	0
0	4049	733.217604142019	1
0	4051	733.401956087456	0
0	4080	738.703834243565	1
0	4081	738.837334325771	0
0	4087	739.044399544617	1
0	4089	739.165862138361	2
0	4091	739.223646071173	3
0	4092	739.459921636985	2
0	4097	739.93192518509	1
0	4102	740.293189459908	0
0	4116	742.057956548586	1
0	4119	742.81520195636	2
0	4122	743.138350643279	3
0	4127	745.791881433765	2
0	4132	746.279801746037	1
0	4137	746.461445718791	0
0	4157	749.95018865823	1
0	4163	753.766020496174	0
0	4167	753.923369161531	1
0	4169	755.571261482604	2
0	4173	757.789304874606	1
0	4178	758.987273195124	0
0	4210	764.680540692237	1
0	4213	765.143623473115	0
0	4242	769.719012834145	1
0	4243	770.408604711244	0
0	4284	783.323398908651	1
0	4285	785.829499233801	0
0	4293	787.621521081916	1
0	4294	787.758226562558	0
0	4300	787.770889281244	1
0	4302	787.857719757758	2
0	4303	788.169397627784	1
0	4308	788.465870304376	0
0	4321	790.225773363508	1
0	4322	790.475093714094	0
0	4326	791.384957847929	1
0	4328	791.431602882275	2
0	4331	792.057813903031	1
0	4335	792.425393853673	2
0	4339	792.534830173809	3
0	4340	792.53977457331	2
0	4349	793.43323011945	1
0	4354	794.594350782976	0
0	4389	800.735248903968	1
0	4391	801.863209749347	0
0	4397	802.30756425593	1
0	4399	803.408446599516	2
0	4403	805.165459986011	1
0	4408	805.219803227869	0
0	4421	807.034396666803	1
0	4422	807.601534272833	0
0	4426	808.636027294741	1
0	4435	810.546607060449	0
0	4453	811.056211804727	1
0	4455	811.574193657949	0
0	4461	811.992748099859	1
0	4462	812.20861637809	0
0	4477	818.143832209727	1
0	4478	818.254624842093	0
0	4503	824.99029935176	1
0	4504	825.128732076738	0
0	4511	826.345782927961	1
0	4512	826.585453197861	0
0	4584	836.426895837838	1
0	4586	836.815155629153	2
0	4589	837.033783461928	1
0	4599	841.795063381806	0
0	4612	843.686155915448	1
0	4615	843.952257261971	2
0	4617	844.66055850053	1
0	4622	844.802790592038	0
0	4626	845.337661101673	1
0	4629	847.188444356167	0
0	4642	850.284215300142	1
0	4647	851.974795844991	0
0	4689	857.35469099899	1
0	4691	857.484338836544	0
0	4703	857.6486526193	1
0	4705	858.519580830222	0
0	4753	868.089279831624	1
0	4755	868.112873571357	2
0	4756	868.313314167371	1
0	4762	868.599533283565	2
0	4763	869.276360301712	1
0	4768	869.687813898589	0
0	4772	870.926353621744	1
0	4774	873.222239685261	2
0	4779	874.409685657977	1
0	4783	875.150247662354	2
0	4787	876.081136666163	1
0	4793	876.540961117662	2
0	4794	876.935704157537	1
0	4798	877.748767082912	2
0	4800	878.439130875317	3
0	4802	878.642538379111	4
0	4807	879.741448020912	3
0	4812	880.070000489659	2
0	4818	880.346141303061	3
0	4820	880.780722956467	4
0	4821	880.956109064132	3
0	4826	882.441947897298	2
0	4830	883.321347679945	3
0	4832	883.871565819004	4
0	4834	884.553110143036	5
0	4838	885.220823132221	6
0	4839	885.488891790209	5
0	4844	886.750779744137	4
0	4848	888.994984022651	5
0	4850	889.455078179019	6
0	4854	890.586481587946	7
0	4855	890.980418212227	6
0	4861	891.609988924885	7
0	4864	892.044319336743	6
0	4878	895.529383952868	5
0	4883	896.329630336836	4
0	4887	896.500918884199	5
0	4891	897.567622625848	6
0	4893	897.882337928822	7
0	4894	898.249171399821	6
0	4901	900.397233114372	5
0	4905	902.022763325871	6
0	4911	903.738545729304	5
0	4916	904.948080453027	4
0	4925	906.109526737902	3
0	4931	907.083362844424	2
0	4940	907.395533320451	3
0	4941	907.457760751766	2
0	4947	907.507260701687	3
0	4950	908.215511922	2
0	4954	910.134738148757	3
0	4958	911.168409026066	4
0	4961	912.770980987405	3
0	4972	915.32809930135	2
0	4976	915.488863146929	3
0	4979	917.041321277072	2
0	4983	920.546487143182	3
0	4986	922.268280319192	2
0	4992	923.941780138076	1
0	4997	924.239262922197	0
0	5001	924.355264787961	1
0	5003	925.030455111263	2
0	5010	927.36027058514	1
0	5014	927.574979905282	2
0	5017	931.114919477068	1
0	5023	932.027387746791	2
0	5025	934.606975498979	3
0	5029	935.835431507888	4
0	5030	936.458235858666	3
0	5035	937.383034967929	2
0	5041	939.893378580001	3
0	5043	940.1868452971	4
0	5046	940.561646054202	3
0	5050	940.657705115921	4
0	5053	942.46519804593	3
0	5057	942.604712760538	4
0	5059	942.757812804085	5
0	5063	946.628238636536	6
0	5065	946.975588460091	7
0	5067	951.594936762267	8
0	5072	952.221784484255	7
0	5078	952.841445867445	6
0	5084	952.932633098096	7
0	5085	953.074922507106	6
0	5089	953.220823472185	7
0	5091	954.917500517245	8
0	5093	955.285786594912	9
0	5095	957.174652860235	10
0	5102	961.070483933229	9
0	5109	963.458789790305	8
0	5114	964.451333735141	7
0	5122	967.013325421775	6
0	5129	967.682789150105	5
0	5133	967.89818679518	6
0	5136	968.243749399944	5
0	5141	970.342129286546	4
0	5146	970.770328228515	3
0	5152	972.330704690836	4
0	5155	974.291121230524	3
0	5163	978.128928788948	2
0	5168	978.72481947977	1
0	5172	980.517859601045	2
0	5177	983.969959412634	1
0	5185	984.699738601016	2
0	5187	985.008185024545	3
0	5188	985.998240320327	2
0	5193	988.450392959572	1
0	5197	988.728638633578	2
0	5201	990.273719863167	3
0	5202	990.612462413129	2
0	5207	993.576686607872	1
0	5213	994.549199576578	0
0	5224	994.995763665462	1
0	5225	995.089588443531	0
0	5229	995.353096511222	1
0	5232	997.192819018607	0
0	5285	1002.092608057534	1
0	5286	1002.182831517006	0
0	5322	1008.019906066788	1
0	5329	1010.430630353354	0
0	5337	1012.377005477999	1
0	5338	1012.435748910525	0
0	5358	1015.10665057799	1
0	5364	1016.301853607391	2
0	5366	1016.989050718009	3
0	5368	1017.147315400968	4
0	5369	1017.536314930134	3
0	5375	1018.508869342934	2
0	5382	1019.021112719046	1
0	5387	1019.700550406437	0
0	5394	1019.901640229219	1
0	5397	1021.118751551198	0
0	5403	1021.924588889256	1
0	5406	1022.876535421936	2
0	5408	1023.482194689645	1
0	5415	1023.660486914816	2
0	5417	1023.828748680935	3
0	5418	1023.918170483569	2
0	5424	1025.12184211424	1
0	5429	1025.345083150765	0
0	5436	1027.926035912478	1
0	5438	1029.049895946651	0
0	5450	1030.757166866862	1
0	5453	1031.628718956019	2
0	5460	1033.437687396928	1
0	5466	1033.963181604618	2
0	5468	1034.448079909609	3
0	5469	1035.04366886838	2
0	5474	1035.047626305374	1
0	5481	1035.910958578718	0
0	5530	1046.834686919197	1
0	5532	1049.187321532254	2
0	5534	1050.176770971993	3
0	5536	1050.360832976269	4
0	5542	1052.737079690816	3
0	5548	1052.755721645712	4
0	5550	1054.537606353885	5
0	5552	1055.468983901112	6
0	5555	1055.803604077428	7
0	5557	1056.331265749057	6
0	5562	1056.390720489131	5
0	5569	1057.117217690563	6
0	5571	1057.479117369243	5
0	5576	1058.220217505158	4
0	5582	1059.47154052907	3
0	5589	1060.095199310261	4
0	5595	1061.41762554238	5
0	5597	1061.925529601693	6
0	5598	1061.945581181346	5
0	5603	1062.59805339487	4
0	5609	1062.768935289398	5
0	5610	1063.475146298625	4
0	5614	1063.65482822108	5
0	5618	1065.258837690212	4
0	5623	1065.856538347334	3
0	5629	1066.749616110123	2
0	5634	1066.790635511733	1
0	5641	1068.865480574275	0
0	5645	1069.055464835584	1
0	5650	1069.979786624498	0
0	5656	1070.44258768844	1
0	5657	1070.504799480495	0
0	5687	1073.547057784276	1
0	5691	1074.793198462431	0
0	5699	1076.400259374118	1
0	5700	1076.482358647067	0
0	5727	1079.282915474848	1
0	5732	1082.591470960098	0
0	5738	1082.629226600084	1
0	5739	1082.859308606327	0
0	5761	1084.102703076043	1
0	5762	1084.889085873212	0
0	5768	1084.889970130202	1
0	5771	1086.397643680569	0
0	5782	1087.608646172352	1
0	5784	1088.199919215489	0
0	5815	1091.204629276878	1
0	5817	1092.277711672061	2
0	5823	1093.556374536399	3
0	5826	1093.906374064114	4
0	5827	1094.235393499429	3
0	5833	1094.929038684729	2
0	5839	1095.352590140231	1
0	5845	1095.862795140235	2
0	5847	1096.054562680841	1
0	5851	1096.060514865538	2
0	5857	1097.928412435047	3
0	5859	1097.979817145405	4
0	5866	1100.424228720439	5
0	5867	1100.445688004985	4
0	5876	1102.263282992444	3
0	5880	1102.279024897027	4
0	5883	1103.692319983172	3
0	5889	1106.43644740888	2
0	5894	1106.626304070817	1
0	5899	1107.727406788642	0
0	5915	1108.819928494518	1
0	5919	1109.868883135567	0
0	5927	1110.422820549422	1
0	5933	1111.802087096021	2
0	5934	1111.869961463164	1
0	5939	1111.885825554909	0
0	5945	1112.139469098823	1
0	5947	1112.737031896121	0
0	5964	1113.706839064174	1
0	5968	1115.161292579008	2
0	5969	1115.60407705153	1
0	5975	1115.678613958234	0
0	5987	1117.354782555861	1
0	5988	1117.833160368089	0
0	5992	1118.142646911128	1
0	5999	1120.845442050885	0
0	6006	1122.143646879573	1
0	6008	1122.559205592889	2
0	6010	1122.565795501064	3
0	6012	1122.644684559653	4
0	6013	1122.824205891327	3
0	6020	1123.456828455454	2
0	6026	1123.916938163401	3
0	6027	1124.322044072592	2
0	6032	1125.120988250406	1
0	6038	1126.077708604008	2
0	6040	1126.386588781737	3
0	6043	1128.682583123598	2
0	6048	1128.87155924219	1
0	6052	1128.890514824159	2
0	6055	1131.379560440686	1
0	6061	1133.450249522894	2
0	6063	1133.526082963263	3
0	6065	1135.347904715005	4
0	6067	1135.790757831321	5
0	6071	1136.566009185066	6
0	6074	1137.545557472734	5
0	6078	1137.588063489549	6
0	6080	1137.691318828847	7
0	6082	1138.284352156615	8
0	6085	1138.605199395996	7
0	6089	1140.619574917571	8
0	6091	1141.70074732852	9
0	6094	1142.341777120654	8
0	6098	1142.766629094812	9
0	6104	1143.409377201011	10
0	6105	1143.439892994288	9
0	6113	1144.753262206554	10
0	6114	1146.254135910955	9
0	6119	1146.612723080574	8
0	6125	1147.030713579149	9
0	6128	1147.609341991603	8
0	6133	1148.114256517258	7
0	6137	1149.42031566211	8
0	6141	1149.815964737955	9
0	6142	1149.89494331368	8
0	6146	1150.446874692356	9
0	6149	1150.719248041801	8
0	6155	1153.521902594892	9
0	6156	1153.871174109093	8
0	6160	1154.610120463197	9
0	6163	1155.435670193741	8
0	6167	1155.516715863706	9
0	6171	1158.409434840098	8
0	6178	1158.983613107373	7
0	6184	1159.907796435097	8
0	6185	1161.591136544797	7
0	6190	1161.807897189127	6
0	6198	1164.38515636972	5
0	6204	1164.452701244489	6
0	6205	1164.493229986584	5
0	6211	1165.000575913061	6
0	6213	1165.069478456524	7
0	6215	1165.526725296303	8
0	6219	1165.806359950948	9
0	6220	1166.211041455267	8
0	6224	1166.223126184303	9
0	6228	1168.879784071614	10
0	6229	1169.874858602312	9
0	6240	1171.842076347104	8
0	6245	1172.083475968211	7
0	6249	1172.334724563304	8
0	6251	1172.491170100256	9
0	6253	1173.984739533767	10
0	6256	1174.753074275933	9
0	6263	1177.310087949973	8
0	6269	1179.165268253138	9
0	6270	1179.399127325356	8
0	6277	1182.181010969117	7
0	6281	1182.304728384366	8
0	6284	1183.028537581687	7
0	6289	1183.301202265749	6
0	6293	1183.357641398441	7
0	6296	1185.031901809621	6
0	6304	1186.567481459478	7
0	6305	1186.59868056139	6
0	6311	1187.34819509705	7
0	6313	1187.459582993239	8
0	6317	1187.82943971682	7
0	6323	1188.687244993123	6
0	6328	1189.429357342235	5
0	6333	1191.682809946005	4
0	6338	1193.233963671633	3
0	6347	1197.244371219162	4
0	6348	1197.293642450134	3
0	6353	1197.505443168723	2
0	6360	1198.864843339256	1
0	6365	1199.398485234268	0
0	6379	1201.265530836188	1
0	6380	1201.267521201593	0
0	6397	1202.860864416032	1
0	6399	1203.31685773278	0
0	6405	1203.733289504042	1
0	6406	1204.001531858522	0
0	6413	1205.650425977507	1
0	6415	1205.722736234058	0
0	6461	1210.237429365596	1
0	6462	1210.406253012433	0
0	6489	1217.782874378183	1
0	6492	1218.246259486656	0
0	6499	1219.528481810031	1
0	6501	1220.570885745525	2
0	6502	1221.373192574893	1
0	6509	1222.149739891833	2
0	6510	1222.666203931277	1
0	6519	1223.788063862838	2
0	6520	1223.823098691392	1
0	6529	1224.130210112598	2
0	6530	1224.393942390219	1
0	6535	1224.728553627137	0
0	6560	1232.246629602126	1
0	6561	1232.36504725481	0
0	6577	1234.013952768119	1
0	6578	1235.505736558643	0
0	6584	1235.693504179189	1
0	6586	1236.160594397823	2
0	6589	1238.935875376147	1
0	6595	1239.213245690813	2
0	6603	1240.595679098732	1
0	6608	1240.604050730809	0
0	6622	1241.193512726116	1
0	6623	1241.789514260575	0
0	6641	1243.615888699901	1
0	6642	1245.156424114518	0
0	6648	1245.481276738634	1
0	6650	1245.4958338917	2
0	6655	1246.700567034376	1
0	6660	1246.829224835205	0
0	6685	1248.406068558946	1
0	6687	1249.145967169321	0
0	6707	1251.402794489345	1
0	6709	1253.218341986609	2
0	6710	1254.484803534092	1
0	6719	1255.584551400353	0
0	6740	1258.280849197689	1
0	6745	1259.354116511325	0
0	6752	1260.185657182475	1
0	6754	1260.919414053405	0
0	6785	1268.191274848811	1
0	6790	1269.237010473238	2
0	6791	1269.38669370134	1
0	6797	1269.495621370148	2
0	6800	1269.983006895328	1
0	6806	1270.849161198413	2
0	6808	1271.166104091581	3
0	6810	1271.198243425056	4
0	6812	1271.435457459324	5
0	6814	1271.666781568787	6
0	6815	1271.924072700867	5
0	6820	1272.926392207756	4
0	6825	1273.521284237189	3
0	6829	1273.691432210934	4
0	6832	1274.528181775127	3
0	6836	1275.124513426516	4
0	6840	1276.866736791818	5
0	6843	1280.463219046456	4
0	6847	1280.842839968711	5
0	6850	1281.878550035846	4
0	6861	1282.911656765344	3
0	6866	1283.067129180887	2
0	6871	1283.288460992695	1
0	6878	1284.424014844709	0
0	6882	1284.743801278284	1
0	6887	1285.828945630853	0
0	6897	1287.078361532962	1
0	6899	1287.103449849578	2
0	6901	1287.228594235649	3
0	6906	1288.029812098619	2
0	6911	1288.081145050645	1
0	6917	1291.774085242882	2
0	6919	1291.898052685323	3
0	6925	1292.83175098195	4
0	6927	1293.142333155309	5
0	6928	1293.213873977104	4
0	6935	1294.325124725378	3
0	6940	1294.803293516429	2
0	6944	1294.938215756469	3
0	6949	1295.755958396104	2
0	6956	1296.124744034844	1
0	6961	1296.238081912888	0
0	6978	1297.741802621257	1
0	6980	1298.264014580713	2
0	6981	1299.426260883096	1
0	6986	1299.710340173685	0
0	7003	1303.67082391226	1
0	7004	1304.711569619588	0
0	7025	1306.858023534456	1
0	7027	1307.445567372872	2
0	7029	1308.270674567533	1
0	7035	1308.497620941063	2
0	7037	1308.839541664793	3
0	7039	1309.560754975506	4
0	7040	1309.756257099211	3
0	7046	1311.097757136768	2
0	7051	1311.18501250381	1
0	7056	1311.371908943739	0
0	7066	1313.429743498568	1
0	7068	1313.737563214999	2
0	7070	1314.766281151374	1
0	7076	1315.09930854163	2
0	7081	1316.793908522328	1
0	7090	1318.627823321748	2
0	7091	1318.781972221093	1
0	7098	1321.299539930769	0
0	7119	1324.189642510453	1
0	7121	1324.382382905315	2
0	7125	1327.428757222645	3
0	7126	1327.937067607938	2
0	7131	1328.890690312173	1
0	7138	1329.385165596588	2
0	7139	1329.400684480582	1
0	7144	1329.406875666747	0
0	7151	1329.883570649268	1
0	7152	1330.064923744428	0
0	7158	1330.233039440265	1
0	7162	1330.571805485674	2
0	7163	1330.60382737075	1
0	7167	1332.095688955	2
0	7172	1333.771622279612	1
0	7179	1334.271318478874	0
0	7200	1338.433816894949	1
0	7202	1340.254644118678	0
0	7213	1340.524912637409	1
0	7214	1340.616028396407	0
0	7257	1345.291642215256	1
0	7258	1346.177686449095	0
0	7271	1346.908468592547	1
0	7273	1347.583739476141	0
0	7279	1349.433314419014	1
0	7281	1350.158520820575	0
0	7303	1355.525446261113	1
0	7306	1356.362278754342	0
0	7331	1360.569178711654	1
0	7333	1361.219387980158	0
0	7339	1361.2911457007	1
0	7341	1361.851661951372	0
0	7380	1364.787136780526	1
0	7384	1365.651586872721	0
0	7395	1366.743932696395	1
0	7397	1366.886810917707	0
0	7403	1367.05134654488	1
0	7405	1367.857193399262	0
0	7412	1368.733283362372	1
0	7419	1370.180092173026	2
0	7422	1371.637407355193	1
0	7427	1371.81535804488	0
0	7440	1373.690988703087	1
0	7442	1373.800647701675	2
0	7444	1373.984448482499	3
0	7445	1374.110545870269	2
0	7451	1374.900711771569	3
0	7457	1375.364019711881	2
0	7461	1375.684078276794	3
0	7465	1376.224872882789	4
0	7466	1376.849813936551	3
0	7472	1378.33443341106	2
0	7478	1379.508793894458	3
0	7481	1380.055007560886	4
0	7482	1380.140600297979	3
0	7488	1380.816710148087	4
0	7491	1381.763011954719	3
0	7496	1383.518035981713	2
0	7501	1383.529572665965	1
0	7505	1385.183413582984	2
0	7508	1386.440691987066	1
0	7515	1388.080721006366	0
0	7519	1388.190562934804	1
0	7521	1388.566010308418	2
0	7525	1389.66227434207	3
0	7526	1389.857883866529	2
0	7535	1391.59265013045	1
0	7539	1391.802352162155	2
0	7541	1392.086125587119	3
0	7545	1392.814580305085	4
0	7554	1393.991744863956	5
0	7556	1394.064809345349	6
0	7557	1395.072688684644	5
0	7564	1395.2726935405	6
0	7565	1396.970780428862	5
0	7571	1397.066437595326	6
0	7572	1397.215884032765	5
0	7578	1397.5139669256	4
0	7583	1397.734303697931	3
0	7588	1397.858508753506	2
0	7593	1398.90023404983	1
0	7597	1399.600641723201	2
0	7599	1399.717294791498	3
0	7603	1400.788043148118	4
0	7605	1401.501918664492	5
0	7606	1403.061717789925	4
0	7612	1403.67615508377	5
0	7615	1405.794355635667	4
0	7619	1405.937358039488	5
0	7621	1406.127360140716	6
0	7623	1407.706281094074	7
0	7625	1408.021130515403	8
0	7629	1409.910341715046	7
0	7638	1411.202033005885	6
0	7646	1414.456051109706	5
0	7651	1414.592886813549	4
0	7655	1414.907590621422	5
0	7657	1415.006489413846	6
0	7659	1415.95838454142	7
0	7666	1417.67828942501	8
0	7667	1417.762608859395	7
0	7672	1418.118614807576	6
0	7677	1418.167767453084	5
0	7682	1418.391162185547	4
0	7688	1420.609736975793	5
0	7690	1421.540196527625	4
0	7695	1421.545194240577	3
0	7701	1424.725628398112	2
0	7707	1425.485950473117	1
0	7712	1426.076168455565	0
0	7723	1426.539449240794	1
0	7724	1426.696873017343	0
0	7728	1427.090882965723	1
0	7730	1427.203187107372	2
0	7733	1428.73399382864	1
0	7739	1430.079197468754	0
0	7745	1430.581567085648	1
0	7749	1430.814730351956	0
0	7757	1431.330174765653	1
0	7758	1431.459756226433	0
0	7820	1441.823686733764	1
0	7822	1442.214297154432	2
0	7826	1443.460755208512	3
0	7827	1443.77434588153	2
0	7833	1443.986188317432	1
0	7839	1444.083074745342	2
0	7842	1445.051716372476	1
0	7848	1446.263502825131	2
0	7849	1446.888617130863	1
0	7854	1447.171026104687	0
0	7867	1448.073398715122	1
0	7869	1448.41599196546	0
0	7880	1448.857276306746	1
0	7884	1449.637318402399	0
0	7904	1452.792132044872	1
0	7909	1454.577748764614	0
0	7918	1454.759132791844	1
0	7921	1455.206773258944	0
0	7932	1456.325054996106	1
0	7934	1457.112186479283	0
0	7940	1458.436991956639	1
0	7944	1459.246771237345	0
0	7950	1459.932897872558	1
0	7951	1460.347613437827	0
0	7957	1460.590935612598	1
0	7962	1461.264744315996	2
0	7963	1461.448648317972	1
0	7969	1461.588141694119	2
0	7971	1462.113072092716	1
0	7980	1462.869757145404	2
0	7984	1463.958542412548	3
0	7986	1464.31432387156	2
0	7991	1464.503103933271	1
0	7997	1465.27385073042	0
0	8013	1466.485221567336	1
0	8014	1468.120978278111	0
0	8022	1471.025872578998	1
0	8023	1471.057482767737	0
0	8039	1475.580810546552	1
0	8040	1477.070087226968	0
0	8046	1478.173673768102	1
0	8048	1478.467190448929	0
0	8059	1478.636864410236	1
0	8062	1479.293137878912	0
0	8069	1479.406796016191	1
0	8070	1479.662526625531	0
0	8103	1483.210747561172	1
0	8104	1484.563047862207	0
0	8139	1489.546331202763	1
0	8140	1489.742278690519	0
0	8147	1490.32220667919	1
0	8150	1492.08265487374	0
0	8154	1494.420394582376	1
0	8159	1496.165139779964	0
0	8163	1496.877530108387	1
0	8167	1498.618590710255	2
0	8172	1504.064184526806	1
0	8176	1505.641617864116	2
0	8180	1506.342788859089	3
0	8186	1507.012752140672	2
0	8192	1507.382396106296	1
0	8197	1508.193519486261	0
0	8201	1508.764388634958	1
0	8203	1508.948865349798	2
0	8205	1509.273747087204	3
0	8209	1510.497258434631	4
0	8211	1510.789909420966	5
0	8215	1511.623311771317	4
0	8221	1512.20187018734	3
0	8226	1512.37302303319	2
0	8232	1516.188304499165	3
0	8238	1519.085422413698	2
0	8244	1521.683241826654	1
0	8249	1521.797627940131	0
0	8265	1524.580496610399	1
0	8267	1525.001346821618	2
0	8269	1525.243151021092	3
0	8271	1525.416391694087	4
0	8275	1526.541610241846	3
0	8280	1526.711247143714	2
0	8286	1527.529384093056	3
0	8290	1528.8309053006	2
0	8296	1530.196903363508	1
0	8301	1530.336869950613	0
0	8307	1532.499077285429	1
0	8311	1535.292296340461	2
0	8313	1535.62259384901	3
0	8314	1535.678115137292	2
0	8320	1537.40404987176	3
0	8322	1537.43230325015	4
0	8326	1538.030980746093	5
0	8330	1538.894565599984	6
0	8333	1539.676856798228	5
0	8339	1539.779987347583	6
0	8340	1540.729369379739	5
0	8347	1541.132390906864	4
0	8351	1541.186433666386	5
0	8357	1541.982955486772	4
0	8363	1542.496558238293	3
0	8368	1542.626249988986	2
0	8372	1542.895223537169	3
0	8378	1543.766051463903	4
0	8381	1544.633153069376	3
0	8387	1545.790800326655	2
0	8395	1547.237151304394	3
0	8397	1547.910676129811	4
0	8398	1548.234670764324	3
0	8403	1548.591477857959	2
0	8408	1548.860914325734	1
0	8413	1549.744011402458	0
0	8443	1555.275966997755	1
0	8445	1556.497156992632	0
0	8456	1556.995080118726	1
0	8457	1557.540417347502	0
0	8490	1565.580892278071	1
0	8493	1566.298384922636	0
0	8497	1567.216980378525	1
0	8501	1568.753857721114	2
0	8502	1569.038683752794	1
0	8508	1569.240451277149	2
0	8509	1569.512491710702	1
0	8520	1572.178664826261	0
0	8526	1572.185534883693	1
0	8529	1572.399113904543	0
0	8535	1572.42852797536	1
0	8536	1572.491678793517	0
0	8571	1578.78682569235	1
0	8576	1580.96399906059	0
0	8595	1582.807766913163	1
0	8597	1582.985280737468	2
0	8599	1584.204444278857	3
0	8602	1586.413158734225	2
0	8607	1586.735294256778	1
0	8616	1588.929170598153	0
0	8639	1592.156185150826	1
0	8645	1597.243746973998	2
0	8647	1598.238857457306	3
0	8655	1599.845953877781	4
0	8657	1600.50888530213	5
0	8659	1601.727006925534	6
0	8661	1602.142054570344	7
0	8663	1602.518509522574	8
0	8665	1602.915497783601	9
0	8667	1607.285333172702	10
0	8671	1608.511716652502	11
0	8672	1608.561148167118	10
0	8678	1609.431247857776	11
0	8681	1610.341051297742	12
0	8682	1610.73533866229	11
0	8687	1611.240383192616	10
0	8693	1611.449053191893	9
0	8698	1611.617360293858	8
0	8703	1611.68146650514	7
0	8708	1613.446029106922	6
0	8716	1614.121637743414	7
0	8719	1614.671989923756	6
0	8726	1615.005300137254	7
0	8728	1615.978863801936	6
0	8734	1616.554843902912	5
0	8743	1617.538821414548	4
0	8749	1617.617071760199	5
0	8752	1618.356533408347	6
0	8754	1618.393147731251	7
0	8755	1618.522344024614	6
0	8760	1618.764937199825	5
0	8765	1618.985101700815	4
0	8774	1620.768009202103	3
0	8779	1623.096002855044	2
0	8784	1624.185363160694	1
0	8788	1624.818289653294	2
0	8791	1625.506771907671	1
0	8795	1626.392625652465	2
0	8797	1626.6788282187	3
0	8801	1629.500234918758	4
0	8802	1629.63591320259	3
0	8808	1631.133028480041	4
0	8811	1631.49020133279	3
0	8816	1632.440551396416	2
0	8826	1635.351913185817	3
0	8827	1635.549126152189	2
0	8832	1636.519985702724	1
0	8838	1636.552399198687	2
0	8840	1638.091506740968	1
0	8846	1639.224327791365	0
0	8875	1643.374387970481	1
0	8878	1643.943140346454	0
0	8900	1646.423360275805	1
0	8904	1647.220696266975	2
0	8906	1647.500323038485	3
0	8910	1647.732600136711	4
0	8913	1648.807849287221	5
0	8914	1649.526394496564	4
0	8919	1649.659851167894	3
0	8924	1650.048680591263	2
0	8931	1651.516342413369	1
0	8936	1652.265240986855	0
0	8942	1654.201895841647	1
0	8943	1654.484205442755	0
0	8949	1655.159581149966	1
0	8953	1656.176272670955	2
0	8955	1656.18569134332	3
0	8965	1659.362284466618	2
0	8971	1660.533990061203	1
0	8978	1661.063109073299	0
0	9016	1668.042986101552	1
0	9017	1668.199980127165	0
0	9029	1669.20722999532	1
0	9031	1671.572985986563	0
0	9037	1671.868354639149	1
0	9038	1672.375562088644	0
0	9065	1678.377359553917	1
0	9067	1679.806674890142	2
0	9069	1680.343588769102	3
0	9070	1680.868922013287	2
0	9076	1680.95742316119	3
0	9077	1681.081257202721	2
0	9083	1681.245748260746	3
0	9085	1681.700197641578	2
0	9091	1683.024894548487	1
0	9098	1683.373908794766	0
0	9109	1688.848850328445	1
0	9113	1689.315206830478	2
0	9116	1689.796910031234	1
0	9127	1690.477116198695	2
0	9128	1691.414998821372	1
0	9135	1691.847410044536	2
0	9138	1692.895869742221	1
0	9143	1693.138883864144	0
0	9155	1694.439398772291	1
0	9158	1695.941146089321	0
0	9217	1702.956107662847	1
0	9218	1703.255998789554	0
0	9232	1704.096721593946	1
0	9234	1705.177722392487	0
0	9243	1706.714219527475	1
0	9245	1706.919113889908	2
0	9246	1707.722999058238	1
0	9252	1708.337856873279	2
0	9253	1708.882264922143	1
0	9258	1708.955955884946	0
0	9272	1710.130593375703	1
0	9283	1713.26244969878	0
0	9331	1720.639929827808	1
0	9334	1721.313601587622	0
0	9347	1722.433112262236	1
0	9348	1722.492788935413	0
0	9362	1724.591859202544	1
0	9364	1726.035834845242	0
0	9384	1726.859203008484	1
0	9385	1726.891664248443	0
0	9404	1729.103488598103	1
0	9407	1730.132408165112	0
0	9427	1731.781682966575	1
0	9428	1732.070377290972	0
0	9439	1732.662443073505	1
0	9441	1733.487129944948	0
0	9455	1735.533645978446	1
0	9461	1738.226899252249	2
0	9462	1738.453015885638	1
0	9469	1739.494175226621	0
0	9477	1740.15682873656	1
0	9478	1740.711903010691	0
0	9484	1740.8339108868	1
0	9486	1741.361088095699	2
0	9493	1743.174417910508	1
0	9500	1743.87900725492	0
0	9517	1744.222107239253	1
0	9519	1744.678311894952	2
0	9520	1745.032011169111	1
0	9526	1745.710265478949	2
0	9531	1747.860397187719	1
0	9536	1748.519515237777	0
0	9558	1750.50296914069	1
0	9564	1750.855347288109	2
0	9567	1752.251065445431	1
0	9574	1752.952715911059	0
0	9591	1755.821625161665	1
0	9592	1756.476231626311	0
0	9601	1757.813864230312	1
0	9605	1759.360067108965	0
0	9611	1759.567728219216	1
0	9612	1759.914374764198	0
0	9622	1761.345789996028	1
0	9624	1761.980388197371	0
0	9630	1762.066935657913	1
0	9633	1763.077264141202	2
0	9638	1763.415700921765	3
0	9641	1763.562971686065	4
0	9642	1764.422483447222	3
0	9648	1765.174518045983	4
0	9649	1765.361017690935	3
0	9657	1766.520394860849	2
0	9663	1767.169026316277	3
0	9665	1767.642431756814	4
0	9666	1767.890823889822	3
0	9674	1769.831626317449	4
0	9675	1770.007031419688	3
0	9680	1772.621949184427	2
0	9687	1772.837409981273	1
0	9692	1773.203173995855	0
0	9696	1774.066541478184	1
0	9699	1775.321869803188	0
0	9726	1779.048185577367	1
0	9727	1779.181127385765	0
0	9735	1779.766305527435	1
0	9736	1780.461561525764	0
0	9747	1780.671460718763	1
0	9749	1782.133505859098	0
0	9771	1784.897744598915	1
0	9772	1785.167018951978	0
0	9776	1785.237839495859	1
0	9779	1785.647471955642	0
0	9783	1787.624309979054	1
0	9786	1788.522570755287	0
0	9797	1791.801716774113	1
0	9799	1792.914454618043	2
0	9803	1793.429315610594	3
0	9806	1794.341804460409	2
0	9812	1794.394422532575	3
0	9813	1795.021358901233	2
0	9818	1795.163525407918	1
0	9825	1795.908487333925	0
0	9837	1797.308317175191	1
0	9839	1799.278024046508	0
0	9850	1799.794819032977	1
0	9852	1800.06999327789	2
0	9853	1800.215006623708	1
0	9858	1801.023026484262	0
0	9923	1812.12962762815	1
0	9925	1812.842481291805	0
0	9939	1815.097893766748	1
0	9940	1815.409834650302	0
0	9946	1815.521469814433	1
0	9947	1815.770551019828	0
0	9953	1815.86651323827	1
0	9954	1815.95191149745	0
0	9960	1816.258800294477	1
0	9962	1817.234123622858	0
0	9989	1820.34173380419	1
0	9990	1820.616286674631	0
0	9997	1821.569641807233	1
0	9999	1822.38198727104	2
0	10000	1822.407576168704	1
0	10005	1822.665109665062	0
0	10047	1839.676399476434	1
0	10048	1840.17085713086	0
0	10054	1840.215690676593	1
0	10057	1840.555110068609	2
0	10059	1840.622834447913	3
0	10061	1841.126837905904	2
0	10066	1842.277302493677	1
0	10071	1842.70138190083	0
0	10148	1856.601956714325	1
0	10149	1856.645871845735	0
0	10155	1857.179013356769	1
0	10157	1857.675258104588	0
0	10163	1857.689360377293	1
0	10164	1857.747626792071	0
0	10207	1863.299186280692	1
0	10208	1863.312505088694	0
0	10256	1871.321992368987	1
0	10257	1871.359901035554	0
0	10283	1874.866778356689	1
0	10287	1875.038405697689	2
0	10289	1875.566068346539	1
0	10294	1876.972060174169	0
0	10305	1878.322335089089	1
0	10308	1879.134912377256	0
0	10312	1879.842384476484	1
0	10317	1881.353421362527	0
0	10335	1883.945425637994	1
0	10338	1884.434234403471	0
0	10384	1891.785356594708	1
0	10386	1892.554425032549	0
0	10399	1893.55189839501	1
0	10400	1894.288354337158	0
0	10413	1897.351971155824	1
0	10418	1898.20133484821	0
0	10435	1900.575831257256	1
0	10437	1901.232541437462	2
0	10440	1901.880784459235	1
0	10445	1902.616234584847	0
0	10454	1902.990941796505	1
0	10456	1903.099269862959	0
0	10464	1905.32506144467	1
0	10465	1906.213773346	0
0	10472	1907.637978329788	1
0	10474	1908.472135363783	2
0	10476	1909.421538230332	3
0	10477	1910.164045421218	2
0	10482	1910.576724967979	1
0	10487	1910.611264212635	0
0	10526	1920.026036609326	1
0	10528	1920.039900126311	2
0	10529	1920.408537878912	1
0	10534	1920.47082666271	0
0	10550	1922.502755626392	1
0	10553	1923.384128246225	0
0	10566	1924.292713052633	1
0	10567	1925.741292801621	0
0	10575	1927.83465057917	1
0	10576	1928.468237973077	0
0	10580	1929.145599253524	1
0	10586	1930.017881897451	2
0	10588	1931.985843658629	3
0	10589	1932.843516500643	2
0	10595	1933.673207596367	3
0	10599	1936.233877523524	2
0	10605	1936.799162239507	3
0	10607	1937.06383297992	2
0	10613	1937.759018170604	1
0	10618	1938.321372267587	0
0	10628	1939.880505906437	1
0	10629	1940.739209882843	0
0	10649	1947.386854767497	1
0	10652	1948.236873926935	0
0	10684	1953.082727683556	1
0	10687	1954.261283941647	0
0	10786	1975.495246762034	1
0	10787	1976.44693331777	0
0	10832	1986.790814630031	1
0	10833	1986.980713304739	0
0	10839	1987.447736319137	1
0	10840	1987.906900806263	0
0	10846	1988.540126528173	1
0	10849	1990.441331817108	0
0	10875	1992.888184231806	1
0	10877	1993.117699768786	0
0	10884	1993.817176421573	1
0	10885	1995.607244228992	0
0	10891	1995.959946023972	1
0	10893	1996.673305578658	0
0	10961	2011.369798515786	1
0	10963	2012.410778857555	2
0	10964	2012.869079022697	1
0	10969	2014.103547632337	0
0	10980	2014.967995465105	1
0	10984	2015.882240548262	2
0	10986	2015.999965444323	3
0	10987	2017.204511470661	2
0	10992	2017.32526951784	1
0	10997	2017.42293971884	0
0	11011	2018.930608779325	1
0	11012	2020.022476821005	0
0	11018	2021.68470730828	1
0	11020	2021.835719565469	2
0	11021	2022.280860203065	1
0	11026	2024.123386517701	0
0	11032	2024.642984030574	1
0	11033	2024.646804776235	0
0	11037	2025.64761867592	1
0	11041	2026.027907437856	0
0	11058	2028.472021895998	1
0	11059	2029.368173097228	0
0	11063	2029.735441442193	1
0	11065	2030.91780071164	2
0	11068	2031.777051016699	1
0	11075	2032.337247763764	0
0	11079	2032.573917714016	1
0	11082	2032.96364487798	0
0	11094	2034.182050186232	1
0	11096	2034.390126169183	0
0	11110	2035.229530956841	1
0	11115	2036.611793627075	0
0	11134	2039.2793529178	1
0	11136	2039.787223213297	0
0	11142	2040.136208538549	1
0	11143	2040.317745513865	0
0	11149	2040.534915756484	1
0	11151	2040.850488935189	0
0	11176	2042.786934601225	1
0	11178	2043.004955669618	2
0	11179	2044.382966165893	1
0	11187	2045.642311986607	0
0	11191	2045.678958913864	1
0	11194	2046.687183189694	0
0	11204	2047.709489004507	1
0	11206	2047.735235415	2
0	11208	2048.23791487741	3
0	11209	2048.368270646639	2
0	11216	2048.686074232082	1
0	11222	2050.228336985441	2
0	11224	2050.476276697565	3
0	11225	2050.855995205842	2
0	11230	2054.305762113048	1
0	11234	2055.394080344136	2
0	11237	2056.150454464545	1
0	11244	2057.562928820497	0
0	11266	2062.48170920909	1
0	11268	2064.299965055582	0
0	11283	2066.199099807902	1
0	11285	2066.416578451826	2
0	11286	2067.927948132513	1
0	11291	2067.970846330173	0
0	11312	2070.930864170586	1
0	11315	2072.957391432672	0
0	11341	2076.972285530242	1
0	11342	2077.226518680687	0
0	11348	2077.952942809331	1
0	11349	2079.418431095418	0
0	11353	2079.44808434232	1
0	11356	2080.354112374193	0
0	11392	2084.43019814708	1
0	11393	2084.458854068572	0
0	11417	2087.309586953391	1
0	11418	2087.433990576522	0
0	11444	2091.111710734561	1
0	11446	2091.446486078378	2
0	11448	2091.53069763373	3
0	11449	2091.703468100852	2
0	11455	2092.322373318778	3
0	11456	2092.48818936706	2
0	11461	2093.104024719563	1
0	11466	2093.134237584904	0
0	11470	2093.91343419649	1
0	11472	2093.955463342982	2
0	11475	2094.591418179999	1
0	11483	2095.49194847104	0
0	11561	2113.068548173899	1
0	11562	2113.330128638272	0
0	11585	2117.01000264159	1
0	11586	2117.24901993679	0
0	11624	2131.160556214555	1
0	11627	2132.423219397852	0
0	11696	2144.143235462995	1
0	11697	2145.074631903885	0
0	11703	2146.543074952206	1
0	11704	2146.800299900014	0
0	11717	2149.21725890921	1
0	11719	2149.399847694044	2
0	11720	2149.473694799936	1
0	11725	2149.562254685364	0
0	11732	2149.90717418864	1
0	11733	2150.235516683336	0
0	11773	2156.137191797199	1
0	11775	2156.338490655854	0
0	11786	2157.504712234164	1
0	11788	2158.078119730595	2
0	11790	2159.208743864956	3
0	11794	2161.537873477801	4
0	11796	2162.162617322046	5
0	11801	2162.783773754875	4
0	11805	2162.853090148966	5
0	11807	2163.558079943654	6
0	11810	2164.659983390306	5
0	11816	2165.505958817557	4
0	11821	2166.205315532693	3
0	11826	2166.291657482748	2
0	11830	2166.415965428566	3
0	11832	2167.592952784133	4
0	11834	2167.693601678745	5
0	11838	2168.150874259087	6
0	11840	2168.242689776759	7
0	11841	2168.264019844672	6
0	11845	2170.304930984934	7
0	11847	2170.406059443547	8
0	11855	2174.531725743174	9
0	11856	2174.707845303852	8
0	11861	2175.012661588313	7
0	11866	2175.070047819421	6
0	11872	2175.987429465517	7
0	11877	2177.385806542365	6
0	11884	2178.003673610588	5
0	11888	2179.173365891355	6
0	11890	2179.298683548392	7
0	11892	2179.884310569207	8
0	11896	2180.643283778162	7
0	11904	2181.157846928857	6
0	11909	2181.661256310864	5
0	11914	2183.215515618095	4
0	11920	2183.370995685326	5
0	11922	2183.436219836353	6
0	11923	2184.376164439389	5
0	11928	2187.246332778107	4
0	11932	2187.3899353253	5
0	11936	2187.597989678921	6
0	11940	2188.315084718255	5
0	11945	2189.867714038486	4
0	11953	2190.310539489132	5
0	11954	2190.540446077066	4
0	11958	2190.708698434694	5
0	11961	2192.009785702472	4
0	11971	2194.003575378489	3
0	11977	2194.850086904596	4
0	11978	2194.954837698016	3
0	11983	2196.555579795873	2
0	11987	2196.688807098096	3
0	11989	2197.11895014795	4
0	11991	2197.391489924607	5
0	11993	2198.061759092374	6
0	11998	2199.200391990601	5
0	12002	2199.890870391056	6
0	12006	2200.846413204208	7
0	12010	2203.272024007182	8
0	12013	2203.681810922472	7
0	12018	2204.625775485024	6
0	12027	2207.024623543972	5
0	12032	2207.117440431828	4
0	12037	2207.549219898729	3
0	12043	2209.764571774095	4
0	12044	2210.539881279465	3
0	12049	2211.668732948033	2
0	12055	2212.786508315475	3
0	12056	2212.916145772952	2
0	12060	2213.344378837835	3
0	12064	2216.504810535852	4
0	12066	2218.424724456426	5
0	12070	2219.420851118058	4
0	12075	2219.575307321426	3
0	12079	2221.988529228133	4
0	12081	2222.155895794283	5
0	12085	2223.051642197088	4
0	12090	2223.343502213655	3
0	12094	2223.569705936071	4
0	12096	2224.33702275662	5
0	12102	2226.703018484845	6
0	12104	2226.889074810052	7
0	12105	2227.228958157113	6
0	12110	2227.58489516052	5
0	12116	2228.537412249464	6
0	12118	2228.822064690735	7
0	12120	2230.195954448729	8
0	12121	2230.407471732051	7
0	12125	2232.850862720723	8
0	12129	2233.871518204945	7
0	12135	2234.105595066676	8
0	12138	2235.057685482552	7
0	12142	2235.541878028064	8
0	12151	2239.714849326357	9
0	12153	2239.754322229871	10
0	12154	2240.455053298326	9
0	12159	2240.909415992513	8
0	12165	2242.162959775345	9
0	12167	2242.453651707327	10
0	12171	2242.888475666917	11
0	12172	2242.947875501634	10
0	12177	2243.524011419483	9
0	12182	2243.756754298779	8
0	12191	2246.52738066003	7
0	12196	2247.073555106969	6
0	12201	2247.207108909439	5
0	12208	2248.242000078979	4
0	12213	2249.807002250054	3
0	12217	2250.851851268154	4
0	12222	2252.324918845436	5
0	12223	2252.713121474897	4
0	12228	2253.341061716298	3
0	12233	2253.480308358388	2
0	12242	2256.662824571921	3
0	12245	2257.239140935817	4
0	12246	2257.654542874352	3
0	12252	2258.291274542533	2
0	12257	2259.165744137749	1
0	12262	2260.781602255552	0
0	12266	2260.887195212829	1
0	12269	2261.902581490072	0
0	12273	2262.866989568783	1
0	12275	2265.292310942577	2
0	12278	2265.752215987495	1
0	12284	2266.598643838161	2
0	12286	2267.837737047497	3
0	12290	2268.538181382512	4
0	12292	2268.66610332486	5
0	12296	2269.177710603493	6
0	12297	2270.143033804922	5
0	12303	2271.341342826392	6
0	12305	2271.463455219607	7
0	12310	2273.969498450586	6
0	12314	2275.679975397412	7
0	12316	2276.984738857601	8
0	12326	2280.599074465667	9
0	12329	2280.991655194812	10
0	12330	2281.117929211755	9
0	12336	2281.155607187965	10
0	12338	2282.898844936931	9
0	12345	2284.168091538413	8
0	12349	2284.391374243803	9
0	12353	2285.053149739416	10
0	12355	2285.452881183247	9
0	12360	2285.490898987611	8
0	12364	2285.801911087856	9
0	12368	2286.589072480209	8
0	12373	2287.423668654727	7
0	12378	2287.651402476252	6
0	12384	2288.204615212328	7
0	12386	2288.631163519265	8
0	12390	2289.246616897202	7
0	12396	2289.547531922503	8
0	12399	2290.031735315741	7
0	12404	2291.718727981915	6
0	12408	2291.806785350464	7
0	12410	2292.680724494884	8
0	12412	2293.280012388068	9
0	12415	2294.545310725777	8
0	12419	2294.925901076157	9
0	12421	2296.308522255427	10
0	12424	2297.383890123961	9
0	12429	2300.060533643964	8
0	12435	2302.329185815673	9
0	12436	2302.645130816124	8
0	12441	2303.395828269064	7
0	12445	2303.911395205686	8
0	12448	2304.896411132977	7
0	12454	2305.291455320657	6
0	12462	2305.693269642002	7
0	12466	2306.896086279086	8
0	12467	2307.007945950681	7
0	12472	2307.629075263509	6
0	12479	2310.01085561264	5
0	12485	2311.670900476661	4
0	12490	2311.712271733001	3
0	12497	2312.929816136816	2
0	12501	2313.242850905081	3
0	12504	2313.607285053185	2
0	12511	2314.900689986482	1
0	12517	2315.520805387862	0
0	12535	2316.964834998489	1
0	12537	2317.731537770755	0
0	12550	2318.96709327506	1
0	12553	2319.701923152137	2
0	12554	2320.109029138971	1
0	12559	2320.581611232896	0
0	12565	2321.350329938788	1
0	12567	2322.988023156766	2
0	12568	2324.046076095171	1
0	12573	2325.027349489862	0
0	12610	2330.51502193414	1
0	12612	2331.510363936248	0
0	12623	2331.721199913204	1
0	12624	2332.049312254013	0
0	12636	2333.156852226654	1
0	12641	2333.748970311845	2
0	12643	2334.554696642779	1
0	12649	2334.962152359576	2
0	12654	2335.898737856536	1
0	12659	2336.557045762303	0
0	12670	2337.136227688124	1
0	12671	2337.316515916908	0
0	12721	2346.609268387021	1
0	12723	2347.590342187047	2
0	12727	2348.052276960149	3
0	12729	2348.438340682794	4
0	12732	2348.846785242712	3
0	12738	2348.926026618553	4
0	12742	2351.926574758	3
0	12747	2352.182295589707	2
0	12753	2352.473721823687	1
0	12759	2353.050618294093	2
0	12761	2353.8379784611	1
0	12767	2354.181863822967	2
0	12769	2356.846525331612	1
0	12776	2357.064338069848	0
0	12780	2357.367904591829	1
0	12790	2360.293163217439	2
0	12792	2360.871378033665	3
0	12797	2361.825929154172	2
0	12802	2362.732220973926	1
0	12807	2362.903327853061	0
0	12824	2367.3916545018	1
0	12825	2367.405170484257	0
0	12837	2368.894957829208	1
0	12839	2369.136451150665	2
0	12840	2369.362245450095	1
0	12849	2370.669011663372	0
0	12866	2372.747689513426	1
0	12870	2374.122861449782	2
0	12873	2374.88060575316	3
0	12874	2375.085586963183	2
0	12881	2375.219822414445	1
0	12886	2375.232182055452	0
0	12890	2375.73914407457	1
0	12896	2377.318399262814	2
0	12899	2378.081486714151	1
0	12909	2384.63200761522	2
0	12912	2385.671980011886	1
0	12916	2386.282372146043	2
0	12918	2386.286868727893	3
0	12924	2387.496109001726	4
0	12928	2388.543902708426	5
0	12931	2388.644893975742	6
0	12932	2389.278832532711	5
0	12937	2389.518181811699	4
0	12942	2390.036433013476	3
0	12946	2390.370278091645	4
0	12949	2390.718700809479	3
0	12953	2392.597094154008	4
0	12955	2393.91676192053	5
0	12959	2396.935470894275	6
0	12961	2397.169173030466	7
0	12965	2400.089634026101	8
0	12969	2402.710494795226	7
0	12974	2402.887572913368	6
0	12978	2403.757829327766	7
0	12980	2405.767176373618	8
0	12985	2408.330066836493	7
0	12990	2409.195664411022	6
0	12996	2409.862810976314	5
0	13004	2410.843010585192	6
0	13005	2410.955705010852	5
0	13009	2411.798846007494	6
0	13012	2413.213872400081	5
0	13021	2416.466220939958	4
0	13025	2416.649126280858	5
0	13028	2417.726735224107	4
0	13032	2418.798073879687	5
0	13035	2419.800399539283	4
0	13040	2421.041149889051	3
0	13044	2421.73723355159	4
0	13046	2422.942613344729	5
0	13049	2424.240463678324	4
0	13054	2425.764572898546	3
0	13058	2425.812943647739	4
0	13060	2425.88523897264	5
0	13066	2427.175939566463	6
0	13069	2427.862574202373	5
0	13074	2429.499343104965	4
0	13079	2429.598287379162	3
0	13086	2430.602544127145	4
0	13087	2431.233063972078	3
0	13095	2434.446013251485	4
0	13096	2435.472225726928	3
0	13101	2435.679449732268	2
0	13106	2436.888188043975	1
0	13112	2437.459705250706	2
0	13114	2437.615928457897	3
0	13116	2438.20988318577	2
0	13122	2438.573862368894	3
0	13124	2438.788903670714	2
0	13131	2439.88543852317	3
0	13137	2440.543476025462	2
0	13145	2443.347132392646	1
0	13150	2443.354901383719	0
0	13176	2447.286416297247	1
0	13179	2448.634015654526	2
0	13181	2449.397276740442	1
0	13186	2449.542492128259	0
0	13209	2450.907990039537	1
0	13210	2451.519289027328	0
0	13233	2452.572572370958	1
0	13238	2453.190164960205	0
0	13252	2454.054629253274	1
0	13256	2454.996491092211	2
0	13258	2455.186690589098	1
0	13264	2455.417928768765	0
0	13277	2455.721716342574	1
0	13279	2456.701444067449	0
0	13320	2466.350822152246	1
0	13322	2468.848310924533	2
0	13324	2468.879960287532	3
0	13327	2470.31346604602	2
0	13332	2470.721784557205	1
0	13340	2472.814606076808	2
0	13341	2473.45536903031	1
0	13346	2473.671523925362	0
0	13360	2476.293555543535	1
0	13362	2476.832040910577	2
0	13365	2477.440669371667	1
0	13370	2477.913155675848	0
0	13379	2479.798419444568	1
0	13382	2481.895288528733	0
0	13411	2484.962455645313	1
0	13414	2485.459555120554	2
0	13415	2485.524714412114	1
0	13421	2485.780612772983	2
0	13423	2486.027787550876	3
0	13424	2486.17269275394	2
0	13430	2486.550400497236	3
0	13433	2487.95094475701	4
0	13435	2488.19004675387	5
0	13437	2488.439933969008	4
0	13443	2489.095835375643	5
0	13444	2489.911718820546	4
0	13449	2490.318499462879	3
0	13455	2490.772545209717	4
0	13456	2491.941975656657	3
0	13461	2492.103270014864	2
0	13467	2497.594894471505	3
0	13470	2498.566039294926	2
0	13476	2499.36157386132	3
0	13479	2499.467869049443	4
0	13480	2499.886749766496	3
0	13485	2499.937708521808	2
0	13491	2500.29293243306	3
0	13496	2502.319502924653	4
0	13498	2503.299196053613	3
0	13502	2504.958020944896	4
0	13506	2505.32602591679	3
0	13511	2505.976631510964	2
0	13520	2506.920431712344	3
0	13521	2507.396548259502	2
0	13528	2507.860454473319	3
0	13533	2508.845936744101	2
0	13542	2509.562715735949	1
0	13546	2511.49731888114	2
0	13550	2511.677835515441	3
0	13556	2513.660607082442	2
0	13562	2514.793988615339	1
0	13568	2515.076239023328	2
0	13569	2515.440767447756	1
0	13573	2515.545609914071	2
0	13582	2516.79937046092	3
0	13584	2517.423145941517	4
0	13585	2518.255166515396	3
0	13591	2520.494705089859	2
0	13599	2521.380707049145	3
0	13601	2521.811056461137	2
0	13606	2522.136500167344	1
0	13610	2522.262007565158	2
0	13614	2522.770329935507	3
0	13616	2523.060469590069	4
0	13617	2523.245470808387	3
0	13623	2525.147344132905	4
0	13626	2526.887442628145	3
0	13633	2529.278795967754	4
0	13634	2529.298319212666	3
0	13640	2529.440009079088	4
0	13641	2530.744899139518	3
0	13645	2530.804702116949	4
0	13649	2531.15104725058	5
0	13650	2531.487439510187	4
0	13656	2532.46232222656	5
0	13664	2534.094131726761	6
0	13666	2534.849636628092	7
0	13667	2535.045791393534	6
0	13674	2535.848925074784	7
0	13676	2536.425938048302	8
0	13678	2536.693786287475	9
0	13679	2537.239091763156	8
0	13685	2537.550611828165	9
0	13688	2539.481489577003	10
0	13689	2539.951731542281	9
0	13694	2540.138513315222	8
0	13699	2540.37921240538	7
0	13705	2540.570005397414	6
0	13710	2540.725659659817	5
0	13715	2540.870641332711	4
0	13721	2542.342149370126	5
0	13725	2543.201990152573	4
0	13731	2543.323962115479	5
0	13732	2543.772162749149	4
0	13741	2545.503128663177	5
0	13742	2546.513428803316	4
0	13747	2547.116609429644	3
0	13751	2547.287634394356	4
0	13753	2547.869399250944	5
0	13757	2548.098743124148	6
0	13759	2548.362144877236	7
0	13763	2549.664606408946	8
0	13764	2549.719703806835	7
0	13769	2550.584474439948	6
0	13777	2551.241765990206	7
0	13778	2551.664513914902	6
0	13783	2552.603652058534	5
0	13789	2552.857513028708	6
0	13790	2553.248122130524	5
0	13794	2553.352480193665	6
0	13799	2553.739027867464	5
0	13805	2554.831856817045	4
0	13810	2554.833508154362	3
0	13814	2555.152224714124	4
0	13818	2555.550671079099	5
0	13819	2555.608439235185	4
0	13828	2557.731118443617	3
0	13832	2558.284582153636	4
0	13834	2558.908237884228	5
0	13838	2561.470220992446	6
0	13844	2562.032177642057	7
0	13845	2562.470174600288	6
0	13849	2564.024459073484	7
0	13852	2565.025104322933	6
0	13857	2565.934623376943	5
0	13868	2567.674724523863	6
0	13869	2568.086770272036	5
0	13875	2568.208694899619	6
0	13878	2568.465475960733	5
0	13883	2569.571789183754	4
0	13887	2570.696379070814	5
0	13889	2570.910683104326	6
0	13891	2571.631364403528	7
0	13896	2572.668235839025	6
0	13901	2574.443729052847	5
0	13907	2576.358342704363	6
0	13911	2576.996525457143	7
0	13914	2577.555641180334	6
0	13918	2577.571954027013	7
0	13920	2577.709527615373	8
0	13922	2577.973298424732	9
0	13925	2579.902340406394	8
0	13933	2581.216314671004	7
0	13943	2581.487144621127	8
0	13944	2582.224956831921	7
0	13949	2585.030771870839	6
0	13960	2586.846003945188	5
0	13966	2587.878407466939	6
0	13969	2589.889298770361	5
0	13973	2590.028547359716	6
0	13978	2592.429952366657	7
0	13980	2593.517868623766	6
0	13987	2594.198988613655	7
0	13988	2594.642485716102	6
0	13993	2595.61531953445	5
0	13998	2595.889742920713	4
0	14004	2596.999125856859	5
0	14008	2598.126715459138	6
0	14010	2598.174427069044	7
0	14014	2598.335615067159	8
0	14015	2598.350623521139	7
0	14022	2601.008712438313	6
0	14029	2603.424415759376	5
0	14036	2604.794150843316	4
0	14042	2605.077468159894	5
0	14043	2605.167623500467	4
0	14047	2605.956379245835	5
0	14054	2607.080279095998	4
0	14059	2607.319902897689	3
0	14066	2607.46080500083	4
0	14068	2608.470555513299	5
0	14069	2608.479634223386	4
0	14075	2608.979128626686	3
0	14080	2609.168386504991	2
0	14087	2609.720091146508	1
0	14096	2611.641463326264	2
0	14099	2611.800505099604	3
0	14103	2612.762984918859	2
0	14108	2613.034107090345	1
0	14116	2613.809538881453	0
0	14122	2614.402300929304	1
0	14123	2614.473876448965	0
0	14146	2619.385840761787	1
0	14149	2620.288939476341	2
0	14150	2620.346200324713	1
0	14156	2620.543752504198	0
0	14170	2621.736702099781	1
0	14172	2622.11511718125	2
0	14175	2622.644767626591	1
0	14181	2623.939194776003	0
0	14188	2624.046960628669	1
0	14189	2625.45934334583	0
0	14216	2625.925146117264	1
0	14218	2626.033534215746	2
0	14220	2626.146475448599	3
0	14222	2626.77245864518	4
0	14223	2627.768483307549	3
0	14228	2628.052788089206	2
0	14234	2629.013710833341	3
0	14235	2629.404281749432	2
0	14240	2629.994506900039	1
0	14244	2631.401757710074	2
0	14247	2631.944253373729	1
0	14251	2632.941088627307	2
0	14260	2634.157391693343	3
0	14264	2634.940391814628	2
0	14270	2635.209814043296	3
0	14272	2635.360348904945	4
0	14274	2635.7399362	5
0	14275	2635.903290627422	4
0	14280	2636.022426271916	3
0	14285	2636.064980719504	2
0	14290	2636.246590012396	1
0	14294	2638.222988420023	2
0	14300	2640.414187797197	1
0	14305	2640.777708530398	0
0	14309	2641.505462266786	1
0	14314	2642.236543569161	0
0	14340	2646.575744938481	1
0	14344	2647.167958136868	2
0	14345	2648.134143189473	1
0	14350	2648.373454519609	0
0	14366	2648.89647340436	1
0	14368	2648.909511994272	2
0	14369	2649.08978038613	1
0	14375	2649.843259015594	2
0	14376	2650.041823097729	1
0	14386	2652.68239941384	0
0	14399	2654.74760940334	1
0	14401	2655.123975576626	0
0	14419	2658.972911224468	1
0	14420	2658.991936163126	0
0	14427	2659.668391751396	1
0	14429	2660.78304031459	0
0	14477	2665.13909900224	1
0	14480	2666.187604822128	0
0	14486	2666.805797982121	1
0	14488	2667.404373437091	2
0	14490	2668.020686911158	1
0	14495	2668.40955163217	0
0	14517	2672.496756085526	1
0	14519	2673.23707156293	0
0	14526	2673.717824625367	1
0	14527	2674.115687272879	0
0	14544	2675.086907434945	1
0	14547	2675.658901728836	0
0	14578	2682.30202285903	1
0	14581	2682.346861835432	2
0	14586	2683.900673794507	3
0	14588	2684.222786744858	4
0	14590	2684.240570043491	5
0	14593	2684.579015000896	6
0	14594	2685.363506563697	5
0	14601	2687.597735829644	4
0	14606	2688.082885026133	3
0	14611	2688.619214168127	2
0	14618	2690.572154080529	1
0	14623	2690.90287691673	0
0	14665	2695.584211153462	1
0	14667	2696.087794581594	2
0	14669	2696.440697695485	3
0	14671	2697.780401972948	4
0	14676	2698.86548219084	3
0	14681	2699.746017190166	2
0	14691	2700.059133985059	1
0	14696	2700.067129367142	0
0	14709	2701.170836335405	1
0	14711	2702.41188392167	0
0	14756	2709.009676057568	1
0	14758	2709.010118917884	2
0	14760	2709.654925366559	3
0	14768	2710.565919702147	4
0	14769	2710.820573501204	3
0	14774	2710.982403300522	2
0	14780	2712.022244367628	1
0	14785	2712.591412533437	0
0	14800	2713.181059024278	1
0	14803	2713.600771329002	0
0	14820	2716.820267183667	1
0	14823	2717.5464442523	2
0	14824	2717.844122563498	1
0	14831	2718.319875571429	2
0	14832	2718.557570754972	1
0	14838	2719.077089348259	2
0	14846	2721.642079619637	1
0	14852	2722.191939601777	2
0	14853	2722.228217113483	1
0	14858	2722.431994504301	0
0	14865	2723.157412508603	1
0	14866	2723.534332741393	0
0	14892	2725.89026221446	1
0	14893	2726.522617177439	0
0	14899	2727.048567314903	1
0	14900	2727.351251851676	0
0	14926	2728.839636493435	1
0	14930	2729.044139416617	2
0	14932	2729.445103715813	3
0	14934	2729.649279235844	4
0	14935	2729.879223552881	3
0	14940	2730.062413617079	2
0	14953	2731.208337812968	1
0	14958	2731.395954457282	0
0	14964	2731.697581368868	1
0	14966	2732.359953601032	2
0	14967	2732.522922132923	1
0	14972	2732.673369790675	0
0	14986	2735.711879803599	1
0	14989	2737.325375682932	2
0	14991	2739.882221842235	3
0	14993	2740.118686550418	4
0	14994	2740.221910652658	3
0	14999	2740.69982551895	2
0	15003	2740.711882086899	3
0	15006	2742.70797041031	2
0	15012	2744.944819397818	3
0	15015	2747.502472199026	2
0	15019	2747.86329464714	3
0	15022	2749.163993733862	2
0	15028	2749.943177609848	3
0	15033	2750.574844435787	2
0	15039	2751.770595154444	1
0	15044	2752.366560281305	0
0	15057	2754.419176699061	1
0	15058	2754.545063413331	0
0	15071	2757.950052337479	1
0	15072	2758.200133439689	0
0	15086	2760.121264079853	1
0	15087	2760.262063025766	0
0	15111	2762.158184970225	1
0	15117	2763.911557311057	2
0	15120	2764.910857784921	1
0	15124	2764.937782345933	2
0	15128	2766.372644615129	3
0	15133	2767.98721497858	2
0	15141	2768.958503265192	3
0	15142	2769.102141814269	2
0	15147	2769.336664048299	1
0	15154	2771.463326093494	0
0	15161	2773.309766522153	1
0	15162	2773.59993148305	0
0	15193	2776.176553319863	1
0	15197	2777.217805461058	2
0	15198	2777.443179848949	1
0	15202	2778.67299208014	2
0	15206	2779.238274615861	1
0	15212	2779.326703804151	2
0	15215	2779.810125410009	1
0	15220	2780.583511580567	0
0	15228	2781.611320176294	1
0	15230	2782.038495180533	2
0	15231	2782.261147643719	1
0	15237	2783.026102737106	2
0	15242	2783.662531322065	3
0	15243	2784.244771289672	2
0	15249	2787.453263574961	1
0	15256	2787.686079522538	2
0	15257	2787.866065876714	1
0	15262	2787.965217931452	0
0	15323	2798.761785867568	1
0	15324	2799.370475443869	0
0	15345	2803.53104704927	1
0	15346	2803.828460002981	0
0	15362	2806.681701311807	1
0	15364	2807.097069465956	0
0	15393	2811.100705469578	1
0	15396	2812.099046053892	0
0	15407	2813.701847296631	1
0	15409	2814.389662195908	2
0	15413	2816.450175436246	1
0	15419	2816.695255741584	0
0	15430	2816.909705314691	1
0	15431	2817.61078847623	0
0	15437	2819.856273082895	1
0	15439	2821.019976961159	2
0	15445	2821.648940730796	3
0	15450	2822.718593096016	4
0	15452	2822.884634948547	3
0	15460	2824.786645441145	4
0	15462	2824.884095888475	5
0	15464	2826.141645911805	4
0	15469	2826.18629523424	3
0	15475	2826.49324082703	4
0	15480	2827.004315703842	3
0	15488	2827.312826467926	4
0	15489	2827.31300996307	3
0	15494	2827.333688183709	2
0	15499	2827.97080753312	1
0	15503	2828.470863175081	2
0	15505	2828.820171085712	3
0	15509	2830.256304507747	4
0	15514	2831.719704133186	3
0	15518	2832.286790079727	4
0	15521	2833.52949921902	3
0	15528	2836.672802076926	4
0	15530	2837.145625948076	5
0	15532	2837.563144174246	6
0	15533	2837.913199477222	5
0	15538	2838.363876323201	4
0	15545	2840.108899416655	3
0	15549	2840.594516358874	4
0	15555	2842.780919501994	5
0	15560	2844.234018251717	6
0	15561	2846.384830405966	5
0	15569	2847.452599324402	4
0	15574	2847.596170457622	3
0	15579	2848.394700495437	2
0	15583	2850.695890432311	3
0	15585	2851.114672221846	4
0	15588	2852.380312493416	3
0	15594	2852.787586454803	4
0	15595	2852.985722552998	3
0	15603	2855.760415603674	2
0	15608	2855.852662079922	1
0	15613	2856.537684639714	0
0	15617	2857.293987478153	1
0	15620	2859.420108662011	0
0	15624	2861.081959360367	1
0	15626	2861.265461597323	2
0	15628	2861.6753050288	3
0	15632	2862.712268373308	2
0	15639	2863.526831835139	3
0	15641	2864.483318854179	4
0	15642	2864.752104328877	3
0	15648	2864.92541818007	4
0	15650	2865.056647775682	5
0	15651	2865.197770294795	4
0	15655	2867.428240079833	5
0	15662	2870.261939565103	6
0	15663	2870.92344677992	5
0	15669	2871.977298925654	6
0	15673	2872.800588537664	7
0	15674	2872.912288223717	6
0	15680	2873.222221204725	5
0	15685	2873.609539519978	4
0	15691	2874.151021631796	5
0	15692	2874.286207362311	4
0	15696	2874.457267646545	5
0	15702	2875.563396067893	6
0	15707	2878.163062940159	5
0	15711	2878.795424198908	6
0	15718	2879.917541474407	7
0	15720	2880.250083299485	8
0	15722	2880.998416034885	7
0	15729	2881.619709102238	6
0	15734	2882.265455391727	5
0	15738	2882.307332875386	6
0	15744	2883.878439336177	7
0	15745	2884.506032933441	6
0	15751	2884.806407716099	7
0	15752	2885.438813081747	6
0	15758	2887.252109532581	7
0	15760	2887.542332770967	8
0	15762	2888.332148662242	9
0	15765	2891.542050702211	8
0	15770	2893.097051837641	7
0	15776	2893.850047515636	8
0	15779	2895.226084522848	7
0	15785	2895.655849947353	8
0	15787	2895.657600080324	9
0	15791	2896.000026183515	10
0	15793	2898.028039953735	9
0	15798	2898.050964104908	8
0	15803	2898.36935668882	7
0	15809	2898.634346990209	8
0	15812	2899.539597357063	7
0	15818	2899.867889460997	8
0	15820	2900.290061316953	7
0	15825	2900.614163835353	6
0	15829	2901.900528684985	7
0	15832	2902.43948121932	6
0	15836	2902.899334201846	7
0	15840	2904.037507005467	8
0	15845	2904.948994544084	7
0	15850	2904.993223890692	6
0	15856	2905.413818318302	5
0	15862	2905.511201296479	6
0	15863	2906.041294061254	5
0	15869	2906.83189118479	6
0	15870	2906.863771920835	5
0	15876	2907.020527812036	6
0	15877	2908.640585269957	5
0	15883	2909.520469231022	6
0	15884	2909.773625683591	5
0	15889	2910.606140770808	4
0	15895	2911.706193763364	3
0	15900	2911.743921349563	2
0	15904	2911.981602142768	3
0	15907	2914.240984737415	2
0	15913	2916.093752300346	3
0	15914	2916.542958815065	2
0	15921	2919.162977985367	1
0	15926	2919.168806714218	0
0	15947	2923.106606594841	1
0	15952	2923.6322316892	2
0	15953	2923.655128608689	1
0	15960	2923.831174900649	0
0	15974	2925.268194921175	1
0	15977	2926.509539457135	0
0	16014	2930.275822412925	1
0	16019	2931.993311459834	2
0	16020	2932.17733833882	1
0	16025	2932.699391948499	0
0	16055	2938.136447783868	1
0	16057	2938.373501468218	2
0	16065	2941.162988696651	3
0	16066	2942.552753331809	2
0	16071	2943.256917422467	1
0	16082	2944.848459210219	0
0	16089	2945.891165443359	1
0	16091	2947.826515975396	2
0	16092	2948.023770809213	1
0	16098	2948.678152172627	0
0	16123	2953.055821112523	1
0	16125	2953.313046543988	2
0	16127	2953.900227414592	3
0	16131	2954.591539942945	4
0	16135	2954.714206346509	5
0	16137	2954.738592404907	6
0	16138	2956.244861264067	5
0	16143	2956.914987494945	4
0	16148	2957.123447461379	3
0	16152	2957.863684269451	4
0	16154	2958.080423577409	5
0	16156	2958.945243288157	6
0	16158	2959.184177708423	7
0	16162	2959.790772223689	6
0	16168	2960.751368475783	5
0	16176	2961.556018922075	6
0	16177	2961.724493100333	5
0	16182	2962.039796337677	4
0	16188	2962.08302261352	5
0	16189	2962.923489249281	4
0	16193	2963.031208671552	5
0	16196	2964.563282783002	4
0	16203	2965.534048293416	3
0	16210	2966.68016889579	2
0	16214	2967.205237903768	3
0	16216	2968.430614793078	4
0	16218	2969.388968240423	5
0	16222	2970.587089745116	4
0	16227	2971.424410629204	3
0	16235	2972.309534156763	4
0	16241	2973.836792602801	3
0	16249	2974.689886054996	2
0	16255	2975.323616009611	1
0	16260	2976.454207700646	0
0	16285	2979.143279244697	1
0	16286	2979.186012835696	0
0	16292	2979.212644075285	1
0	16294	2979.288771737891	2
0	16296	2981.597856369526	1
0	16301	2981.606611669284	0
0	16310	2982.261783956504	1
0	16312	2983.034665844311	2
0	16320	2985.049892485321	3
0	16322	2985.099119337243	4
0	16324	2986.565603626139	5
0	16328	2987.210506085854	6
0	16329	2987.415102700034	5
0	16337	2987.602085944826	6
0	16338	2987.733200600148	5
0	16343	2988.038738638157	4
0	16350	2988.305548124962	5
0	16352	2988.70013340339	4
0	16359	2989.33992865941	3
0	16364	2991.918214005771	2
0	16372	2992.901935070043	3
0	16373	2992.975074729714	2
0	16377	2993.284363914055	3
0	16382	2993.846853882819	4
0	16383	2994.181047928302	3
0	16388	2994.400643747582	2
0	16392	2996.095058661059	3
0	16394	2996.186105105782	4
0	16397	2997.006326073983	3
0	16403	2997.914760312751	4
0	16405	2998.046996838299	3
0	16411	2998.470248078252	2
0	16418	2999.635370412671	1
0	16426	3000.903717317346	2
0	16429	3001.881533825842	1
0	16435	3003.164059347312	2
0	16442	3005.243826582875	3
0	16444	3005.716137446528	4
0	16447	3006.147633088055	5
0	16451	3006.342097877019	6
0	16453	3006.816462036091	5
0	16460	3008.226816848815	4
0	16465	3008.744887958755	3
0	16470	3009.805054151462	2
0	16482	3010.778920853968	1
0	16487	3010.966760910368	0
0	16494	3011.601255860375	1
0	16495	3012.121221158013	0
0	16512	3016.547843199079	1
0	16514	3017.878922014235	2
0	16516	3018.39711088435	1
0	16522	3018.478901761027	2
0	16524	3018.720426563499	3
0	16526	3019.484713750121	2
0	16530	3019.91072578014	3
0	16537	3022.35996603869	2
0	16542	3023.589519760588	1
0	16546	3023.639655262223	2
0	16550	3026.106818096184	3
0	16552	3026.586025086417	4
0	16554	3026.931433227215	5
0	16557	3029.751937132644	4
0	16563	3031.603174495887	3
0	16569	3031.760172139897	2
0	16575	3031.786996152254	3
0	16582	3033.225984420273	4
0	16584	3035.037800376019	3
0	16590	3035.399861485186	4
0	16595	3036.531031886611	5
0	16596	3036.650038321751	4
0	16601	3036.880263054645	3
0	16606	3036.954258478903	2
0	16611	3037.108188513705	1
0	16616	3038.169051195411	0
0	16620	3039.721244546317	1
0	16622	3039.894205241473	2
0	16626	3041.447697660748	1
0	16631	3042.320924951974	0
0	16643	3043.813835110264	1
0	16645	3044.875717544836	0
0	16652	3046.018414173384	1
0	16653	3046.752096464235	0
0	16691	3049.357921618528	1
0	16697	3051.120957381731	0
0	16722	3055.30507120281	1
0	16728	3055.987248770952	2
0	16733	3056.842264198403	1
0	16739	3057.678524785515	0
0	16745	3057.718399226683	1
0	16748	3059.318829625088	0
0	16780	3062.840677992686	1
0	16781	3062.936394713932	0
0	16787	3063.308675715212	1
0	16790	3063.812001013104	2
0	16791	3064.257377169246	1
0	16796	3064.673763602962	0
0	16808	3065.038610813631	1
0	16809	3065.152618462152	0
0	16816	3065.473630668834	1
0	16817	3065.591560927166	0
0	16836	3067.900352267908	1
0	16837	3068.853625272763	0
0	16851	3069.540882445747	1
0	16853	3069.786309896001	2
0	16856	3072.077302849248	1
0	16863	3074.369294803665	0
0	16869	3074.409396947461	1
0	16870	3075.986701369658	0
0	16874	3076.81726247453	1
0	16877	3077.399944024794	0
0	16881	3078.190074953208	1
0	16887	3079.52834102856	0
0	16893	3079.867153077152	1
0	16896	3081.094362082402	0
0	16913	3082.867538959102	1
0	16918	3085.26862155488	2
0	16920	3087.439433246438	1
0	16925	3087.739250008332	0
0	16938	3090.454874290995	1
0	16942	3090.999527255325	2
0	16945	3091.526078453835	1
0	16951	3091.53643069991	2
0	16952	3091.588497211103	1
0	16957	3091.776402404522	0
0	16989	3096.246011974057	1
0	16990	3096.386209748726	0
0	17004	3097.549736886446	1
0	17012	3099.145382947797	0
0	17024	3101.14417625759	1
0	17027	3101.696289409441	0
0	17037	3101.944464359056	1
0	17044	3102.734373498549	0
0	17067	3106.069402295754	1
0	17068	3106.829457935779	0
0	17078	3107.868464567761	1
0	17079	3107.997956208037	0
0	17085	3108.144303343614	1
0	17089	3109.241103708599	0
0	17106	3111.177701326523	1
0	17108	3111.280763779805	2
0	17109	3112.821948967445	1
0	17115	3113.134272761017	2
0	17116	3113.158509553271	1
0	17121	3113.159983722072	0
0	17167	3119.109072108153	1
0	17171	3119.815842764464	2
0	17173	3121.195847528158	3
0	17174	3122.440145583658	2
0	17179	3122.530959320086	1
0	17184	3122.8827356395	0
0	17194	3124.303158025298	1
0	17197	3126.500260837742	0
0	17217	3128.282047531829	1
0	17219	3128.888772900969	0
0	17245	3131.824152340841	1
0	17247	3131.901830399887	2
0	17249	3132.733480724075	3
0	17250	3133.499768369287	2
0	17255	3134.038162375829	1
0	17261	3135.30567812479	0
0	17274	3135.900688249098	1
0	17275	3136.251449411725	0
0	17284	3137.253978784528	1
0	17286	3137.646153538378	0
0	17319	3140.823280070411	1
0	17321	3141.176276182131	2
0	17326	3141.789852544497	1
0	17336	3143.387616204344	2
0	17338	3144.07270855357	1
0	17343	3145.054433479782	0
0	17358	3146.062398174081	1
0	17360	3146.156369324567	2
0	17364	3148.347689127735	1
0	17369	3148.771031687879	0
0	17380	3149.277573655919	1
0	17381	3150.014613760089	0
0	17403	3152.787271143292	1
0	17407	3153.435115372814	2
0	17411	3153.658528884389	1
0	17416	3154.218461449851	0
0	17432	3155.842900843546	1
0	17438	3157.24994775555	2
0	17439	3157.712222773688	1
0	17444	3157.746647592675	0
0	17494	3164.18171322499	1
0	17498	3164.626716718049	0
0	17510	3164.933164631414	1
0	17512	3165.115954852189	0
0	17518	3165.134843244731	1
0	17522	3166.722845273303	2
0	17523	3167.320064084803	1
0	17528	3167.842581641507	0
0	17554	3173.485261905157	1
0	17555	3174.201163979973	0
0	17562	3175.1200104078	1
0	17563	3175.159840660615	0
0	17575	3176.519860795783	1
0	17580	3177.532866207861	0
0	17586	3178.155162865894	1
0	17587	3178.498594796391	0
0	17598	3178.990286510599	1
0	17600	3179.457537451709	0
0	17620	3183.552364717826	1
0	17621	3183.66088291785	0
0	17644	3187.274052309195	1
0	17648	3188.336067333161	2
0	17651	3189.538663600198	1
0	17657	3189.718711553968	2
0	17658	3191.931483637568	1
0	17664	3192.967132531361	0
0	17670	3192.968772373894	1
0	17672	3193.296747369775	2
0	17676	3193.704243346601	3
0	17677	3193.977209173044	2
0	17682	3194.302179612861	1
0	17688	3195.080204086749	2
[...]
5	161867	28236.337063265493	132.92171529081
5	161884	28240.991846193023	125.36509069685
5	161959	28251.311794825369	123.9528383033
5	161968	28253.019252514587	121.12112082069
5	161979	28256.487753227986	120.69653023185
5	161989	28257.47779918897	112.63170380889
5	162003	28258.280012164314	112.26193596139
5	162032	28264.984861149519	117.8293083801
5	162037	28264.985977795437	116.30572305919
5	162046	28266.314012194502	112.31028103856
5	162140	28280.982805279507	123.7361490438
5	162145	28281.517427711827	123.88070441136
5	162152	28282.608724151231	117.6054288313
5	162163	28283.593004226145	114.14285208466
5	162185	28286.442936193213	110.91323968601
5	162192	28287.3951478287	103.26997249742
5	162201	28288.0072516089	98.223786745772
5	162206	28288.366091587238	92.892841339693
5	162212	28290.422669460527	93.044319115373
5	162222	28291.831993265531	88.693637063224
5	162238	28294.624811211967	90.72242939525
5	162293	28302.038357797475	94.589438885612
5	162300	28303.498320608137	92.369074444879
5	162311	28304.426445941016	90.260963539174
5	162319	28305.723211461438	87.469346031632
5	162324	28305.737944936755	86.536076172487
5	162329	28306.248594157043	80.186865619212
5	162335	28306.721114868274	79.233875788306
5	162340	28306.941065430967	79.238270854478
5	162349	28307.474282476086	77.471864317283
5	162365	28308.432315405019	77.264886350896
5	162372	28309.274603934696	60.596868036683
5	162388	28311.621481821557	62.551287216775
5	162406	28313.051716164349	63.035406660799
5	162420	28315.086156149584	64.015910579897
5	162434	28317.347840602732	60.347660821907
5	162512	28333.656443246985	75.935009519196
5	162523	28334.030559726232	74.503864810211
5	162530	28335.617529283389	73.941396839491
5	162539	28337.260610060626	70.3381996591
5	162552	28338.18393993282	64.01561825747
5	162562	28340.951427019717	64.345271069038
5	162579	28344.770876208454	62.048744141797
5	162744	28383.285115977064	96.471205655868
5	162750	28383.710245391285	95.916674318141
5	162756	28383.943212146628	96.054630750739
5	162767	28384.866808902868	93.241368626767
5	162788	28387.731278396382	88.915777008314
5	162798	28390.45717152849	88.639818636945
5	162803	28390.796937605773	82.949487595393
5	162812	28393.806041258519	85.621362722997
5	162818	28394.483833868642	81.088692048199
5	162823	28394.916123813929	79.957084406444
5	162832	28395.625405220551	78.733779102444
5	162883	28405.585493952428	87.282623629457
5	162889	28405.706502180738	86.130600811692
5	162894	28406.51802695631	85.650492222928
5	162901	28408.972503472626	82.591277187513
5	162907	28409.069660496412	76.226719108824
5	162912	28409.679381082008	71.955606547986
5	162925	28413.944828529578	73.202779806379
5	162940	28415.663752412518	62.39436576289
5	162962	28417.710632976475	62.822197186117
5	162968	28417.9988211664	61.188006395481
5	162975	28418.13042719546	57.70111051935
5	162993	28422.16340201107	46.622667466164
5	163002	28425.031260221479	48.002660185996
5	163022	28427.86201614793	48.848377221468
5	163033	28430.453357879912	50.435252570433
5	163053	28432.501307548657	44.912368276166
5	163090	28437.082808447025	45.851086970849
5	163101	28438.797210120318	39.418698903527
5	163118	28441.142131599986	37.009646080651
5	163131	28441.904128921787	30.518848106409
5	163144	28444.689933148346	33.011068373397
5	163171	28448.210839401332	35.300882240256
5	163176	28448.379071843287	31.115290284064
5	163181	28449.017182692186	30.160601362939
5	163186	28449.134280860635	27.845993485923
5	163192	28449.22207264952	23.255830301519
5	163205	28451.316450822134	22.713416625337
5	163236	28457.064879870998	25.392860490127
5	163247	28458.071170779389	21.169949115164
5	163252	28458.151892590213	20.938475414516
5	163258	28458.565609950322	21.272490074188
5	163265	28459.502898359989	20.346814416619
5	163281	28460.431862348111	20.672129499173
5	163294	28469.522074995969	28.072072820167
5	163328	28473.251129899327	30.933900627367
5	163340	28473.657595509914	23.121959584361
5	163471	28494.631591508034	42.137046168814
5	163476	28494.696554074735	34.593121066397
5	163486	28496.262085820372	36.093380443098
5	163506	28500.212284783147	37.183333839668
5	163548	28507.397159220035	43.359295540829
5	163557	28508.908733960465	36.109021075048
5	163581	28511.548286973951	38.362835985286
5	163591	28512.626336839256	35.845906776877
5	163612	28513.32396536332	34.252587475865
5	163624	28517.033165541233	37.548795071552
5	163709	28533.905529857911	54.295637830248
5	163718	28534.559595405592	54.897645609947
5	163755	28539.494243263351	59.324477422746
5	163779	28543.607913533319	61.87732167692
5	163881	28566.596712163075	83.815493200849
5	163887	28566.798896309503	78.518307248621
5	163892	28567.327629410457	78.487368484496
5	163897	28567.355708034439	76.019717105396
5	163908	28569.890021334405	66.845533056852
5	163920	28571.732512773155	65.901946795376
5	163932	28574.102388607693	62.240131397322
5	163939	28578.92932984026	66.017366514546
5	163949	28582.651876579522	68.206107638547
5	163970	28585.85590961927	67.631001418699
5	163979	28587.921119757827	68.030475750906
5	164011	28591.940337651758	67.00602515804
5	164043	28597.572457246342	62.533259282831
5	164064	28599.961123812602	64.233945894351
5	164069	28600.07080203928	61.491366194686
5	164079	28601.145162677141	59.85118489028
5	164093	28603.702000411118	58.708919463633
5	164098	28604.69777346138	55.557745307043
5	164103	28605.020766719577	53.226254213581
5	164108	28605.190955433023	53.278323416686
5	164115	28606.033607476523	41.014752542281
5	164120	28607.082902270448	38.375521091728
5	164131	28609.686675910287	32.872364591471
5	164179	28617.200790189787	37.244744416564
5	164186	28618.047330762109	32.340489543246
5	164191	28618.448210812047	21.618519354676
5	164196	28618.537793885606	19.57950753291
5	164206	28619.835781116157	19.485789172791
5	164217	28623.210062934901	17.934391736723
5	164227	28623.743370502884	13.955249155197
5	164237	28625.908984392065	15.924978568392
5	164255	28627.841539587446	17.162091723164
5	164264	28630.059352085489	13.739518240745
5	164270	28630.276048483474	10.546736780363
5	164275	28630.909055559074	10.535841402506
5	164296	28637.39507085221	16.329097219153
5	164337	28642.328367006309	16.255144007127
5	164347	28643.263703157176	14.913389908541
5	164362	28646.303039041915	17.385708437566
5	164375	28647.312549075748	15.915033931038
5	164380	28647.778632724766	11.329370076842
5	164388	28648.066153936599	8.66854339393
5	164393	28648.314640024573	5.138454253765
5	164409	28649.593535998962	4.744081176994
5	164419	28650.513125651395	3.641956064274
5	164433	28654.225318160473	6.382841130205
5	165967	29013.44694524829	364.99666824581
5	165986	29014.956926798218	366.06045857445
5	165991	29015.862184335195	366.74874522781
5	166004	29017.578065758843	364.57072884915
5	166020	29019.992554823902	365.58020289065
5	166040	29021.589389352484	363.84654969764
5	166045	29021.934555827414	361.08510942794
5	166053	29023.099249556179	358.60110203999
5	166058	29023.379976940524	358.85215773402
5	166063	29024.047862951926	347.5304980432
5	166081	29030.88082180067	353.41737047206
5	166116	29033.935280679291	349.49246712866
5	166125	29036.869971547392	349.59969573353
5	166143	29037.766124901118	345.55328238654
5	166174	29043.823275988355	350.62314235685
5	166181	29044.270355245827	347.27029187147
5	166186	29044.334376768498	342.34800543381
5	166193	29045.440227512965	343.36215593004
5	166198	29045.861878365641	319.90861161812
5	166203	29046.056632205553	310.14983958892
5	166211	29046.935522806203	310.96119608459
5	166222	29048.144717221752	311.04445652361
5	166227	29048.789253514028	311.38535507183
5	166232	29048.901484604884	308.86915237411
5	166237	29050.471045043437	306.0411799987
5	166246	29053.88877996999	309.16486937435
5	166264	29055.572668043789	307.03317940328
5	166289	29058.318572709431	302.46680502206
5	166299	29059.286831664855	303.07958953129
5	166305	29060.485950421676	302.72094279816
5	166319	29063.149176569214	301.69667817078
5	166340	29066.182276382693	301.46279575256
5	166348	29068.095894998685	297.69670517209
5	166353	29068.339230414139	287.46316807731
5	166358	29069.631098267064	281.88685196197
5	166368	29072.473698426299	284.64032186285
5	166414	29077.039439064958	287.69462263416
5	166434	29079.421656915515	289.00590389306
5	166439	29079.661354482574	280.93463209681
5	166445	29080.146600794675	278.80169148439
5	166450	29080.298892166014	278.88256766126
5	166458	29081.077772545837	279.20711675832
5	166514	29091.318728213745	286.69024036944
5	166521	29092.109491159223	285.49388235452
5	166537	29095.163049424216	283.74169667292
5	166555	29098.718579938747	286.19420959365
5	166561	29099.378197504147	282.51488104446
5	166568	29099.890583603338	280.38497485095
5	166589	29103.934852544401	283.68081424163
5	166619	29105.977592311354	282.53093198967
5	166666	29111.105138531698	287.58437327267
5	166685	29114.673551000171	290.46155574568
5	166692	29114.858905071096	278.34026887123
5	166710	29118.571594554141	277.94154988388
5	166732	29122.36081815399	270.0234224282
5	166776	29129.504013537011	270.39707869147
5	166784	29131.087346566972	262.89119591051
5	166816	29136.030121359898	267.65815900638
5	166823	29136.110938673552	261.2697948297
5	166847	29138.233466403911	255.40909300413
5	166853	29138.563749210733	238.30997710236
5	166859	29138.875005267268	226.13322430165
5	166866	29139.438301598131	226.45083113894
5	166874	29140.768801445924	225.90922529607
5	166882	29141.940334829516	224.686426138
5	166905	29144.389141282259	224.45253516707
5	166910	29145.076358246549	223.89846152803
5	166915	29146.346013447214	220.95523142294
5	166922	29147.625834425635	215.75116562825
5	166932	29148.648577900773	212.53018229083
5	166944	29149.229306915455	202.49906237634
5	166949	29150.098292736446	198.83515363381
5	166954	29152.058056151574	198.8948428291
5	166969	29155.861475707417	194.79472420396
5	166997	29164.428513328486	199.36315858306
5	167047	29170.133200551869	201.76231212876
5	167056	29171.308835516554	196.16335523276
5	167086	29174.145783625329	193.04581550014
5	167095	29174.471072542191	188.02830068399
5	167142	29179.587707041874	182.92205528296
5	167160	29182.677675179582	170.56499679435
5	167288	29200.476728967846	186.34855550663
5	167295	29200.491267812168	186.01972675975
5	167307	29202.427868523923	181.47333892922
5	167317	29203.564734582656	182.05118365391
5	167329	29204.438403604199	181.75868029277
5	167334	29204.484118006986	176.69732629163
5	167341	29205.286682609357	177.46788794351
5	167347	29205.988590496689	177.34253098665
5	167356	29207.914888407964	175.4289144418
5	167370	29211.702899021685	174.58704457538
5	167375	29212.182375450773	173.01761612136
5	167382	29212.985720310717	173.77400965576
5	167394	29213.655693064523	152.41378449047
5	167401	29214.060223796823	140.46696674543
5	167408	29215.714988814062	140.72872856212
5	167426	29222.76596850568	147.6639905679
5	167724	29271.564010385727	196.37302920258
5	167731	29272.32156197355	195.15125288051
5	167737	29273.700992980523	182.41580512878
5	167742	29273.925800502867	181.48216288904
5	167748	29274.682847581839	179.29387630921
5	167754	29274.920968377038	172.90099998056
5	167761	29276.512606747314	170.7677860373
5	167774	29281.037735488831	174.0420400268
5	167886	29300.489585512303	191.7488910527
5	167896	29300.922401516877	184.83151196884
5	167908	29302.495437293189	185.46330884705
5	167922	29302.899862972785	183.12988528926
5	167948	29309.710193116767	188.86220579823
5	167968	29311.611747072436	187.06417293512
5	167973	29313.098548131509	181.03253241478
5	167989	29318.261536344141	183.44820778324
5	168009	29321.585254630504	185.31408479131
5	168025	29323.406984579425	186.23632576657
5	168031	29323.71343196014	186.10068745127
5	168039	29324.802625418577	184.71097660404
5	168044	29324.83671206642	181.26677182002
5	168071	29333.347961435889	185.81328352842
5	168222	29362.766162689671	214.52269048237
5	168232	29364.253948051982	210.14151791662
5	168241	29365.169661570875	210.46308527252
5	168252	29366.403732783509	211.19151428172
5	168258	29366.734291555484	205.56729238499
5	168266	29367.599110854018	201.07084918914
5	168271	29368.35048782994	198.62440079206
5	168279	29370.090969433352	194.13591427952
5	168291	29371.412767039791	192.18631203271
5	168308	29373.240746976428	191.88615445615
5	168313	29373.908203241747	191.54316839655
5	168326	29380.136238854689	197.36893942024
5	168355	29383.42729653936	193.86706042267
5	168396	29387.621017911194	197.4018040157
5	168432	29393.750305131843	200.73793091678
5	168449	29398.120733429141	204.28178822179
5	168467	29401.445680081975	203.11371205184
5	168698	29444.549347081016	240.90157159529
5	168709	29444.849386647745	237.32045710104
5	168720	29446.643761625571	232.5953991889
5	168750	29450.243106543359	235.71247690601
5	168757	29452.059277512355	235.20233836397
5	168771	29453.663428004616	235.72204614257
5	168776	29454.020354872507	225.54015092618
5	168792	29456.405500530217	216.97700665464
5	168813	29458.842789560041	218.98284778387
5	168842	29461.857199051465	220.96386226853
5	168852	29462.427770550156	214.39694891582
5	168861	29463.6189250696	213.55406480737
5	168872	29466.168140861107	214.45104707289
5	168897	29468.156963400745	208.23612073869
5	168948	29476.459651694369	214.8218000609
5	168964	29479.068934953639	210.86431168325
5	168973	29480.453313601039	210.01198815248
5	169051	29493.846511162404	218.32958800252
5	169056	29494.204335129593	211.47802253321
5	169061	29494.442150517429	210.84388052815
5	169069	29494.89326311198	200.79416500832
5	169091	29498.101318898725	196.51025090162
5	169099	29499.39916170362	197.74296641866
5	169111	29501.181861407878	198.30320271019
5	169131	29503.608915437706	192.97945540793
5	169144	29506.396682949339	192.00808043266
5	169204	29517.436708030461	202.73266402479
5	169221	29521.921750737925	206.6873835129
5	169307	29532.557349851612	213.07351347528
5	169312	29532.663333882206	209.84394107611
5	169325	29534.125538095317	209.48815191262
5	169356	29539.19200938873	213.61266754961
5	169367	29540.366147348554	214.67101531192
5	169375	29542.202276728365	213.34979144908
5	169427	29552.848719519627	220.81602750316
5	169439	29554.979881864923	222.69696967082
5	169446	29556.772730306749	223.79531143965
5	169481	29561.663412934975	215.10263069473
5	169486	29561.89908705569	209.56445422602
5	169491	29563.364394478959	209.77447772485
5	169497	29563.871893299723	209.88140410805
5	169506	29564.483487284014	206.22824443171
5	169528	29566.177152639641	198.60580147272
5	169538	29568.626053920182	197.18596897536
5	169545	29569.58438435809	193.52848064595
5	169555	29570.077912351691	190.80637903805
5	169560	29570.336555340337	189.8704632854
5	169570	29572.39337728014	188.06606457564
5	169599	29576.459498244157	189.98636537011
5	169619	29577.963352065943	185.82155024191
5	169629	29580.006968899221	185.88989487679
5	169635	29580.5965577457	176.53672231224
5	169643	29581.631041933526	172.01333328236
5	169656	29582.365060396104	167.0208641485
5	169663	29585.192679281598	167.65000970694
5	169693	29593.176069208606	173.13586508131
5	169709	29596.230990183467	175.7088706268
5	169718	29597.705999030143	170.7293397275
5	169740	29601.144139060476	171.97816056982
5	169766	29604.689206641135	159.65247460393
5	169773	29605.141329454334	157.38310311252
5	169787	29607.078935335529	159.05743638988
5	169799	29608.774755859846	155.97149498785
5	169805	29608.948334801222	154.29351905498
5	169810	29609.194954071113	154.34904892957
5	169815	29609.307103288086	154.3784529259
5	169831	29613.150177044955	157.11970864505
5	169867	29618.547780400634	155.60686051931
5	169880	29618.971329144176	153.62224846043
5	170029	29648.491395123642	181.94949244939
5	170036	29649.535904949116	182.22851196668
5	170048	29652.407534484984	185.07005044954
5	170053	29652.496287644905	182.68813960309
5	170069	29656.971981673112	182.86084585615
5	170110	29661.686683622975	187.55571771353
5	170123	29665.931568727655	185.05794064806
5	170130	29666.456634278279	175.69836645223
5	170141	29667.572105720992	171.03331482615
5	170153	29669.916699353604	165.02573475567
5	170164	29671.770529253929	158.56793489863
5	170176	29675.355819616981	161.44510261665
5	170187	29675.816439895474	161.61825624256
5	170194	29680.318645988899	163.45203710192
5	170199	29680.35165251852	161.23682339503
5	170206	29681.518250198895	161.14478911404
5	170240	29684.602283988477	152.91281608325
5	170248	29685.894972143082	154.12357461866
5	170259	29686.996709378091	152.93554109108
5	170270	29689.12105237604	144.70379544555
5	170287	29692.30780244747	145.29258595506
5	170322	29697.209835050655	139.86492723628
5	170356	29702.741106362337	144.00842231239
5	170362	29703.505710199892	144.25806297378
5	170374	29705.933587411845	145.48244326278
5	170396	29707.123747451765	142.11282320052
5	170408	29707.892839393483	141.12334058294
5	170413	29708.204381693304	133.88839632292
5	170433	29718.582588533615	143.89694290636
5	170453	29720.401440562375	145.64353339833
5	170485	29724.281272593179	145.76131256068
5	170490	29724.636587946249	142.99875246225
5	170495	29724.886183131807	137.89197778373
5	170500	29724.907163663587	126.39316039439
5	170512	29726.84949008642	125.52619990339
5	170932	29799.143039752334	194.66143953298
5	170937	29799.74791493241	188.47643305237
5	170942	29799.982920377118	187.5194441116
5	170947	29800.920023644925	184.53897103602
5	170955	29802.308194000648	184.3726618561
5	170961	29803.225659103289	182.31640686277
5	170966	29805.139801404372	183.25216487189
5	170974	29807.387622735199	174.71193575942
5	170979	29807.794164455808	173.18749104727
5	170992	29809.559893929935	167.17735073633
5	171018	29816.298043476707	172.80475820521
5	171044	29819.272382259683	171.51618313776
5	171054	29821.928331352827	168.88871243212
5	171059	29823.103489720995	168.43158947852
5	171064	29823.340996550034	164.53538926078
5	171073	29825.871261517085	162.02115728313
5	171277	29862.412137680349	193.54407624832
5	171289	29863.19040815168	190.18189863438
5	171301	29864.573008490783	190.91552356081
5	171312	29865.286202563465	188.20532897115
5	171317	29865.817548331522	178.10856052251
5	171324	29867.701072090128	179.72901025977
5	171336	29869.027171155663	174.26120566394
5	171352	29869.981510301874	167.77619174709
5	171360	29871.563464497711	159.67561348263
5	171367	29872.096218972326	159.75050522477
5	171374	29872.396183519361	157.71109811552
5	171399	29879.057371017771	163.37391424568
5	171434	29883.605315688783	157.77220508842
5	171439	29883.682403401751	154.50155590421
5	171448	29885.454518700667	154.50409658583
5	171453	29885.636849930317	153.44464419239
5	171466	29888.129435672402	147.94493625447
5	171555	29911.830961268359	167.46976449055
5	171565	29913.033185280345	163.69275675419
5	171577	29913.891468162846	163.74747914535
5	171592	29919.23084178969	168.42072139748
5	171646	29930.111112094946	178.40979006078
5	171669	29935.46227657636	180.41692627621
5	171742	29951.94832428504	193.64713366601
5	171754	29955.525903983585	196.63351160415
5	171760	29955.897611862159	195.53153924065
5	171765	29956.159754035117	193.46757624937
5	171770	29957.401942177869	181.43160493084
5	171780	29960.042272316603	176.89715455587
5	171785	29960.442044482256	176.88345560626
5	171790	29960.587175115701	176.37794668712
5	171795	29961.720953581951	176.32766026903
5	171803	29962.518301944831	172.96622764802
5	171811	29963.505043595677	169.65410219893
5	171818	29964.22002068737	165.72471631019
5	171831	29966.458022270606	164.96887630473
5	171880	29974.82087363371	169.17387248254
5	171928	29980.110374763009	171.25671821269
5	171936	29981.864072650194	172.90979426552
5	171966	29985.007723222435	171.53140707486
5	171978	29985.711170218239	170.48903486544
5	171991	29987.419659622739	169.49202634277
5	172001	29988.068990973384	163.57868066128
5	172007	29988.824428762616	156.02521378512
5	172014	29989.055139407821	153.80606335618
5	172022	29990.200625860277	150.74550010071
5	172034	29991.654548067687	151.00564931536
5	172045	29993.160741688088	149.80554616941
5	172091	29999.088304127337	155.32348758371
5	172101	29999.823611975215	155.54283887311

