version 2
run First-n3-14-20191016-14:53:03-11620
attr configname First-n3
attr datetime 20191016-14:53:03
attr experiment First-n3
attr inifile omnetpp.ini
attr iterationvars ""
attr iterationvarsf ""
attr measurement ""
attr network org.omnetpp.queueing.Pizza
attr processid 11620
attr repetition 14
attr replication ""
attr resultdir results
attr runnumber 14
attr seedset 14
param **.PS.maxInventoriedPS 3
param **.U1.interArrivalTime exponential(2s)
param **.U2.interArrivalTime exponential(4s)
param **.PS.serviceTimeForInventoryU1 exponential(0.8s)
param **.PS.serviceTimeForInventoryU2 exponential(1.0s)
param **.PS.serviceTimeDirectU1 exponential(1.2s)
param **.PS.serviceTimeDirectU2 exponential(1.4s)
param **.PS.probabilityProducing 0.5
param **.CS.serviceTimeU1 exponential(0.8s)
param **.CS.serviceTimeU2 exponential(1.0s)

vector 0 Pizza.EntryQueueU1 queueLength:vector ETV
attr interpolationmode sample-hold
attr title "queue length, vector"
vector 1 Pizza.CS queueLength:vector ETV
attr interpolationmode sample-hold
attr title "queue length, vector"
vector 2 Pizza.EntryQueueU2 queueLength:vector ETV
attr interpolationmode sample-hold
attr title "queue length, vector"
vector 3 Pizza.sink lifeTime:vector ETV
attr interpolationmode none
attr title "lifetime of arrived jobs, vector"
attr unit s
vector 4 Pizza.sink lifeTimeU2:vector ETV
attr interpolationmode none
attr title "lifetime of arrived jobs, vector"
attr unit s
0	0	0	0
0	36	7.626999046764	1
0	38	8.121256100938	2
0	40	8.592762200753	3
0	43	9.015562409945	2
0	47	9.290477850807	3
0	53	12.082512191556	4
0	56	14.807052354365	3
0	61	15.550341021095	2
0	68	18.662060041799	1
0	72	19.533082634406	2
0	74	19.783352831826	3
0	79	21.125440150436	2
0	89	21.923402854585	3
0	90	22.223555706012	2
0	96	23.178123964034	1
0	101	23.346580836548	0
0	122	24.636962172741	1
0	124	25.316049656925	2
0	125	25.66949243822	1
0	131	26.732722597439	0
0	153	28.541120584351	1
0	155	29.88324860689	0
0	171	31.193327856406	1
0	173	31.525497284695	2
0	174	31.911568600339	1
0	180	32.359962821765	0
0	200	35.971673903778	1
0	201	36.061772008481	0
0	223	39.054376270798	1
0	225	39.802801226977	2
0	227	39.957989197473	3
0	231	40.978263744775	4
0	234	41.172631449031	5
0	235	41.582702116027	4
0	243	42.217989634921	3
0	248	44.131922976781	2
0	254	44.481648942274	1
0	260	45.676809167179	0
0	271	46.467784097032	1
0	272	47.239879902702	0
0	276	48.200122006164	1
0	279	51.792645876141	0
0	306	54.013646046543	1
0	308	54.73313366426	2
0	309	56.221532434887	1
0	315	56.514643600728	2
0	317	56.726971639429	3
0	318	57.300162610669	2
0	324	58.184265054457	1
0	329	58.243397712558	0
0	333	58.830260474336	1
0	335	59.116487882333	2
0	337	59.275107133133	3
0	339	59.403935658355	4
0	345	59.865980352469	5
0	346	60.301566380947	4
0	351	60.877014420305	3
0	355	60.930436755927	4
0	357	61.993170135288	5
0	360	64.579011298091	4
0	366	64.871114199332	5
0	369	65.177921393868	4
0	373	65.826567116078	5
0	376	66.209630411794	4
0	380	66.352360925788	5
0	383	67.41163034016	4
0	391	68.122768883266	3
0	396	69.635290124213	2
0	402	72.183911295269	3
0	407	74.467517831971	2
0	415	77.122890887515	3
0	416	77.302003759135	2
0	424	77.776613869751	3
0	425	77.84198635129	2
0	431	79.963491629883	1
0	436	80.203385042422	0
0	447	80.858914968664	1
0	449	80.94537381729	2
0	450	81.20746401264	1
0	458	82.962939254246	0
0	496	87.318431602767	1
0	497	87.638723769775	0
0	510	88.824158729191	1
0	511	88.84717587832	0
0	525	89.953273433754	1
0	530	91.226424094576	0
0	544	93.364649707099	1
0	545	93.389521382022	0
0	553	95.69451407708	1
0	554	95.700632995363	0
0	596	104.240095738186	1
0	598	104.432831491454	2
0	599	104.62009787701	1
0	604	105.095515737068	0
0	636	113.744601857806	1
0	642	116.242072660486	2
0	643	116.403600297818	1
0	649	116.52102083194	2
0	650	116.809165701725	1
0	655	116.912697914542	0
0	672	119.922673112541	1
0	675	120.336327232433	0
0	690	121.127148964374	1
0	692	121.33046100414	0
0	705	122.554196265818	1
0	707	123.1203450694	2
0	708	123.173353959598	1
0	714	123.268348794391	2
0	715	123.622070275698	1
0	722	124.203029702738	2
0	723	124.560066756108	1
0	728	124.721695285113	0
0	739	126.813027296226	1
0	740	126.876981427018	0
0	746	128.062671449592	1
0	749	128.580444101498	2
0	751	129.630815288963	1
0	757	129.814156101727	2
0	758	132.441717206595	1
0	763	133.397425789348	0
0	782	135.602255013286	1
0	784	135.748080673214	2
0	787	136.00891369031	3
0	791	136.682596124439	4
0	794	137.600026669362	5
0	796	137.631446159403	6
0	799	139.143392180674	7
0	802	140.546307975937	6
0	807	140.669827852566	5
0	813	140.902680237969	6
0	815	141.051193883883	5
0	821	142.184542560348	6
0	822	143.982479618725	5
0	828	144.305807434389	4
0	833	144.541857270657	3
0	839	146.712751016995	4
0	841	146.839178290324	5
0	843	146.933613845484	6
0	848	148.713024430012	5
0	853	149.052153929941	4
0	858	150.14444277307	3
0	865	152.075713648067	2
0	870	152.195204927046	1
0	875	153.252701273155	0
0	886	156.79199409625	1
0	887	157.33357413555	0
0	922	162.627049260778	1
0	924	163.936495180015	2
0	931	165.734283732544	1
0	939	166.926435128666	0
0	970	172.224452351255	1
0	971	172.353189725583	0
0	998	174.235645264293	1
0	1000	174.400756459515	2
0	1001	174.421682744807	1
0	1006	175.420890341774	0
0	1010	176.044936450108	1
0	1012	178.201495363397	2
0	1014	178.881795349905	3
0	1017	179.821783464342	2
0	1022	180.971997316109	1
0	1026	181.526153759067	2
0	1029	182.146597020854	1
0	1035	186.730375826472	0
0	1053	191.570312543184	1
0	1054	193.701552619006	0
0	1090	202.431720523302	1
0	1092	202.844021571923	2
0	1094	203.231802095128	3
0	1096	205.489014825248	4
0	1098	205.767847154296	5
0	1099	206.66117094342	4
0	1104	207.306249480871	3
0	1108	208.836392704311	4
0	1113	211.137482786421	3
0	1119	211.846896882765	4
0	1124	213.673985204679	3
0	1129	213.863861438914	2
0	1135	214.299799452831	3
0	1136	214.408940687168	2
0	1142	214.428165307685	3
0	1143	214.516022146777	2
0	1147	214.657805599026	3
0	1149	216.464777809231	4
0	1151	216.597965235413	5
0	1157	220.587461115287	6
0	1159	220.635594416312	7
0	1161	220.866100743468	8
0	1162	221.209592637402	7
0	1167	221.846908856976	6
0	1173	224.020778441091	7
0	1176	224.907754010922	6
0	1180	226.174520587681	7
0	1185	226.952144483098	6
0	1189	227.406992375509	7
0	1191	228.408950384525	8
0	1195	229.349347918663	9
0	1197	230.65404875744	10
0	1199	230.750233957507	11
0	1201	231.272017381787	12
0	1204	234.240062562886	11
0	1217	237.485374628504	10
0	1222	237.643052219594	9
0	1227	238.046934367726	8
0	1232	238.452772368561	7
0	1236	238.561419454021	8
0	1238	238.589319246443	9
0	1240	239.599838441054	10
0	1242	239.635985495624	11
0	1245	240.23511191979	10
0	1251	241.529903173578	11
0	1252	241.618046557137	10
0	1256	242.683525496608	11
0	1259	244.335505883048	10
0	1268	246.068961001226	11
0	1270	248.865375106097	12
0	1271	250.43513896764	11
0	1278	251.317546191096	12
0	1281	252.45186232815	11
0	1286	252.594534125012	10
0	1294	253.203242459494	9
0	1299	254.138078489022	8
0	1303	254.650347901463	9
0	1307	254.710608780755	10
0	1308	254.879453303996	9
0	1315	256.206021573208	10
0	1317	256.20667034413	11
0	1319	256.812297508799	12
0	1320	257.537741627342	11
0	1326	258.173080188666	10
0	1331	258.555090578614	9
0	1341	263.626979286316	10
0	1343	263.812669127297	11
0	1347	264.391832859919	12
0	1348	265.15093104808	11
0	1353	265.736049553819	10
0	1359	266.287921658675	11
0	1361	266.962304319254	12
0	1363	268.652250489644	13
0	1367	269.121536295125	14
0	1368	269.341871532864	13
0	1373	270.093142474237	12
0	1380	272.688678163618	11
0	1385	273.909716638044	10
0	1391	274.892140765113	9
0	1401	276.878766851038	8
0	1413	278.372547930266	9
0	1415	278.88002412682	10
0	1416	279.23862417285	9
0	1421	279.284162096476	8
0	1426	279.508628023802	7
0	1431	279.801998699697	6
0	1436	281.656658179126	5
0	1448	285.594967772878	6
0	1449	286.263590293681	5
0	1456	287.052344666511	6
0	1457	287.244553588633	5
0	1462	287.409143034315	4
0	1468	288.076412659819	3
0	1473	288.17942479667	2
0	1478	289.062910296037	1
0	1485	291.142263268272	2
0	1486	291.561204992695	1
0	1491	291.808830818492	0
0	1502	293.113344954491	1
0	1503	293.149553128072	0
0	1514	294.229419492934	1
0	1517	294.913588443057	0
0	1542	298.74363816929	1
0	1544	299.458120103913	0
0	1550	300.088192320542	1
0	1551	300.688787627357	0
0	1576	304.663949225711	1
0	1578	305.12020544544	2
0	1580	305.895394384591	3
0	1585	306.497513633001	2
0	1597	308.783493240441	1
0	1602	309.107892092655	0
0	1626	312.476246216919	1
0	1628	313.715462906514	2
0	1629	314.895047455154	1
0	1635	315.194254251476	2
0	1636	315.347010788634	1
0	1641	315.39970124571	0
0	1652	316.73926751118	1
0	1654	317.248779568793	0
0	1673	321.730443669897	1
0	1678	325.214275041981	0
0	1684	325.615242658704	1
0	1687	326.743388060876	2
0	1688	328.866992817108	1
0	1693	329.15676025829	0
0	1699	329.726771062431	1
0	1702	330.350291776241	0
0	1708	330.563861243429	1
0	1709	331.086268271591	0
0	1731	331.66072114358	1
0	1733	331.772796162224	2
0	1735	332.370145113947	1
0	1740	333.951184636386	0
0	1754	335.391348854412	1
0	1757	335.701181954391	2
0	1758	335.968042021137	1
0	1763	336.155754877668	0
0	1780	336.757114674073	1
0	1782	337.800709769974	2
0	1783	338.391701550645	1
0	1789	338.597985224536	2
0	1790	339.079966140761	1
0	1795	339.255108272021	0
0	1836	344.718759116645	1
0	1838	344.81937686934	2
0	1841	345.62230740687	3
0	1843	345.673085741701	4
0	1844	345.753406263016	3
0	1850	346.235572658057	4
0	1853	346.296525484966	3
0	1860	347.772737227391	4
0	1864	348.372445558833	5
0	1865	348.376040337952	4
0	1871	348.385991058654	5
0	1874	349.13408193859	6
0	1876	349.632465050846	7
0	1877	349.74608195216	6
0	1884	350.024625832726	5
0	1890	350.598222066412	6
0	1892	351.132851563639	5
0	1897	352.022731235964	4
0	1902	352.408765607881	3
0	1906	353.673407545958	4
0	1909	355.244165429831	3
0	1915	356.00552249051	4
0	1918	356.652632875383	5
0	1919	356.719571173078	4
0	1928	359.901229321454	3
0	1934	360.613870651464	4
0	1935	361.031064536791	3
0	1940	362.657291169402	2
0	1944	363.375779243685	3
0	1949	364.757247700279	2
0	1953	365.123301887108	3
0	1955	365.439900570304	4
0	1959	366.534659642173	3
0	1964	366.664949760236	2
0	1971	369.472030490595	1
0	1977	369.69673354259	2
0	1978	369.706980689653	1
0	1983	369.804352442039	0
0	1995	370.988031261198	1
0	1996	371.782860042709	0
0	2002	371.912813156797	1
0	2003	372.91387168716	0
0	2011	374.371588816125	1
0	2014	375.107312062069	0
0	2033	379.056231363069	1
0	2034	380.642004299935	0
0	2072	393.468626625615	1
0	2074	394.214930599468	2
0	2079	395.949359707498	1
0	2084	396.159547647934	0
0	2097	398.39539090417	1
0	2099	399.212209445763	0
0	2113	401.256198159873	1
0	2115	401.532904766048	2
0	2117	402.078459301671	1
0	2122	402.253294091006	0
0	2137	405.023062656444	1
0	2138	405.078203937861	0
0	2144	406.01839726225	1
0	2146	406.305355390541	2
0	2147	406.410467647962	1
0	2151	407.566887036741	2
0	2153	409.015759719415	3
0	2156	409.416536568632	2
0	2162	410.302132598708	3
0	2167	411.618237848821	2
0	2172	411.912506255998	1
0	2176	413.031051675182	2
0	2179	414.080231971629	1
0	2184	415.951078112712	0
0	2190	417.696457885357	1
0	2198	418.559753240118	2
0	2199	418.851364453827	1
0	2204	419.517111332422	0
0	2215	420.225014520424	1
0	2216	420.43831438664	0
0	2222	420.555867962173	1
0	2223	420.898741241098	0
0	2227	421.347023471866	1
0	2231	422.188386932069	2
0	2234	424.758201420006	1
0	2240	426.023143395402	0
0	2262	427.833305717044	1
0	2266	428.03822235239	2
0	2267	428.140676750011	1
0	2272	428.457200900239	0
0	2289	429.134566334834	1
0	2291	429.423687215316	0
0	2297	429.768733094257	1
0	2299	430.486866531224	0
0	2314	432.801035938487	1
0	2315	432.884552701482	0
0	2329	433.850753923713	1
0	2335	435.729603094616	2
0	2336	435.82147679605	1
0	2341	436.106326400305	0
0	2350	440.24830668141	1
0	2352	440.575995283115	2
0	2356	442.122371243957	3
0	2357	442.347022056615	2
0	2366	443.787182239109	1
0	2371	444.568061312987	0
0	2380	447.230728209378	1
0	2383	448.029288025546	0
0	2387	448.393250107728	1
0	2389	448.701014580453	2
0	2398	451.150423390127	1
0	2404	451.393717408104	2
0	2407	452.960983783094	1
0	2413	453.588818040401	2
0	2414	453.852394459724	1
0	2420	454.470482562843	0
0	2426	455.529000475636	1
0	2427	456.165459431206	0
0	2431	457.408511997442	1
0	2435	457.957022830673	2
0	2436	458.066281369592	1
0	2446	461.686404876378	2
0	2447	462.046147744739	1
0	2451	463.913530981856	2
0	2457	464.937794098806	3
0	2459	465.454659779535	4
0	2460	465.500394230153	3
0	2464	466.326315571974	4
0	2468	466.587679888085	5
0	2469	466.926486005237	4
0	2474	468.67219759232	3
0	2481	470.136220492544	2
0	2486	470.705237194576	1
0	2490	470.823853576063	2
0	2493	471.611751736936	1
0	2502	475.15421727659	0
0	2506	475.611879444139	1
0	2508	475.845330885578	2
0	2510	476.095288219396	3
0	2512	478.031828001337	4
0	2516	479.859060781113	3
0	2521	480.014599948614	2
0	2525	480.194442756103	3
0	2527	482.202790272463	4
0	2529	483.327855655264	5
0	2532	483.697945854281	4
0	2538	486.319660421199	5
0	2540	487.725584874954	6
0	2542	487.961797974353	7
0	2544	488.562736163307	8
0	2547	490.504866946934	7
0	2551	491.368663581943	8
0	2554	491.970731873799	7
0	2559	493.923313470923	6
0	2563	494.17311781565	7
0	2569	495.655857909122	6
0	2576	496.451869956887	5
0	2581	496.677768777591	4
0	2588	497.088614896377	3
0	2594	497.503528838391	4
0	2595	499.242598468182	3
0	2602	499.619565852228	2
0	2608	500.119545884768	1
0	2613	500.151275548579	0
0	2624	501.099767529874	1
0	2627	501.517308788435	0
0	2640	502.950420051547	1
0	2643	503.128977517237	0
0	2656	503.641405823246	1
0	2657	504.078861530192	0
0	2661	504.843805721736	1
0	2665	506.428328221378	2
0	2667	506.746921019075	3
0	2673	510.341977961368	2
0	2678	510.547396839024	1
0	2683	511.188308165425	0
0	2687	511.326139502298	1
0	2691	512.477498955035	2
0	2694	513.410758778389	1
0	2699	514.123230374534	0
0	2713	514.739924981002	1
0	2715	515.385089776926	2
0	2716	515.771824185662	1
0	2723	516.863986207859	0
0	2740	517.462489254774	1
0	2743	517.698213005622	2
0	2745	518.558075691076	1
0	2752	518.798443426689	2
0	2753	519.077955535842	1
0	2764	520.603290989389	2
0	2765	520.619032437785	1
0	2773	524.083116696559	2
0	2775	524.484936184998	3
0	2777	524.851823601193	4
0	2778	525.750205674913	3
0	2783	525.946903236773	2
0	2790	526.203887883227	3
0	2792	526.241259784998	4
0	2799	528.535663564191	5
0	2803	529.660075864402	4
0	2809	530.197737252579	3
0	2814	530.360122908922	2
0	2821	531.359365205858	1
0	2828	532.654325190811	0
0	2839	533.191650955356	1
0	2842	533.754364554274	0
0	2848	533.842770484161	1
0	2850	534.142398867483	2
0	2852	534.439345132618	1
0	2862	536.544025700651	0
0	2869	537.621245318033	1
0	2872	538.011451125505	0
0	2906	542.429762335448	1
0	2909	543.397690547483	2
0	2910	543.644896157875	1
0	2915	543.688230353598	0
0	2921	544.1125667816	1
0	2922	544.163189544791	0
0	2929	544.305304890532	1
0	2932	546.813488049794	0
0	2943	547.316348729543	1
0	2945	547.484450369274	2
0	2949	548.079511448619	3
0	2950	548.370158635075	2
0	2955	548.77269338845	1
0	2961	549.846677476538	2
0	2963	549.876815305854	3
0	2968	550.631093819995	2
0	2976	554.451665560853	3
0	2977	555.501412947874	2
0	2983	555.664183998453	3
0	2984	556.356270900749	2
0	2989	556.549608670057	1
0	2994	556.721331820818	0
0	2998	557.216384934207	1
0	3002	557.601572781744	2
0	3005	558.90575153004	1
0	3011	559.136435053621	2
0	3013	559.49636300019	3
0	3018	560.583690106396	2
0	3024	561.884015072795	1
0	3030	561.908279115193	2
0	3031	562.175525754827	1
0	3036	562.951948347653	0
0	3040	562.960887999447	1
0	3046	564.960743329855	0
0	3062	565.699515492631	1
0	3064	565.800289208545	2
0	3067	566.26829794415	3
0	3068	566.535253805951	2
0	3074	566.760896743828	3
0	3076	567.037194145262	4
0	3078	567.225701249128	3
0	3082	567.294001868719	4
0	3085	568.115507096118	3
0	3092	570.861316657282	2
0	3097	571.273727394414	1
0	3104	571.763110724489	2
0	3105	572.775789099894	1
0	3110	572.945949898241	0
0	3114	573.883889072842	1
0	3117	575.057585885077	0
0	3123	575.2691381225	1
0	3125	575.453667960094	2
0	3126	575.760818464811	1
0	3131	576.97581602541	0
0	3159	579.553198030248	1
0	3161	580.636254251749	0
0	3170	581.487641084574	1
0	3173	583.364127363911	0
0	3187	585.22984975233	1
0	3188	585.297629833716	0
0	3202	586.112734734272	1
0	3208	589.46497989399	2
0	3209	589.497331473465	1
0	3215	590.668240692555	2
0	3216	590.800379814813	1
0	3220	591.995394651305	2
0	3222	592.007463538782	3
0	3224	594.302245537452	4
0	3230	596.806178124696	3
0	3236	599.077234773237	2
0	3242	600.09866934971	1
0	3248	600.386271337986	2
0	3249	600.930572722527	1
0	3254	601.928745868506	0
0	3276	604.602113934025	1
0	3277	605.090110695149	0
0	3283	605.128975014565	1
0	3286	607.087506725168	0
0	3315	612.815488671861	1
0	3317	613.534998318575	0
0	3334	615.345602032746	1
0	3335	615.458324843287	0
0	3359	617.918562843721	1
0	3366	618.752248464019	0
0	3415	627.321678972051	1
0	3416	628.043861393121	0
0	3436	629.676690602805	1
0	3439	630.003359200282	0
0	3446	630.877032969632	1
0	3447	631.023971607699	0
0	3470	632.65186788	1
0	3474	633.922849223686	0
0	3528	644.093803669441	1
0	3531	646.753148220492	2
0	3532	647.684484899981	1
0	3539	648.15094730224	2
0	3542	648.908102789996	1
0	3547	649.880897908612	0
0	3555	650.975678798495	1
0	3556	651.040832984343	0
0	3560	651.858772200889	1
0	3566	654.907907751997	2
0	3568	655.266079317785	1
0	3573	656.347784752572	0
0	3580	657.253310442099	1
0	3582	657.326694074247	2
0	3584	657.784485035158	3
0	3585	657.820064581821	2
0	3591	659.15440238075	1
0	3598	659.662788797442	2
0	3599	659.672038888817	1
0	3604	660.036522031417	0
0	3659	667.495365046494	1
0	3664	670.257010292288	0
0	3680	672.973820626463	1
0	3682	673.984984436506	2
0	3690	679.633731844605	3
0	3694	679.945442877431	4
0	3697	680.330169362268	3
0	3702	680.716363903844	2
0	3707	681.455263000606	1
0	3711	682.746120104068	2
0	3718	684.494959946362	3
0	3721	684.835175423507	4
0	3722	684.914773287361	3
0	3732	686.879989888799	4
0	3734	687.070901453518	3
0	3739	687.647729707607	2
0	3743	688.649367442425	3
0	3747	689.304641902756	4
0	3748	689.572221799956	3
0	3754	691.105140578236	4
0	3757	691.793424387681	3
0	3765	693.937044486843	2
0	3770	693.947634324337	1
0	3780	698.586877038719	2
0	3781	699.02759040632	1
0	3789	701.338278040677	2
0	3791	702.085728732228	3
0	3793	703.345316024726	4
0	3801	704.531774632102	5
0	3802	707.095780113429	4
0	3807	707.809221946508	3
0	3812	707.960226942958	2
0	3816	708.715684695643	3
0	3818	709.032687272775	4
0	3824	711.972548915933	5
0	3826	712.076147983687	6
0	3830	712.160763444068	7
0	3832	712.195848331667	8
0	3834	713.273089538971	9
0	3835	713.289411096486	8
0	3843	716.897588491374	9
0	3847	718.99998564621	8
0	3854	719.270239963774	7
0	3858	719.884623663659	8
0	3861	720.669337269397	7
0	3865	720.968211477861	8
0	3867	721.548499673504	9
0	3869	721.595123704885	10
0	3874	723.370016819891	9
0	3878	723.970406023803	10
0	3882	724.952992995928	11
0	3884	724.960394644325	12
0	3885	725.211100009031	11
0	3891	726.424426345554	10
0	3898	729.166491447932	9
0	3902	729.302568857415	10
0	3904	729.469074904224	11
0	3909	734.486015847515	10
0	3914	735.623554343008	9
0	3920	737.138042491935	8
0	3926	738.075522554385	7
0	3933	738.322438721997	8
0	3935	738.592971437335	9
0	3937	739.377435086372	10
0	3938	740.185129449344	9
0	3943	740.238491179575	8
0	3950	743.994245963779	7
0	3954	746.873539374592	8
0	3958	747.969779855218	7
0	3963	748.286384095537	6
0	3967	748.567167534418	7
0	3970	749.040718923471	6
0	3977	751.810014789313	5
0	3983	752.48337793579	6
0	3989	752.784081778463	7
0	3991	753.515517936607	8
0	3992	753.601978739711	7
0	3999	757.147246403408	6
0	4005	758.432303950162	7
0	4006	758.61934908774	6
0	4010	761.472001662428	7
0	4012	762.722242171605	8
0	4017	764.450181968451	7
0	4023	767.295404921939	6
0	4029	767.336454355791	7
0	4030	768.070403502818	6
0	4036	770.028114854858	7
0	4038	771.263868341155	6
0	4043	771.436800659711	5
0	4049	771.900010842711	6
0	4051	773.088852213254	5
0	4056	774.073868956223	4
0	4060	774.785828676894	5
0	4063	778.160278906391	4
0	4067	778.824687549789	5
0	4071	779.727811752077	6
0	4077	782.568850481695	7
0	4081	783.1740371684	6
0	4086	783.373264554781	5
0	4092	783.481061165827	6
0	4093	783.526773619102	5
0	4100	784.420605599379	6
0	4101	784.483650707162	5
0	4108	785.58379342723	4
0	4113	786.206380738444	3
0	4120	786.792533065898	4
0	4121	787.340104929409	3
0	4129	788.85952839114	4
0	4132	790.431576237278	3
0	4138	790.461758105701	4
0	4140	790.698609686981	5
0	4141	791.568376809375	4
0	4146	792.069873057133	3
0	4151	792.653479776564	2
0	4158	793.848796629971	1
0	4163	795.321527501874	0
0	4184	798.56475912099	1
0	4187	799.285949219637	0
0	4193	799.433348515144	1
0	4194	800.313523768667	0
0	4198	801.20419681352	1
0	4202	804.16422387107	2
0	4205	808.387305367418	1
0	4211	809.292220806833	2
0	4212	809.395042787765	1
0	4217	811.952674765223	0
0	4223	815.577082438023	1
0	4224	816.025939667577	0
0	4228	816.234596415956	1
0	4231	816.773781227598	0
0	4238	817.569452436666	1
0	4239	817.788529495126	0
0	4258	820.931136948637	1
0	4264	823.398276567033	0
0	4270	823.72254814825	1
0	4271	824.712634206022	0
0	4294	825.564350372312	1
0	4295	825.768550420452	0
0	4299	826.960309459308	1
0	4301	827.278824861763	2
0	4305	827.715461830449	3
0	4307	828.001187549899	4
0	4318	830.670100753684	5
0	4321	831.275538877598	4
0	4327	832.115017850921	3
0	4333	832.41375357646	4
0	4334	833.834266720227	3
0	4339	833.894013999958	2
0	4344	833.928746190564	1
0	4348	834.049758800761	2
0	4354	837.232167556983	3
0	4355	837.256449566239	2
0	4361	838.061313058968	1
0	4366	838.436738008812	0
0	4399	841.603494138036	1
0	4400	843.235661138639	0
0	4409	843.813753520948	1
0	4414	844.437892082405	0
0	4425	847.598355213023	1
0	4427	847.919690740813	2
0	4432	850.221090512995	1
0	4439	851.624268328146	2
0	4442	852.84391618826	1
0	4448	853.553395406327	0
0	4457	855.250218395433	1
0	4459	855.809832477379	0
0	4470	857.670402905419	1
0	4471	857.768738032079	0
0	4475	858.42901723241	1
0	4477	858.527331214896	2
0	4480	858.575775979254	1
0	4488	859.576044662812	2
0	4493	861.572565768344	1
0	4500	862.35569918041	2
0	4502	863.44330607092	1
0	4507	863.638177696137	0
0	4513	863.941755980763	1
0	4514	863.988188293307	0
0	4522	866.391304848738	1
0	4525	867.859385538807	0
0	4529	868.173899536991	1
0	4531	868.727055680277	2
0	4537	869.547515461865	3
0	4538	869.866940065581	2
0	4543	870.333443223387	1
0	4550	871.482474048216	2
0	4552	871.588503938883	3
0	4553	872.78913199061	2
0	4558	873.988430204347	1
0	4562	874.448028450329	2
0	4565	874.903815687797	1
0	4569	876.136103226012	2
0	4571	876.219791443948	3
0	4573	876.625141742348	4
0	4575	876.879213353587	5
0	4578	876.950841794842	4
0	4582	877.748351334766	5
0	4587	878.674317362961	6
0	4590	879.351303271316	5
0	4596	881.516693625951	4
0	4603	882.287415188149	3
0	4608	882.512758348815	2
0	4613	882.811040095108	1
0	4617	883.108615501239	2
0	4619	883.123547245103	3
0	4621	883.21003877323	4
0	4623	883.665122644781	5
0	4626	884.668416907347	4
0	4631	885.068476817078	3
0	4635	885.936553928452	4
0	4637	886.015835298715	5
0	4639	888.378013082154	6
0	4641	888.630060938233	7
0	4647	889.3867825038	8
0	4648	890.183305747789	7
0	4652	891.028406763428	8
0	4657	893.191312303158	7
0	4661	893.239900293205	8
0	4663	893.506001639728	9
0	4665	894.214766807931	10
0	4667	895.785206100698	11
0	4669	897.1706099404	12
0	4672	898.33456956158	11
0	4680	900.989658351771	10
0	4686	901.838398753326	11
0	4688	901.954376584444	12
0	4689	902.25242145606	11
0	4698	905.071159482827	10
0	4703	905.306293054368	9
0	4711	906.070131971851	8
0	4717	906.100827249819	9
0	4718	907.371504335375	8
0	4725	907.994810317861	7
0	4733	908.539828843992	8
0	4734	908.609479527152	7
0	4741	910.727817095601	6
0	4747	911.247773563648	7
0	4750	911.589848358139	8
0	4751	911.816219353396	7
0	4757	912.516359575183	8
0	4760	913.88164325737	7
0	4765	915.007472562907	6
0	4773	915.423589939249	7
0	4774	915.560697917476	6
0	4781	916.598369263667	5
0	4786	918.444342831643	4
0	4794	919.737128199624	5
0	4798	920.676849362873	6
0	4799	921.221350304513	5
0	4804	921.50012487143	4
0	4809	921.710379241224	3
0	4814	922.605866494169	2
0	4818	922.734324125505	3
0	4820	922.845191501944	4
0	4822	922.881631136113	5
0	4828	925.728642444788	6
0	4830	926.233734719367	7
0	4831	926.63019152114	6
0	4837	928.697296185487	7
0	4839	928.707537769134	8
0	4843	930.745536957567	7
0	4848	931.011245819348	6
0	4853	932.864317785044	5
0	4859	933.63575351984	6
0	4861	933.740532301938	7
0	4864	934.577407953423	6
0	4870	935.046631437455	5
0	4876	935.148040644211	6
0	4877	935.901198928829	5
0	4881	936.355846609461	6
0	4883	937.046210401866	7
0	4885	937.24961790566	8
0	4890	938.706942792204	7
0	4896	938.95322082961	8
0	4897	939.035495260951	7
0	4903	939.849991931866	8
0	4904	939.921603835424	7
0	4908	940.284573585272	8
0	4910	940.901123054956	9
0	4913	942.951254262055	8
0	4919	944.194495003743	7
0	4924	944.340798054211	6
0	4928	944.448872166398	7
0	4930	947.054955611964	8
0	4933	947.295012844522	7
0	4939	948.920616544695	6
0	4944	948.992334040309	5
0	4958	952.477398656434	4
0	4964	953.257471695648	5
0	4965	953.277645040402	4
0	4971	954.377050352122	5
0	4973	954.691765655096	6
0	4974	955.165461154491	5
0	4981	957.313522869042	4
0	4985	958.832191052145	5
0	4991	960.654835483974	4
0	4996	961.864370207697	3
0	5005	963.025816492572	2
0	5011	963.999652599094	1
0	5018	964.204961046725	2
0	5019	964.374050506436	1
0	5027	964.550872151394	2
0	5028	965.13180167667	1
0	5032	965.920452073556	2
0	5034	966.954122950865	3
0	5036	968.309347219714	4
0	5039	969.687270742075	3
0	5048	970.974490132806	2
0	5052	972.629801340577	3
0	5055	974.773572668711	2
0	5061	975.347721870108	3
0	5062	976.420788213626	2
0	5067	977.451916172351	1
0	5072	977.998115574657	0
0	5080	978.92704371301	1
0	5081	979.053635112574	0
0	5085	979.083620048105	1
0	5087	979.844675426884	2
0	5091	980.742145847943	3
0	5092	982.363398285282	2
0	5099	984.308104642893	1
0	5104	986.670900832333	0
0	5141	993.538409646397	1
0	5142	993.936749706379	0
0	5174	996.979882419529	1
0	5176	998.002141295684	2
0	5180	999.051150178994	1
0	5185	999.253781240006	0
0	5198	1002.566452385217	1
0	5202	1004.293707164523	2
0	5211	1005.845729748557	1
0	5217	1008.726225060179	2
0	5220	1009.366522750566	1
0	5228	1013.20433030899	0
0	5246	1016.913379970388	1
0	5248	1017.221826393917	2
0	5249	1018.202101648394	1
0	5254	1018.835189463462	0
0	5262	1020.94228000295	1
0	5265	1021.951234587076	0
0	5281	1025.143305631034	1
0	5282	1025.166407630754	0
0	5305	1026.872563613696	1
0	5307	1026.93360340438	2
0	5312	1028.653040565046	1
0	5317	1028.667387733878	0
0	5328	1029.265465128291	1
0	5333	1030.029264368306	0
0	5354	1032.044945319068	1
0	5356	1032.843475129828	2
0	5357	1033.389761363641	1
0	5362	1033.432728250388	0
0	5368	1035.3917082219	1
0	5372	1035.817880571617	2
0	5373	1035.89256375639	1
0	5380	1038.164585212644	0
0	5394	1040.289785762883	1
0	5396	1041.001287474772	0
0	5407	1043.108890845929	1
0	5409	1043.271228007615	2
0	5411	1044.18879254818	1
0	5417	1044.195605043797	2
0	5418	1044.592153961368	1
0	5423	1044.670031789234	0
0	5427	1044.821663623856	1
0	5429	1045.508860734474	2
0	5431	1045.667125417433	3
0	5436	1048.181303998262	2
0	5442	1048.421450245684	3
0	5445	1048.978709918308	2
0	5454	1050.120044464161	3
0	5456	1051.071990996841	4
0	5457	1051.378908502381	3
0	5464	1051.885577756984	4
0	5465	1052.0484146212	3
0	5470	1052.507801604698	2
0	5475	1052.784505812639	1
0	5480	1054.483045555958	0
0	5484	1055.578710097796	1
0	5486	1056.447012731547	2
0	5492	1057.594800768111	3
0	5493	1057.741865518343	2
0	5499	1058.71038192362	3
0	5500	1058.874317900096	2
0	5505	1058.952715843735	1
0	5509	1059.005607754168	2
0	5513	1060.945251779326	3
0	5519	1061.629067041756	4
0	5520	1062.030561270077	3
0	5524	1062.500619130913	4
0	5526	1065.615544498475	5
0	5530	1067.393595294935	4
0	5536	1067.950007147074	5
0	5539	1068.434905452065	6
0	5541	1068.871284183388	7
0	5542	1068.999576766387	6
0	5548	1069.127670365681	7
0	5551	1069.754046869885	8
0	5552	1069.862909039731	7
0	5557	1069.921963871217	6
0	5562	1071.867345975737	5
0	5566	1073.161501612118	6
0	5569	1074.148591628871	5
0	5574	1075.408213424532	4
0	5582	1075.819706147217	5
0	5585	1079.513795993601	4
0	5592	1081.47098539468	5
0	5594	1082.602032137816	4
0	5599	1083.543085983039	3
0	5606	1084.225460993835	4
0	5608	1084.501041450816	3
0	5613	1086.206940476026	2
0	5619	1087.660090105175	3
0	5623	1089.441974813348	4
0	5624	1089.801126534267	3
0	5629	1090.175503326433	2
0	5635	1090.188761713726	3
0	5637	1090.337398563912	4
0	5638	1090.977978152755	3
0	5642	1091.210646073503	4
0	5645	1092.194060597469	3
0	5651	1093.931638273782	4
0	5654	1094.847764713861	3
0	5659	1096.404895163526	2
0	5671	1100.536409277741	3
0	5672	1100.75592035167	2
0	5678	1101.03628104718	3
0	5680	1101.544185106493	4
0	5681	1101.889110065604	3
0	5687	1102.387590794198	4
0	5690	1102.541582279128	3
0	5695	1105.233372683939	2
0	5700	1106.130045601036	1
0	5704	1106.316159855287	2
0	5709	1106.827331329677	1
0	5715	1108.202103868654	2
0	5717	1108.603414884239	1
0	5722	1109.757122722006	0
0	5728	1111.253270158242	1
0	5734	1112.640393011098	2
0	5737	1112.960332792836	1
0	5741	1113.553778235665	2
0	5745	1114.866310375657	3
0	5746	1115.204807079916	2
0	5751	1115.288723152534	1
0	5755	1115.544337140949	2
0	5758	1118.376959322123	1
0	5767	1122.531650747506	0
0	5780	1125.16942172215	1
0	5781	1125.209797706963	0
0	5804	1128.022623311992	1
0	5808	1128.328634835077	2
0	5809	1128.409784117561	1
0	5818	1129.405918468048	2
0	5819	1129.434013593222	1
0	5824	1129.926784702563	0
0	5833	1132.472748234803	1
0	5835	1133.142342350375	2
0	5836	1133.335516571478	1
0	5842	1134.615818826334	2
0	5843	1134.885734108054	1
0	5853	1135.812480310275	0
0	5865	1136.419776454296	1
0	5867	1138.013084391135	0
0	5873	1138.558603405276	1
0	5874	1139.361646599528	0
0	5880	1140.663586132313	1
0	5881	1141.035923408791	0
0	5908	1144.259569236839	1
0	5910	1144.532503884248	2
0	5916	1146.694569902868	3
0	5917	1147.574081443185	2
0	5922	1147.714081254271	1
0	5929	1149.393437939685	0
0	5940	1149.972833217838	1
0	5941	1150.273028050435	0
0	5949	1151.031711856593	1
0	5951	1151.229431581896	2
0	5952	1151.365697250214	1
0	5960	1155.037947283431	0
0	5966	1155.474741905097	1
0	5968	1156.310223590933	2
0	5970	1156.422397326434	1
0	5977	1156.705577338874	2
0	5978	1158.004242254747	1
0	5983	1158.129384075757	0
0	5989	1160.621636237161	1
0	5995	1162.347298879751	0
0	6006	1162.81520708119	1
0	6008	1163.333583887011	2
0	6012	1163.767653547977	1
0	6020	1164.963073486958	0
0	6026	1165.438542029602	1
0	6029	1166.964151814555	0
0	6057	1169.802850445942	1
0	6059	1170.475258062453	2
0	6060	1171.615513514621	1
0	6067	1171.829333599866	2
0	6068	1172.511989733075	1
0	6075	1172.65400917301	0
0	6092	1173.2837871147	1
0	6093	1174.069915824581	0
0	6119	1177.177365319361	1
0	6120	1177.192719469774	0
0	6127	1178.041260443046	1
0	6128	1178.057935086912	0
0	6135	1180.038620887581	1
0	6139	1181.305541327941	0
0	6145	1183.66102728974	1
0	6146	1183.834554710291	0
0	6172	1187.452996260113	1
0	6174	1188.518878026405	2
0	6175	1189.358304110363	1
0	6180	1189.615403352843	0
0	6205	1193.272796684336	1
0	6207	1193.449570556423	0
0	6221	1195.764343961909	1
0	6223	1196.751947415817	2
0	6225	1197.382857370218	3
0	6226	1197.571020086587	2
0	6233	1198.470457598743	3
0	6237	1198.949703735252	2
0	6244	1200.174797252205	3
0	6245	1200.300832434833	2
0	6251	1200.577632978909	1
0	6258	1201.151811246184	0
0	6292	1204.565877823596	1
0	6293	1204.727275161491	0
0	6315	1208.203816614303	1
0	6316	1209.753536967171	0
0	6344	1213.384345333674	1
0	6346	1214.835680051394	0
0	6352	1214.852877514456	1
0	6354	1215.507668682354	0
0	6373	1218.062717575493	1
0	6375	1218.233794916116	2
0	6377	1218.891058653076	3
0	6379	1219.712564627829	4
0	6386	1224.154360902761	3
0	6391	1224.452855820987	2
0	6396	1225.514149688174	1
0	6403	1226.707098052262	0
0	6453	1230.024055272566	1
0	6455	1231.252108287773	0
0	6486	1235.989232309796	1
0	6491	1237.871639676407	0
0	6499	1238.550620563223	1
0	6501	1239.167069394053	0
0	6517	1239.663414354356	1
0	6519	1240.272744954461	2
0	6522	1243.070728968232	1
0	6527	1243.147792561595	0
0	6538	1243.736835849657	1
0	6541	1244.147724124311	2
0	6547	1246.496392791347	1
0	6552	1246.663495987116	0
0	6556	1246.779154560962	1
0	6563	1249.428615598336	0
0	6569	1250.011682951921	1
0	6575	1250.751652649814	2
0	6577	1251.312090427992	1
0	6582	1251.64670166491	0
0	6602	1255.540795955215	1
0	6603	1256.095963764064	0
0	6621	1258.444990976486	1
0	6622	1259.137014217856	0
0	6633	1259.811440514059	1
0	6634	1260.223507371765	0
0	6649	1265.967854284414	1
0	6652	1266.482480134228	0
0	6676	1270.117363590877	1
0	6678	1270.518529798746	2
0	6680	1271.738034028288	3
0	6686	1273.366976670244	2
0	6691	1274.113131885737	1
0	6697	1274.160410002073	2
0	6699	1274.174967155139	3
0	6702	1275.657274805595	2
0	6709	1277.085201822385	3
0	6710	1277.406434893993	2
0	6716	1277.4620391371	3
0	6717	1278.055844333431	2
0	6724	1278.509184131329	1
0	6729	1279.383575182926	0
0	6757	1283.317496155565	1
0	6760	1283.88245483603	2
0	6765	1285.638133423411	1
0	6770	1285.67667400962	0
0	6794	1288.180724520872	1
0	6800	1290.458133179933	0
0	6806	1290.669298085882	1
0	6807	1291.150268434019	0
0	6811	1295.128410745381	1
0	6813	1296.084625415939	2
0	6823	1298.072257767979	1
0	6831	1298.387683171151	2
0	6833	1298.577693180789	3
0	6834	1298.70955918014	2
0	6838	1299.623428805216	3
0	6840	1299.8342551188	4
0	6842	1300.09286601571	5
0	6845	1301.689013433876	4
0	6850	1303.15590410702	3
0	6858	1304.153238584666	2
0	6863	1305.27521157372	1
0	6868	1306.469178876966	0
0	6872	1307.554613010692	1
0	6876	1307.965942833749	2
0	6878	1308.801683133427	1
0	6883	1310.217014122817	0
0	6904	1311.942046010642	1
0	6906	1312.495375540162	2
0	6909	1313.349351729275	1
0	6915	1313.443105233645	2
0	6916	1313.455709547483	1
0	6925	1314.673436117526	0
0	6941	1316.975252492463	1
0	6943	1317.099219934904	2
0	6945	1318.032918231531	3
0	6947	1318.362290007126	4
0	6949	1318.674617740743	5
0	6955	1320.684636677145	6
0	6956	1320.984249872237	5
0	6963	1321.444676103722	4
0	6969	1321.507296773793	5
0	6970	1321.510688768636	4
0	6974	1321.626769264205	5
0	6976	1322.369524625438	6
0	6979	1322.513448875732	5
0	6984	1322.779150888026	4
0	6989	1324.011546947595	3
0	6995	1325.899096106597	2
0	7004	1327.451454258719	1
0	7009	1327.880581004141	0
0	7039	1330.939807213671	1
0	7041	1331.527351052087	2
0	7043	1332.383002680701	1
0	7049	1332.579404620278	2
0	7051	1332.921325344008	3
0	7055	1333.642538654721	4
0	7056	1333.868585212379	3
0	7061	1334.057916733011	2
0	7065	1334.44731744392	3
0	7067	1334.667682689193	4
0	7069	1335.451928220208	5
0	7071	1335.670066637813	6
0	7075	1336.614375243774	5
0	7079	1340.546478326316	6
0	7082	1341.069481212957	5
0	7090	1341.932471050145	6
0	7096	1344.606042435109	7
0	7099	1345.672067503347	6
0	7104	1347.660131202112	5
0	7108	1348.134557215227	6
0	7111	1348.414669529008	5
0	7116	1350.182689279342	4
0	7120	1350.587418714158	5
0	7123	1352.399055203901	4
0	7130	1354.23977679987	5
0	7131	1354.341843802018	4
0	7137	1354.401775540189	5
0	7139	1354.537388137389	6
0	7142	1354.788264983937	5
0	7148	1356.522042218358	6
0	7152	1357.109585227207	7
0	7155	1357.398652923912	6
0	7163	1358.819470870551	5
0	7169	1358.83084149402	6
0	7171	1359.180310285017	7
0	7173	1359.792966861566	6
0	7180	1360.467675597934	7
0	7181	1360.514923290977	6
0	7186	1360.997168430765	5
0	7191	1361.274082918038	4
0	7200	1363.101686393845	3
0	7205	1363.184638845722	2
0	7210	1363.890700281563	1
0	7218	1364.812347636844	2
0	7220	1364.901700271282	3
0	7221	1365.011162228918	2
0	7226	1369.545897326404	1
0	7233	1370.833235794902	0
0	7257	1375.440473866027	1
0	7260	1376.333110338036	2
0	7262	1376.36132142128	3
0	7263	1376.617811572347	2
0	7269	1377.41088908232	1
0	7276	1378.317489389547	0
0	7298	1380.897861897956	1
0	7300	1381.117962031197	0
0	7306	1381.139475348563	1
0	7307	1381.73392361364	0
0	7313	1382.159325353069	1
0	7318	1384.308704958074	0
0	7353	1388.251457195168	1
0	7355	1388.754189985628	0
0	7362	1389.42160312028	1
0	7364	1389.743530234871	0
0	7386	1390.925777043885	1
0	7388	1390.93194176238	2
0	7392	1391.430152210719	1
0	7398	1391.525229168699	2
0	7400	1392.131410723761	3
0	7401	1392.197134239482	2
0	7408	1393.213791016309	1
0	7415	1393.996509382657	0
0	7434	1398.094759841851	1
0	7435	1398.148173413997	0
0	7446	1399.776696659343	1
0	7449	1400.832505983976	0
0	7458	1402.121586477155	1
0	7465	1404.325104258503	0
0	7476	1405.632483007216	1
0	7478	1405.697707625205	0
0	7492	1406.548746296286	1
0	7496	1407.089540902281	2
0	7498	1407.098470203981	3
0	7500	1407.264901418909	4
0	7504	1408.318357484447	3
0	7509	1408.623038519327	2
0	7516	1410.245450176067	1
0	7522	1410.840550362044	2
0	7524	1411.058507299768	3
0	7529	1412.000474203061	2
0	7534	1414.280185172305	1
0	7538	1414.700679703408	2
0	7541	1415.757075261757	1
0	7546	1417.500202658922	0
0	7550	1418.626943361144	1
0	7554	1419.772114326839	2
0	7555	1419.861813882621	1
0	7564	1421.424679627308	0
0	7573	1422.24068190003	1
0	7574	1422.353109836785	0
0	7582	1422.422417384191	1
0	7590	1423.630301579342	2
0	7591	1424.226615921997	1
0	7596	1425.547965958796	0
0	7600	1426.249657409679	1
0	7602	1426.450555665764	2
0	7604	1426.601625169122	3
0	7606	1426.915279463009	4
0	7610	1427.359139310969	5
0	7612	1427.909981241797	6
0	7614	1428.023646130623	7
0	7615	1428.374141197351	6
0	7620	1429.240656412764	5
0	7624	1429.426256582982	6
0	7626	1429.542909651279	7
0	7628	1430.613658007899	8
0	7631	1431.177600523963	7
0	7635	1432.156111722213	8
0	7640	1432.645524651653	7
0	7645	1435.552332545213	6
0	7651	1435.76395560685	7
0	7652	1435.792273574482	6
0	7657	1436.081112539328	5
0	7664	1440.244117392327	4
0	7672	1442.650415712869	5
0	7674	1442.763936593569	6
0	7678	1443.996978469901	7
0	7681	1444.299101864798	6
0	7688	1445.301133122174	5
0	7694	1445.762564306335	6
0	7697	1446.287952569519	5
0	7704	1446.857224307652	6
0	7705	1446.977795573146	5
0	7713	1448.449541800003	6
0	7715	1448.663070530173	7
0	7718	1449.1718330105	6
0	7723	1449.180285956808	5
0	7728	1449.18528366976	4
0	7732	1450.850828631811	5
0	7736	1451.180990811827	6
0	7737	1451.499274529325	5
0	7742	1452.688546280061	4
0	7749	1454.795201289111	3
0	7760	1457.425821726005	2
0	7764	1457.44884270824	3
0	7766	1457.561146849889	4
0	7771	1459.462942537302	3
0	7776	1460.407376189379	2
0	7780	1460.939526828165	3
0	7786	1461.647306772583	4
0	7789	1461.897773201516	3
0	7795	1462.174055948855	4
0	7796	1462.542799075993	3
0	7801	1462.670743909863	2
0	7805	1462.896030974526	3
0	7809	1463.434231204806	4
0	7813	1465.089373706618	5
0	7815	1465.93421759257	6
0	7816	1466.1005924766	5
0	7822	1466.939950011547	4
0	7827	1467.030630354107	3
0	7836	1468.745696797319	4
0	7837	1468.883283356523	3
0	7842	1469.030791453913	2
0	7847	1469.83725837503	1
0	7852	1470.993785656598	0
0	7856	1472.230374934448	1
0	7859	1472.495506798749	0
0	7883	1475.084335817041	1
0	7885	1476.070038841921	0
0	7906	1482.315139950596	1
0	7908	1483.056505913138	0
0	7914	1483.09901754222	1
0	7916	1483.769939301797	2
0	7919	1484.326719184744	3
0	7921	1484.754578116795	2
0	7926	1484.982527782692	1
0	7931	1485.857066310045	0
0	7955	1488.26157492287	1
0	7956	1488.370131627179	0
0	7976	1491.197468097236	1
0	7980	1492.536372983813	0
0	7986	1492.661607075593	1
0	7992	1493.947417028819	0
0	8003	1497.331697267419	1
0	8005	1497.870482972852	0
0	8013	1498.084590267012	1
0	8016	1498.305296056565	2
0	8017	1498.560042069369	1
0	8022	1498.83864487076	0
0	8029	1499.58691150785	1
0	8030	1501.039896649604	0
0	8049	1502.824175498451	1
0	8052	1503.565062132794	2
0	8053	1503.571576595511	1
0	8058	1503.703818310772	0
0	8072	1506.138642435005	1
0	8073	1506.23604727694	0
0	8098	1509.76310163647	1
0	8101	1512.226834134213	0
0	8112	1513.255859691373	1
0	8116	1514.850744755861	2
0	8118	1514.916182057084	3
0	8119	1515.485548377675	2
0	8123	1515.839653923631	3
0	8128	1518.40921816523	2
0	8132	1518.515117259502	3
0	8135	1520.705184939542	2
0	8143	1522.112873455471	3
0	8145	1522.354745714318	4
0	8146	1522.448171481917	3
0	8154	1523.161262168702	4
0	8155	1523.85432256281	3
0	8162	1529.306278969935	2
0	8167	1529.983161649638	1
0	8173	1530.477222895538	2
0	8176	1531.851306531185	1
0	8183	1532.613297015036	0
0	8205	1535.628746924589	1
0	8206	1536.675737912048	0
0	8215	1537.550272034559	1
0	8218	1539.653733421482	0
0	8224	1540.429108890725	1
0	8225	1540.527236653817	0
0	8261	1546.434843808047	1
0	8263	1547.072992460891	2
0	8265	1547.221069853556	3
0	8267	1548.848427318636	4
0	8272	1550.537109653158	3
0	8277	1550.708262499008	2
0	8281	1550.776757544533	3
0	8287	1556.157214735821	4
0	8291	1557.072485640819	5
0	8292	1557.420661879516	4
0	8298	1558.185438455095	5
0	8299	1558.202909901221	4
0	8305	1558.971793055554	3
0	8309	1559.055153316564	4
0	8313	1559.44463805794	5
0	8315	1559.865488269159	6
0	8317	1560.107292468633	7
0	8319	1560.280533141628	8
0	8322	1561.096809652513	7
0	8328	1561.800994702467	6
0	8332	1562.393525540597	7
0	8336	1565.650530372353	8
0	8339	1566.139835605837	9
0	8341	1567.005532194323	8
0	8346	1567.145498781428	7
0	8351	1568.021176224999	6
0	8357	1568.820872912878	7
0	8367	1571.828385656931	6
0	8373	1572.172370149962	7
0	8374	1572.182554355971	6
0	8379	1572.692187484326	5
0	8385	1573.400928412587	6
0	8386	1573.744700065837	5
0	8394	1574.80737473139	6
0	8396	1575.446446311702	5
0	8401	1575.815626138716	4
0	8405	1575.87302869565	5
0	8411	1576.630838322832	6
0	8415	1577.317480883264	5
0	8420	1577.418970337567	4
0	8428	1579.289273489726	3
0	8434	1579.301274303998	4
0	8436	1579.552064373369	5
0	8437	1579.718848239074	4
0	8442	1580.508700084092	3
0	8453	1585.197311072634	2
0	8461	1585.66174046754	3
0	8462	1586.080408149358	2
0	8469	1586.221903246803	3
0	8470	1586.461991731814	2
0	8475	1587.023483999176	1
0	8482	1591.564981157714	0
0	8501	1595.642534511419	1
0	8502	1596.024434653681	0
0	8506	1596.154745357687	1
0	8509	1597.194575277039	0
0	8531	1600.218359516675	1
0	8533	1601.388720154876	2
0	8535	1601.963701378459	3
0	8539	1602.199593989042	4
0	8543	1603.796500910849	3
0	8548	1604.492462285491	2
0	8553	1605.365898485972	1
0	8557	1605.518229453436	2
0	8559	1606.565694862731	3
0	8563	1607.710738029033	4
0	8566	1609.018380324559	3
0	8571	1609.410835708847	2
0	8577	1610.190618814264	3
0	8578	1610.749399588457	2
0	8583	1610.771440677943	1
0	8588	1611.548773677653	0
0	8592	1612.010038259143	1
0	8594	1612.241450481578	2
0	8597	1613.367525756933	1
0	8605	1614.551670613422	0
0	8640	1618.599748198568	1
0	8642	1618.633152846387	2
0	8643	1618.642245035888	1
0	8649	1620.33949806088	0
0	8660	1622.507611899856	1
0	8661	1622.534881165648	0
0	8668	1623.726775441245	1
0	8670	1624.41967578293	2
0	8673	1625.257686537387	1
0	8680	1626.749400194504	0
0	8691	1626.968638928679	1
0	8693	1628.804527677239	0
0	8697	1629.139661217561	1
0	8700	1629.299285447713	0
0	8712	1630.023333336693	1
0	8713	1630.762773876358	0
0	8746	1635.110895159865	1
0	8749	1636.588336498071	0
0	8758	1636.733620031649	1
0	8764	1638.84899182089	0
0	8788	1642.38455780136	1
0	8790	1643.056684974162	2
0	8791	1643.187172190681	1
0	8797	1644.004042556264	2
0	8798	1644.283755336464	1
0	8804	1644.284020252715	2
0	8805	1644.398906358871	1
0	8810	1644.508596870558	0
0	8820	1645.153261333834	1
0	8821	1645.164731186393	0
0	8836	1647.596416113375	1
0	8837	1647.645417568035	0
0	8841	1648.522416031965	1
0	8844	1648.700888278513	0
0	8848	1649.072827284439	1
0	8852	1652.135397154282	2
0	8854	1652.162979535965	3
0	8857	1652.225318272308	4
0	8858	1652.303228940945	3
0	8862	1653.799654271479	4
0	8864	1654.097061856818	5
0	8867	1655.301095459473	4
0	8871	1656.299313113655	5
0	8873	1657.932106674938	6
0	8880	1660.261751400067	5
0	8885	1660.292298567859	4
0	8889	1660.991785059354	5
0	8891	1661.209168564599	6
0	8893	1661.294960401598	7
0	8895	1661.31914550173	8
0	8899	1663.066207949724	7
0	8907	1665.253506224667	8
0	8908	1666.220852942311	7
0	8914	1667.004335824583	8
0	8917	1668.157696121644	7
0	8923	1668.641792870398	6
0	8928	1668.733916720467	5
0	8934	1669.518597726267	6
0	8937	1671.007202281295	5
0	8943	1673.057643001513	6
0	8947	1675.132377103264	5
0	8953	1676.106615306837	6
0	8954	1676.424989462965	5
0	8961	1677.567426638485	6
0	8962	1677.69889943115	5
0	8968	1678.374739512279	4
0	8975	1678.905563101821	5
0	8976	1678.997508762051	4
0	8983	1679.491386067664	3
0	8988	1679.907870326124	2
0	8993	1680.186007886024	1
0	8998	1681.550319938603	0
0	9011	1684.405632478796	1
0	9013	1684.757493871695	2
0	9015	1685.774185392684	3
0	9017	1686.350130186009	4
0	9019	1686.359548858374	5
0	9020	1686.917597272338	4
0	9025	1687.091696126491	3
0	9030	1689.648060303694	2
0	9041	1692.184217087394	1
0	9046	1692.926263273843	0
0	9082	1698.216843616606	1
0	9086	1700.778451901284	2
0	9090	1701.152979000694	3
0	9096	1703.711419845048	4
0	9104	1705.151820892337	3
0	9110	1705.160080228696	4
0	9115	1706.31218900162	3
0	9120	1706.327501833411	2
0	9126	1707.117589706287	1
0	9131	1707.37211377787	0
0	9137	1707.821204872525	1
0	9139	1708.762257193371	0
0	9152	1710.400535563723	1
0	9157	1713.95944944543	0
0	9179	1717.259542307313	1
0	9181	1717.725898809346	2
0	9183	1718.071815283237	3
0	9186	1718.408038135254	2
0	9193	1719.233724651454	3
0	9194	1720.026126925392	2
0	9202	1720.382085068824	3
0	9203	1720.574244463729	2
0	9209	1720.732549770393	3
0	9210	1722.178912467525	2
0	9219	1723.182775448576	1
0	9224	1723.276206836708	0
0	9228	1723.324538498148	1
0	9232	1724.422170495215	0
0	9286	1731.841247388704	1
0	9287	1733.078341448804	0
0	9304	1735.337086612481	1
0	9307	1736.446457083129	0
0	9325	1738.712647249984	1
0	9329	1740.323447568152	0
0	9340	1741.610811909747	1
0	9342	1741.777057411843	2
0	9346	1742.460650673893	1
0	9353	1742.830887534033	0
0	9373	1745.269454636748	1
0	9381	1747.384103327465	2
0	9386	1748.184281188614	1
0	9392	1748.613497998459	0
0	9405	1750.366869108641	1
0	9406	1750.437170010066	0
0	9414	1751.153882644502	1
0	9416	1751.959695142051	0
0	9460	1756.804407675389	1
0	9461	1757.210612486812	0
0	9475	1759.645130476475	1
0	9477	1760.361059715712	2
0	9480	1760.561004203215	1
0	9485	1761.275002049946	0
0	9504	1762.604617241296	1
0	9505	1762.912633541897	0
0	9512	1763.256794440509	1
0	9514	1763.262582917323	2
0	9515	1763.264937584669	1
0	9521	1764.305133841079	2
0	9522	1764.413418746646	1
0	9527	1765.80392090361	0
0	9541	1766.451577404529	1
0	9544	1766.992138827325	0
0	9548	1768.124927458805	1
0	9551	1770.500787843314	0
0	9555	1770.727825811263	1
0	9559	1772.369976348231	2
0	9561	1773.142891176056	1
0	9566	1773.51235024971	0
0	9584	1778.526263597774	1
0	9585	1778.564120973118	0
0	9600	1781.088000646103	1
0	9602	1781.544205301802	2
0	9605	1782.576158885799	3
0	9606	1782.690329402182	2
0	9616	1786.990491329539	1
0	9624	1787.886334179626	0
0	9642	1789.647123932318	1
0	9643	1790.719080932791	0
0	9651	1791.700650005983	1
0	9652	1792.218922675835	0
0	9658	1793.046307831825	1
0	9662	1794.121026053027	2
0	9664	1795.322939062935	1
0	9669	1795.349397003224	0
0	9681	1796.113265121674	1
0	9682	1796.296554300562	0
0	9688	1796.461688459508	1
0	9690	1797.007779011287	0
0	9696	1797.581346624747	1
0	9699	1798.302492286632	2
0	9700	1798.401997545317	1
0	9707	1799.210967310336	2
0	9710	1800.65262884988	3
0	9712	1800.692326989311	4
0	9713	1800.844092795168	3
0	9719	1800.906305085137	2
0	9724	1801.550923629104	1
0	9729	1802.489457872817	0
0	9745	1804.565493474277	1
0	9747	1805.038898914814	2
0	9751	1806.217700766245	1
0	9757	1807.228093475449	2
0	9758	1807.855011582822	1
0	9763	1808.714046018271	0
0	9773	1810.634885007229	1
0	9774	1810.693504634735	0
0	9780	1810.79879383807	1
0	9781	1810.909344181519	0
0	9788	1811.444513424747	1
0	9789	1811.523377899509	0
0	9801	1812.321521149987	1
0	9803	1812.709529303101	0
0	9811	1813.763103712665	1
0	9812	1813.9899634431	0
0	9819	1814.668258903993	1
0	9821	1816.334352365564	0
0	9838	1818.894542784145	1
0	9839	1818.92623402409	0
0	9850	1819.375104063972	1
0	9851	1819.530797687049	0
0	9862	1820.349033759818	1
0	9868	1822.893166149317	0
0	9896	1826.157691665288	1
0	9898	1826.508544105407	2
0	9901	1827.761404663497	1
0	9907	1828.596105117875	0
0	9920	1832.379709159134	1
0	9922	1833.279207566617	2
0	9924	1833.741386461568	1
0	9933	1835.656941090765	2
0	9934	1837.339596188629	1
0	9940	1837.369567825239	2
0	9941	1837.576868364594	1
0	9946	1837.809990835436	0
0	9962	1838.636290903591	1
0	9964	1839.829769284273	0
0	9982	1840.905186919985	1
0	9983	1841.306079901712	0
0	9995	1842.914683903125	1
0	9997	1843.712435509799	0
0	10003	1844.635799229946	1
0	10004	1844.865355799568	0
0	10008	1846.418523026169	1
0	10010	1846.842099073854	2
0	10013	1847.422538054491	1
0	10017	1847.477003660134	2
0	10019	1848.042360652255	3
0	10024	1848.49576184631	4
0	10026	1849.995514994844	3
0	10033	1852.109572894339	2
0	10039	1852.450747469815	1
0	10045	1852.578695356023	2
0	10046	1852.781528847842	1
0	10056	1854.081748544388	2
0	10057	1854.132756661048	1
0	10063	1854.593824012069	2
0	10064	1855.049742778568	1
0	10068	1855.173799649869	2
0	10074	1857.800735693907	1
0	10081	1858.627982504509	0
0	10093	1859.652023385052	1
0	10094	1859.781331677233	0
0	10101	1860.861178705163	1
0	10102	1860.88019726707	0
0	10114	1864.907373758722	1
0	10115	1865.217446950598	0
0	10133	1867.466873333615	1
0	10136	1869.775185138438	0
0	10150	1871.648391996756	1
0	10158	1871.993386663816	2
0	10163	1873.157841172053	1
0	10168	1873.826893932464	0
0	10179	1874.396836436447	1
0	10181	1875.057484055422	0
0	10190	1876.022306115538	1
0	10193	1878.047540928307	0
0	10206	1879.744826794436	1
0	10208	1879.757832375931	2
0	10210	1880.009122631379	1
0	10215	1880.740150252742	0
0	10226	1882.294958312785	1
0	10228	1882.589284046023	2
0	10229	1882.984080614102	1
0	10234	1883.055605593359	0
0	10253	1886.041916789593	1
0	10259	1887.513986325967	0
0	10271	1887.844513223665	1
0	10273	1888.058773479573	2
0	10274	1888.377969112318	1
0	10280	1888.513854353079	2
0	10281	1889.522681318974	1
0	10290	1890.64016782272	2
0	10291	1891.054933092304	1
0	10296	1892.753631893814	0
0	10300	1892.768996531614	1
0	10304	1893.907060755903	2
0	10305	1893.942255269732	1
0	10311	1894.431589330564	2
0	10316	1895.364695136842	1
0	10321	1896.055445168324	0
0	10344	1899.299122511881	1
0	10346	1900.501898205331	0
0	10362	1901.031361283241	1
0	10365	1902.060197414637	0
0	10371	1902.551410670636	1
0	10372	1902.668914818626	0
0	10417	1909.392407713633	1
0	10423	1910.047892049599	0
0	10429	1910.069452750959	1
0	10430	1910.5132942013	0
0	10448	1911.103434452996	1
0	10450	1911.206933838423	2
0	10451	1911.304528057863	1
0	10456	1911.675571981414	0
0	10482	1916.170879967439	1
0	10484	1916.827590147645	2
0	10485	1917.119285009392	1
0	10491	1917.624198363663	0
0	10503	1918.585990506688	1
0	10505	1919.177508454791	2
0	10506	1919.274293465857	1
0	10513	1920.881400317743	2
0	10517	1921.277336921919	3
0	10518	1922.388796948898	2
0	10524	1922.930377309263	1
0	10534	1925.680298392527	2
0	10538	1925.906684038362	3
0	10541	1927.172176660861	2
0	10546	1927.731184530761	1
0	10553	1928.352805995986	0
0	10559	1929.014788831906	1
0	10562	1929.403265363221	0
0	10582	1931.006402387055	1
0	10584	1932.25640458312	2
0	10586	1932.270268100105	3
0	10589	1933.565014841406	2
0	10595	1933.847317986172	1
0	10602	1934.733123600186	2
0	10605	1935.437059165477	3
0	10606	1935.952116737172	2
0	10612	1937.227016591718	3
0	10614	1937.806193396402	4
0	10615	1938.008433437723	3
0	10623	1939.030987051635	4
0	10624	1939.173286298611	3
0	10630	1942.181486896168	4
0	10631	1944.025393985989	3
0	10635	1944.093130908391	4
0	10639	1946.152064950806	5
0	10643	1947.951881292719	4
0	10650	1948.935228471447	5
0	10651	1949.053169517727	4
0	10656	1949.707383730424	3
0	10663	1950.644716223458	2
0	10670	1952.061183114587	3
0	10671	1952.524176232469	2
0	10677	1952.992268249565	3
0	10678	1953.086530329452	2
0	10682	1953.539292730548	3
0	10688	1957.875744931387	2
0	10693	1958.365545587498	1
0	10697	1958.763350047213	2
0	10699	1959.206022603421	3
0	10703	1961.398795545424	2
0	10709	1961.760766311433	3
0	10711	1962.464108459193	4
0	10713	1962.513261326382	5
0	10714	1963.677144711848	4
0	10721	1964.891725246898	3
0	10727	1965.622256299092	4
0	10729	1965.769347644474	5
0	10730	1965.854028337057	4
0	10734	1965.972832681876	5
0	10737	1966.977690110043	4
0	10741	1967.16562583984	5
0	10746	1967.431179595026	4
0	10755	1971.416799859508	3
0	10759	1972.06919016775	4
0	10761	1972.336854858889	5
0	10764	1974.153966993262	4
0	10768	1974.599721793972	5
0	10771	1975.551986605183	4
0	10775	1976.694491593608	5
0	10780	1977.913224402544	6
0	10781	1979.806554958817	5
0	10787	1979.952983374111	6
0	10788	1981.25996863863	5
0	10794	1982.110940097792	6
0	10798	1984.392990310768	7
0	10802	1985.112629418337	8
0	10803	1985.351231795254	7
0	10808	1985.873252326705	6
0	10815	1987.399032587287	5
0	10819	1988.294665691933	6
0	10822	1989.62867540448	5
0	10827	1990.456404939659	4
0	10832	1990.931731154311	3
0	10837	1992.366321629031	2
0	10845	1994.080829102072	3
0	10846	1994.601062674786	2
0	10850	1994.650455077205	3
0	10852	1994.70261553348	4
0	10859	1996.298689932235	5
0	10861	1996.42971772611	6
0	10865	1997.614332643783	7
0	10867	1997.875665620883	8
0	10868	1997.992247679649	7
0	10873	1999.027696401831	6
0	10878	1999.399091037247	5
0	10886	2004.32684798545	4
0	10892	2005.488035148675	3
0	10898	2006.175412033163	2
0	10905	2006.753775680989	1
0	10911	2006.965167604166	2
0	10914	2007.590295490923	1
0	10920	2007.622089293272	2
0	10921	2008.027251574537	1
0	10926	2009.394014874728	0
0	10930	2011.653263400923	1
0	10934	2011.942579766557	2
0	10937	2012.134665436686	1
0	10941	2012.56134459825	2
0	10945	2013.857008181632	3
0	10946	2014.240023046942	2
0	10951	2014.425704589145	1
0	10958	2015.856513405357	0
0	10969	2017.813889936843	1
0	10970	2018.457015189121	0
0	10976	2019.216286827652	1
0	10978	2019.883154575836	2
0	10981	2021.025799638852	1
0	10986	2022.3164925122	0
0	11014	2028.997088368538	1
0	11015	2029.409886537633	0
0	11028	2035.170862610603	1
0	11036	2037.707677256126	0
0	11043	2038.158783926962	1
0	11045	2038.196357138039	2
0	11047	2039.237337479808	3
0	11048	2039.36562541769	2
0	11053	2040.60009402733	1
0	11058	2041.409645441123	0
0	11069	2041.794554087358	1
0	11071	2041.912278983419	2
0	11073	2042.239119998879	1
0	11081	2044.3629980524	2
0	11086	2045.83607891181	3
0	11087	2046.773566915959	2
0	11093	2049.067191885418	1
0	11099	2049.765559681063	2
0	11105	2050.293670626877	1
0	11116	2051.203154913784	0
0	11129	2052.55367781362	1
0	11133	2053.217881285895	0
0	11167	2057.832301667502	1
0	11171	2058.290364352208	2
0	11176	2059.337845122817	3
0	11179	2059.628283840769	2
0	11186	2060.135128264406	1
0	11194	2061.75505704879	0
0	11200	2061.803050791857	1
0	11201	2061.891423580919	0
0	11225	2064.522314830853	1
0	11227	2065.848620582274	2
0	11229	2066.247327800209	3
0	11238	2067.950274765348	2
0	11243	2068.327275568958	1
0	11248	2068.349218597083	0
0	11252	2069.327181861957	1
0	11256	2071.085973921237	0
0	11304	2077.637516903239	1
0	11309	2080.628630059844	0
0	11319	2081.43730789569	1
0	11321	2081.538087049525	2
0	11323	2082.851344141905	3
0	11328	2084.327835829715	4
0	11329	2084.358613861066	3
0	11335	2085.155203227542	4
0	11336	2085.323029652601	3
0	11341	2085.621815343378	2
0	11347	2086.582010516012	3
0	11349	2086.854472554565	4
0	11351	2086.947120878434	5
0	11352	2087.970320607669	4
0	11356	2089.261072252928	5
0	11359	2090.195257399168	4
0	11363	2092.832513106724	5
0	11366	2093.361634606277	4
0	11370	2093.98581780375	5
0	11374	2094.093063297901	6
0	11376	2094.384975500572	5
0	11382	2094.769485406698	4
0	11388	2094.825804550746	5
0	11397	2097.806624555727	4
0	11406	2098.898347923957	3
0	11411	2099.290610835593	2
0	11417	2099.350622490442	3
0	11419	2100.845764023431	4
0	11421	2100.913559964828	5
0	11422	2101.482523250324	4
0	11430	2102.7780278598	5
0	11431	2102.794547204012	4
0	11436	2103.256821162195	3
0	11440	2103.729492866449	4
0	11442	2104.309137987723	5
0	11444	2104.563076957101	6
0	11447	2105.120497860719	5
0	11454	2106.80758640355	4
0	11461	2107.72653960733	5
0	11465	2110.605928413641	6
0	11466	2110.872432132924	5
0	11472	2111.020000350813	4
0	11477	2111.177217814013	3
0	11483	2111.900041089083	4
0	11484	2111.9877453608	3
0	11490	2112.650922287168	2
0	11495	2112.677797672172	1
0	11500	2114.310816115423	0
0	11506	2115.93238142545	1
0	11507	2116.289520029869	0
0	11530	2120.502179170625	1
0	11531	2120.742622052227	0
0	11564	2124.2415243342	1
0	11568	2125.271328708726	2
0	11570	2125.79617903018	1
0	11575	2125.828964432313	0
0	11587	2127.307529130206	1
0	11589	2127.700754585445	2
0	11590	2127.777739344985	1
0	11598	2128.712567318855	2
0	11599	2128.729871125964	1
0	11605	2129.119702416838	0
0	11621	2130.176863250023	1
0	11622	2130.258531283319	0
0	11647	2133.686576656822	1
0	11650	2138.271958808385	0
0	11673	2140.145705237598	1
0	11675	2140.207033370908	2
0	11679	2141.508057468395	3
0	11680	2142.042536587179	2
0	11687	2143.111250847188	1
0	11693	2143.598322914483	2
0	11695	2144.397069034784	3
0	11696	2145.031322843817	2
0	11705	2146.546334354715	1
0	11711	2147.384958037536	0
0	11722	2147.755067505752	1
0	11726	2149.845077531855	0
0	11743	2150.982598870115	1
0	11752	2152.606501192075	2
0	11753	2152.695639750986	1
0	11758	2153.058551606376	0
0	11762	2155.243238561568	1
0	11765	2156.540378509867	0
0	11802	2159.557408551891	1
0	11803	2159.582437162883	0
0	11809	2159.892112439059	1
0	11811	2160.235993046035	2
0	11814	2161.377374310992	1
0	11820	2162.765812728998	0
0	11824	2163.627061996439	1
0	11828	2164.751113646932	0
0	11849	2166.919935709791	1
0	11851	2167.730007345694	2
0	11854	2167.906910673299	1
0	11859	2168.327971817175	0
0	11884	2170.155254831619	1
0	11888	2170.247070349291	2
0	11889	2170.275630956934	1
0	11896	2171.504499981429	0
0	11927	2174.372736648918	1
0	11928	2174.574187907506	0
0	11950	2179.021860998183	1
0	11956	2181.869579696628	2
0	11957	2182.151562990521	1
0	11962	2182.234784731969	0
0	11984	2186.692178662556	1
0	11987	2187.775010876001	0
0	12011	2190.833567132458	1
0	12012	2191.013069732431	0
0	12024	2192.66267843114	1
0	12025	2193.005954052878	0
0	12046	2194.597120483432	1
0	12049	2195.31533338635	0
0	12056	2197.914608946607	1
0	12057	2198.005168752466	0
0	12069	2200.89950567951	1
0	12071	2201.170643037085	2
0	12073	2202.528685806887	3
0	12085	2209.81621076873	4
0	12087	2211.077254503352	5
0	12090	2211.552718610938	4
0	12095	2211.707174814306	3
0	12102	2211.965847217912	4
0	12103	2212.272698871021	3
0	12108	2212.631518056053	2
0	12113	2213.518834404455	1
0	12117	2213.68107152267	2
0	12121	2214.902764102018	3
0	12126	2216.001120449581	2
0	12136	2218.823697021112	1
0	12142	2219.118235867646	2
0	12143	2219.325589959493	1
0	12151	2219.636192483072	2
0	12153	2219.875278759189	1
0	12158	2220.690090373239	0
0	12166	2223.326109000883	1
0	12170	2226.087458189013	0
0	12192	2228.226128453734	1
0	12195	2230.319502326536	0
0	12204	2230.697823563135	1
0	12207	2231.3767410894	0
0	12216	2231.75192955036	1
0	12218	2232.161834163786	2
0	12228	2234.950170962275	3
0	12229	2235.756902636745	2
0	12235	2236.617670669128	1
0	12239	2237.600848756473	2
0	12242	2238.269474241212	1
0	12247	2238.408720883302	0
0	12273	2241.938754482958	1
0	12274	2242.552473016422	0
0	12292	2245.978399777465	1
0	12295	2246.040688532937	0
0	12302	2247.217492986801	1
0	12306	2248.758934596381	0
0	12314	2249.937630008242	1
0	12315	2250.95331702918	0
0	12371	2260.716238734845	1
0	12373	2260.775546542337	2
0	12374	2261.222777627633	1
0	12382	2261.589324988928	0
0	12390	2262.662921423983	1
0	12392	2263.711334396374	0
0	12401	2264.922174851944	1
0	12402	2265.108751488325	0
0	12424	2269.514884452845	1
0	12428	2270.57675992954	2
0	12430	2271.164674047008	1
0	12438	2271.295087305055	0
0	12450	2272.026950621545	1
0	12454	2273.806639893544	2
0	12455	2274.620336416047	1
0	12464	2275.867590235374	0
0	12475	2277.1515893137	1
0	12478	2277.177525202202	0
0	12485	2277.54995817406	1
0	12487	2278.317696282331	2
0	12488	2278.666318839565	1
0	12493	2278.682452887969	0
0	12508	2280.446481090486	1
0	12512	2281.443040570492	2
0	12519	2284.384720958435	1
0	12529	2285.601811898265	2
0	12532	2286.747183672379	1
0	12537	2287.053056644205	0
0	12552	2289.522239960625	1
0	12555	2291.975423447354	2
0	12558	2292.043000436709	1
0	12566	2294.356535416582	2
0	12568	2294.565906803026	3
0	12569	2294.876268536461	2
0	12576	2295.604506664738	1
0	12583	2295.851319256882	2
0	12584	2296.963424392374	1
0	12590	2297.047749157399	0
0	12601	2299.023414700223	1
0	12602	2299.112886197056	0
0	12609	2300.307334354787	1
0	12610	2300.650720690867	0
0	12614	2301.302813758485	1
0	12621	2301.648681555615	2
0	12622	2302.112762481127	1
0	12627	2302.349609715203	0
0	12636	2303.334758384011	1
0	12639	2303.530850335441	2
0	12640	2303.570957837444	1
0	12647	2304.440587968863	0
0	12665	2305.521352172199	1
0	12670	2308.613205271948	2
0	12673	2310.083302883445	1
0	12678	2310.614013936971	0
0	12686	2312.250633456823	1
0	12687	2312.658845649473	0
0	12750	2323.108007554355	1
0	12751	2323.485949669939	0
0	12761	2326.518649147889	1
0	12769	2333.241180481007	0
0	12778	2334.040016324168	1
0	12779	2334.212821145983	0
0	12785	2334.255562945937	1
0	12786	2334.815788304099	0
0	12817	2339.24752665065	1
0	12818	2339.249778792378	0
0	12833	2340.458065375194	1
0	12834	2340.573434620729	0
0	12852	2343.918677487514	1
0	12853	2344.034221319727	0
0	12868	2347.48158619605	1
0	12871	2348.630645261519	0
0	12886	2350.408263722745	1
0	12889	2351.52657635425	0
0	12922	2355.880852533505	1
0	12923	2356.366870193492	0
0	12940	2358.89956150725	1
0	12944	2359.342256802604	2
0	12948	2359.976749029639	3
0	12953	2361.735388018852	2
0	12958	2363.448844393574	1
0	12963	2364.541738428112	0
0	12969	2364.918675332959	1
0	12970	2364.924072597033	0
0	12974	2367.526333563479	1
0	12977	2369.077182473795	0
0	12983	2369.465332266091	1
0	12985	2369.512017979533	2
0	12986	2370.763770540643	1
0	12991	2373.353002815181	0
0	13016	2377.545477234214	1
0	13017	2377.588405625937	0
0	13056	2383.635104998565	1
0	13060	2384.863366647133	2
0	13063	2385.381426660482	3
0	13064	2386.943737677397	2
0	13075	2387.639969400599	3
0	13076	2387.700454399965	2
0	13082	2388.279474884909	1
0	13091	2390.034047239657	0
0	13097	2390.099368137017	1
0	13098	2390.560119834255	0
0	13104	2390.691305734393	1
0	13105	2391.043140957661	0
0	13109	2391.291054491677	1
0	13111	2391.335243837899	2
0	13114	2391.482933988112	1
0	13118	2393.953249332469	2
0	13120	2394.842775239494	3
0	13122	2397.152683978816	4
0	13124	2397.70696039758	5
0	13127	2398.518560296599	4
0	13134	2401.234765921161	3
0	13139	2402.063940603835	2
0	13144	2402.333238865797	1
0	13149	2402.619355989147	0
0	13170	2403.677804836136	1
0	13177	2404.763746058794	0
0	13193	2405.449381705661	1
0	13195	2405.50368546667	2
0	13198	2406.225581800196	1
0	13203	2406.651368511902	0
0	13207	2406.985742348986	1
0	13213	2408.473214991928	0
0	13238	2409.574557579779	1
0	13242	2410.548546440448	2
0	13250	2413.083093858018	1
0	13254	2414.426104287238	2
0	13257	2415.331726637107	1
0	13261	2415.952682151121	2
0	13264	2416.713196235878	1
0	13272	2417.67628847331	2
0	13276	2420.978243998077	1
0	13286	2421.960631323046	2
0	13287	2421.977239506992	1
0	13291	2422.566743179442	2
0	13293	2423.017364683494	3
0	13295	2426.148120148381	4
0	13297	2427.088885094119	5
0	13299	2428.10968137208	6
0	13301	2429.196099794525	7
0	13307	2430.393113556641	8
0	13308	2430.413963862946	7
0	13316	2432.275226951689	8
0	13318	2433.605417282949	9
0	13319	2433.668061817858	8
0	13323	2434.145804520579	9
0	13327	2436.413051441876	10
0	13328	2437.174228756751	9
0	13332	2437.437276501469	10
0	13334	2437.705583894783	11
0	13338	2439.489616430683	12
0	13343	2440.188784330871	11
0	13348	2440.661270635052	10
0	13355	2441.985916063339	9
0	13359	2442.455994964674	10
0	13362	2444.254201293361	9
0	13369	2444.70762541834	8
0	13375	2445.32087582438	7
0	13380	2445.393269357235	6
0	13390	2447.620031165419	7
0	13392	2447.905087940549	8
0	13397	2448.803695665241	9
0	13399	2449.114933972577	8
0	13408	2451.346571434568	7
0	13414	2451.47499449554	6
0	13419	2451.573864406697	5
0	13425	2452.793075287147	6
0	13432	2454.154673389581	5
0	13438	2454.193619546921	6
0	13439	2455.471467801872	5
0	13444	2456.018689917615	4
0	13453	2457.873081675767	5
0	13454	2459.471721817027	4
0	13459	2459.633016175234	3
0	13463	2461.087917446464	4
0	13465	2463.414236279971	5
0	13467	2465.180915669786	6
0	13469	2465.694623508203	7
0	13473	2466.379814458564	6
0	13479	2466.389565914071	7
0	13480	2466.422332533813	6
0	13484	2467.026831060141	7
0	13488	2467.851894443758	8
0	13490	2467.979291332037	9
0	13491	2468.040387178379	8
0	13497	2470.402140381819	9
0	13498	2470.820948936759	8
0	13504	2472.119804526327	9
0	13506	2473.188598816688	10
0	13509	2474.8045158346	9
0	13513	2475.827116836931	10
0	13515	2475.893887204582	11
0	13519	2476.505229814505	12
0	13520	2476.93803807144	11
0	13526	2477.771473979404	10
0	13532	2478.131743799939	11
0	13533	2478.147483083794	10
0	13539	2479.192414405966	11
0	13540	2479.239275238924	10
0	13545	2479.958790466999	9
0	13554	2481.413478363249	8
0	13560	2482.829278813787	9
0	13561	2482.970473393516	8
0	13567	2483.872716398443	9
0	13571	2484.943465144009	10
0	13573	2485.042487891122	11
0	13577	2487.875941723363	12
0	13579	2489.578269933094	13
0	13584	2490.603057691215	12
0	13590	2491.195217014136	13
0	13592	2491.368828459454	14
0	13595	2492.310362622209	13
0	13606	2495.197740547709	12
0	13612	2496.809387049572	13
0	13613	2497.386296323527	12
0	13618	2497.604877939776	11
0	13622	2497.690687565585	12
0	13624	2498.504296831102	13
0	13626	2498.806175915913	14
0	13630	2499.314498286262	15
0	13632	2499.604637940824	16
0	13633	2499.907438001449	15
0	13637	2501.69151248366	16
0	13640	2504.071789879109	15
0	13646	2505.57699452433	16
0	13650	2506.057800369598	17
0	13651	2506.152559205916	16
0	13656	2507.695866999569	15
0	13666	2510.224678813845	14
0	13672	2510.376506932358	15
0	13674	2510.76775786983	16
0	13676	2511.293606673212	17
0	13677	2511.922948999873	16
0	13683	2511.976368189412	17
0	13684	2511.979166059178	16
0	13691	2512.099064884468	15
0	13697	2512.947938772559	16
0	13701	2513.524951746077	17
0	13705	2514.381777286767	18
0	13710	2516.161366538436	17
0	13719	2518.092082102274	18
0	13720	2518.398710026345	17
0	13728	2518.589503018379	16
0	13735	2518.69382982767	17
0	13739	2520.44914772727	18
0	13741	2520.814029306994	19
0	13742	2521.000325729081	18
0	13748	2521.431432487011	19
0	13751	2522.33599536087	18
0	13758	2522.856863978451	19
0	13759	2523.339216833356	18
0	13764	2524.053019125828	17
0	13769	2524.656199752156	16
0	13773	2525.020564690499	17
0	13777	2525.602329547087	18
0	13779	2525.865731300175	19
0	13784	2527.168192831885	20
0	13785	2527.259294129347	19
0	13790	2527.365359603275	18
0	13798	2528.432701430527	19
0	13799	2528.445399078229	18
0	13803	2528.921599731987	19
0	13807	2530.536097638877	20
0	13809	2530.574833569085	19
0	13815	2531.031064803834	20
0	13816	2531.055336198999	19
0	13825	2531.835827741726	18
0	13832	2533.098979728802	17
0	13836	2533.380458793831	18
0	13842	2533.778905158806	19
0	13848	2534.696003986216	18
0	13854	2535.100707522063	19
0	13857	2535.724363252655	20
0	13859	2536.319400621128	21
0	13861	2536.881357270739	22
0	13862	2537.448868026983	21
0	13867	2538.288363478679	20
0	13873	2539.652425224219	21
0	13874	2540.943838517687	20
0	13880	2541.080093069435	21
0	13887	2542.461184881816	20
0	13891	2542.485010700786	21
0	13894	2543.229678401744	20
0	13898	2543.550582316868	21
0	13904	2544.084552692624	22
0	13908	2545.031316914368	23
0	13909	2545.443057017435	22
0	13913	2545.818042520708	23
0	13920	2547.762112168766	22
0	13924	2547.790423451927	23
0	13928	2548.914037872066	24
0	13932	2550.828421335385	25
0	13933	2551.475665107907	24
0	13938	2552.425714645666	23
0	13945	2553.620631737682	22
0	13949	2554.112238509269	23
0	13958	2555.747289081824	22
0	13965	2556.518482911425	23
0	13967	2556.706449936717	24
0	13969	2556.775545950467	25
0	13970	2557.061263346434	24
0	13975	2557.083565573177	23
0	13980	2559.280785014221	22
0	13984	2559.467484461274	23
0	13989	2561.647420150422	22
0	13997	2563.352968886445	21
0	14003	2563.528441005719	22
0	14004	2563.932079632877	21
0	14008	2565.221858996367	22
0	14012	2565.599767479914	23
0	14014	2565.901236969717	24
0	14017	2567.985441696057	23
0	14021	2568.710980304771	24
0	14023	2569.900787638346	25
0	14027	2570.174293706271	26
0	14028	2570.892283495434	25
0	14034	2572.974430949475	26
0	14037	2573.969957590507	25
0	14044	2575.759461499663	24
0	14052	2576.411964052374	25
0	14053	2576.483740277911	24
0	14061	2579.612638770093	23
0	14066	2580.184567533793	22
0	14070	2581.955987414585	23
0	14080	2584.376694805658	22
0	14085	2584.486142367794	21
0	14090	2585.292815988404	20
0	14094	2585.380325124434	21
0	14097	2586.030436608673	20
0	14102	2586.985523581699	19
0	14107	2587.802271345148	18
0	14114	2588.953753411369	17
0	14121	2589.505458052886	16
0	14131	2592.548351825237	15
0	14137	2592.785668434884	14
0	14144	2593.000242693869	15
0	14146	2593.216301900106	16
0	14150	2594.048574248527	15
0	14155	2594.712911816039	14
0	14160	2594.782244998355	13
0	14169	2595.154881377875	14
0	14172	2597.260161771575	15
0	14173	2597.623927206635	14
0	14178	2598.035893329448	13
0	14183	2598.397132815269	12
0	14188	2599.676062496514	11
0	14195	2600.208364390822	10
0	14200	2600.65925990053	9
0	14206	2601.205498033433	10
0	14209	2601.470827055406	9
0	14213	2601.515132186761	10
0	14216	2601.9796789569	9
0	14221	2603.365722606379	8
0	14225	2603.44697563418	9
0	14229	2603.53396692387	10
0	14230	2604.06854976481	9
0	14235	2604.831665478522	8
0	14239	2605.412152412465	9
0	14241	2605.520079959359	10
0	14243	2605.856581085134	11
0	14246	2606.429845448964	10
0	14252	2607.471934723625	9
0	14257	2607.515289963018	8
0	14263	2608.164452565068	9
0	14265	2608.689710296579	8
0	14271	2608.809518563236	9
0	14272	2610.041203956805	8
0	14276	2611.197565439969	9
0	14279	2612.685198849877	8
0	14288	2614.508203467631	9
0	14289	2614.627184679768	8
0	14294	2614.94542540835	7
0	14300	2615.501525562058	6
0	14305	2615.645424822829	5
0	14311	2617.916692954386	4
0	14318	2618.350747833297	5
0	14320	2618.648586944532	6
0	14323	2618.909913842395	5
0	14328	2618.923358155737	4
0	14334	2620.005723491146	5
0	14335	2620.236347694442	4
0	14343	2621.296667742658	3
0	14349	2621.707249455561	4
0	14353	2623.273279954198	5
0	14354	2623.324780811336	4
0	14359	2623.340878781625	3
0	14366	2624.530103585454	4
0	14367	2624.928371882473	3
0	14373	2625.059343109704	2
0	14378	2625.292203209061	1
0	14382	2626.276560454487	2
0	14385	2627.072638429595	1
0	14390	2629.296675944815	0
0	14416	2634.746929074861	1
0	14421	2635.983716067572	2
0	14426	2637.61615874543	1
0	14433	2639.55000758619	0
0	14469	2643.425688413904	1
0	14473	2644.121168940832	2
0	14475	2646.204327191436	1
0	14481	2646.565665400016	2
0	14483	2647.003841678764	3
0	14484	2647.395624750335	2
0	14491	2648.286160478528	3
0	14494	2648.502126106055	4
0	14498	2649.001172849324	5
0	14500	2649.468044515107	6
0	14502	2649.862047621364	7
0	14503	2651.645700035668	6
0	14509	2651.70659965164	7
0	14512	2652.331836940767	8
0	14514	2653.57700431319	9
0	14515	2653.79041195221	8
0	14521	2653.868340230766	9
0	14523	2654.034962362968	10
0	14524	2654.189247175149	9
0	14529	2654.26171264422	8
0	14536	2655.801911164792	7
0	14540	2655.802056237681	8
0	14544	2657.615060189329	9
0	14545	2658.14491565846	8
0	14550	2658.542293177615	7
0	14558	2662.197765411905	8
0	14559	2662.215846834786	7
0	14566	2663.261809115761	8
0	14567	2663.464349986133	7
0	14574	2664.62691967956	6
0	14578	2664.978219262942	7
0	14583	2667.07952324717	6
0	14589	2667.889978634985	5
0	14594	2668.736317846574	4
0	14599	2669.283950970405	3
0	14603	2670.920273961034	4
0	14605	2671.167993579428	5
0	14607	2671.935365389792	6
0	14611	2672.680663543301	7
0	14612	2673.284897936891	6
0	14617	2674.493850777942	5
0	14624	2675.893560075774	4
0	14629	2677.088401872595	3
0	14634	2680.198994141579	2
0	14640	2681.123748707627	3
0	14642	2681.655267386882	2
0	14648	2682.041411094682	1
0	14654	2683.584915840449	2
0	14655	2683.883101138835	1
0	14659	2684.057981453165	2
0	14663	2688.275864777355	3
0	14670	2690.105133657187	2
0	14676	2690.627827788203	3
0	14681	2694.06710404917	2
0	14690	2696.900017403099	1
0	14696	2697.194234717519	2
0	14697	2697.262973025923	1
0	14702	2697.748122222412	0
0	14706	2698.829143159022	1
0	14710	2700.169966014007	2
0	14713	2701.323817369426	3
0	14714	2701.812786695502	2
0	14720	2701.814745641832	3
0	14721	2701.899664240207	2
0	14728	2703.821556464895	1
0	14733	2703.842903129552	0
0	14765	2706.371787073538	1
0	14768	2707.073516315938	0
0	14780	2709.762221435995	1
0	14781	2710.212626652381	0
0	14804	2712.157879835805	1
0	14805	2712.281610481326	0
0	14841	2719.996719557968	1
0	14844	2721.072212746462	0
0	14850	2721.095690439424	1
0	14853	2721.869754324659	2
0	14854	2722.040841182538	1
0	14861	2722.514560773334	2
0	14862	2722.957088925133	1
0	14871	2723.373730663838	0
0	14921	2730.228763820787	1
0	14927	2731.083631332516	2
0	14929	2731.43963313549	3
0	14932	2734.385510647679	2
0	14940	2735.261510683853	3
0	14941	2735.631450749086	2
0	14949	2736.664200479181	3
0	14950	2737.576927974648	2
0	14955	2737.637336587058	1
0	14961	2737.756080332727	2
0	14962	2738.223474080904	1
0	14968	2738.578361000553	0
0	14972	2738.721553239553	1
0	14980	2741.45440294541	2
0	14981	2741.632494936882	1
0	14986	2741.800723374784	0
0	15011	2745.435179955043	1
0	15012	2745.726532749613	0
0	15023	2746.032465553335	1
0	15025	2746.121074764333	2
0	15028	2746.477341195762	1
0	15032	2746.845057274859	2
0	15034	2747.0687472464	3
0	15039	2748.251829163735	4
0	15041	2748.255550151217	5
0	15042	2748.35963219248	4
0	15048	2750.816555804555	3
0	15053	2751.022634273515	2
0	15066	2753.913852916004	3
0	15068	2754.382894526788	4
0	15070	2754.791907820774	3
0	15075	2755.188424687224	2
0	15081	2755.704195636927	1
0	15087	2756.148554641676	2
0	15090	2757.462392590763	1
0	15095	2758.525076001636	0
0	15134	2768.591029128151	1
0	15136	2768.855348359794	2
0	15138	2768.937837369885	3
0	15139	2768.970999740534	2
0	15145	2769.301130504616	1
0	15151	2769.67038134672	2
0	15153	2770.713480759983	1
0	15158	2771.233685823819	0
0	15189	2774.746632476996	1
0	15191	2775.671251724302	2
0	15193	2776.525793826843	3
0	15197	2777.894190438658	2
0	15202	2778.056739884268	1
0	15210	2779.09142807756	0
0	15227	2781.237419232009	1
0	15228	2781.805982856221	0
0	15235	2782.483065286939	1
0	15236	2782.661229316749	0
0	15262	2787.023842124843	1
0	15266	2788.004013593734	2
0	15268	2788.570518321712	1
0	15273	2788.62447112083	0
0	15296	2792.53870886272	1
0	15299	2793.413880739346	0
0	15308	2793.968335848089	1
0	15311	2794.707138478227	0
0	15321	2797.205035573398	1
0	15323	2797.324159207014	2
0	15326	2799.542151661527	1
0	15332	2799.82280949117	2
0	15333	2800.091334692615	1
0	15338	2800.191071505853	0
0	15345	2802.110174724248	1
0	15347	2802.11821880174	2
0	15348	2802.455479212327	1
0	15356	2803.005067276329	2
0	15357	2803.471776886088	1
0	15362	2803.820866657181	0
0	15384	2806.154640622481	1
0	15386	2806.405457802787	0
0	15415	2810.38600116442	1
0	15417	2811.060159407919	2
0	15418	2812.502460198527	1
0	15424	2813.369333930641	0
0	15436	2814.466444348723	1
0	15437	2814.63617875946	0
0	15475	2818.244843045207	1
0	15477	2818.63969600241	0
0	15486	2819.573070802802	1
0	15489	2822.262857249517	0
0	15513	2826.353832790247	1
0	15517	2827.727202474754	2
0	15520	2829.028728331711	1
0	15525	2829.381998420502	0
0	15544	2831.712218143286	1
0	15546	2831.9499623205	0
0	15583	2835.402897367341	1
0	15584	2836.272625963614	0
0	15597	2836.982585030537	1
0	15598	2837.494259900234	0
0	15604	2837.960681680294	1
0	15606	2838.433505551444	2
0	15608	2838.851023777614	3
0	15609	2838.971419674322	2
0	15615	2839.619830629926	1
0	15619	2841.882395962242	2
0	15622	2842.9944282104	1
0	15627	2843.638443547471	0
0	15631	2843.813412612366	1
0	15637	2845.449583822711	0
0	15648	2847.346488413334	1
0	15651	2847.486573862618	2
0	15655	2847.824930372794	1
0	15660	2848.281022439105	0
0	15695	2853.369107082065	1
0	15696	2853.731407364476	0
0	15726	2858.468696970987	1
0	15728	2859.152455170203	2
0	15732	2859.841165316751	1
0	15737	2860.156830396799	0
0	15757	2862.717328834444	1
0	15768	2864.736089626508	2
0	15769	2865.385387523735	1
0	15774	2865.962956284797	0
0	15780	2866.34259828441	1
0	15781	2866.427050060056	0
0	15799	2868.366518328909	1
0	15801	2869.206734632478	0
0	15807	2869.521246025965	1
0	15813	2871.413894173835	0
0	15835	2872.504423129643	1
0	15837	2872.561733507576	2
0	15838	2873.266945248954	1
0	15844	2874.510040788391	0
0	15857	2876.594159946171	1
0	15860	2877.592965463032	2
0	15861	2877.837498773158	1
0	15866	2878.292767894607	0
0	15873	2878.839655129644	1
0	15875	2879.348073284035	0
0	15892	2880.006011127183	1
0	15896	2880.451204776443	2
0	15897	2880.578390609311	1
0	15903	2880.751519293363	0
0	15915	2881.839608951505	1
0	15917	2881.859093616239	2
0	15918	2882.405610149894	1
0	15924	2883.092100891277	2
0	15926	2883.796084157313	1
0	15931	2884.368786849585	0
0	15935	2884.848362380719	1
0	15940	2886.668832577617	0
0	15948	2887.961729805154	1
0	15951	2888.392332396966	0
0	15957	2889.095873998286	1
0	15959	2889.330026472832	2
0	15962	2890.743923010876	1
0	15967	2891.044667695393	0
0	15971	2891.475055155095	1
0	15975	2892.000680249454	2
0	15977	2892.652821483597	1
0	15983	2894.091032624278	2
0	15985	2894.61296288549	3
0	15987	2894.617600236519	4
0	15992	2895.884202858187	3
0	16001	2896.081261630522	2
0	16006	2896.112356353616	1
0	16012	2899.145663963233	2
0	16014	2899.389947279821	3
0	16016	2900.335985064001	4
0	16018	2900.682116739895	5
0	16020	2901.962982977784	6
0	16023	2902.296767783654	5
0	16028	2902.872414967033	4
0	16033	2903.688303423653	3
0	16040	2904.871111881014	2
0	16046	2908.689326498842	3
0	16047	2909.968070490498	2
0	16052	2911.250976532772	1
0	16059	2913.969933253677	0
0	16067	2915.048513611414	1
0	16069	2915.344074874775	2
0	16071	2915.434750547098	3
0	16073	2916.688661763017	4
0	16077	2917.384500443834	5
0	16078	2917.482055605644	4
0	16085	2919.43974391113	3
0	16089	2919.799089753801	4
0	16091	2920.064356083526	5
0	16094	2920.746126681724	4
0	16103	2924.719779639841	3
0	16107	2924.747076473802	4
0	16111	2926.507486700446	5
0	16116	2928.15764212718	4
0	16120	2929.069075050614	5
0	16123	2929.328573530694	4
0	16127	2930.094855887324	5
0	16130	2932.852760728835	4
0	16137	2934.655761448441	3
0	16142	2936.008627771769	2
0	16153	2937.984936618598	1
0	16157	2938.03313488481	2
0	16161	2938.654032244639	3
0	16163	2938.828496124174	4
0	16165	2939.220157571047	5
0	16167	2939.355282439265	6
0	16168	2939.843842434434	5
0	16175	2942.168595877852	4
0	16180	2942.178350301211	3
0	16186	2942.232294700584	4
0	16187	2942.41984835786	3
0	16192	2944.420611691897	2
0	16197	2944.819997364731	1
0	16201	2944.909952574245	2
0	16203	2945.148886994511	3
0	16206	2945.451767062359	2
0	16211	2946.232561451195	1
0	16218	2946.822245476741	0
0	16224	2947.520728208163	1
0	16226	2948.248490512691	2
0	16230	2948.8941709583	1
0	16238	2950.410111193413	0
0	16246	2950.681302074065	1
0	16247	2950.789385616626	0
0	16273	2954.855331306281	1
0	16274	2955.309240826883	0
0	16286	2957.775897222621	1
0	16292	2959.516833781566	0
0	16303	2959.869199432841	1
0	16304	2959.976739012909	0
0	16310	2960.056794174111	1
0	16313	2960.697460845297	2
0	16315	2960.730239328772	3
0	16317	2960.829832465104	2
0	16322	2960.856787174104	1
0	16327	2961.304970097348	0
0	16339	2962.314564215311	1
0	16341	2962.322675635767	2
0	16342	2963.76830073801	1
0	16346	2963.770958413758	2
0	16353	2964.652851977868	1
0	16358	2964.770736156055	0
0	16370	2966.120159125546	1
0	16372	2966.248713443034	0
0	16385	2967.132442058037	1
0	16386	2967.271093906862	0
0	16392	2967.843264895324	1
0	16393	2968.004280541255	0
0	16449	2978.092231213026	1
0	16457	2979.515065834719	0
0	16467	2981.201668018256	1
0	16469	2981.476314968426	2
0	16473	2984.409310214715	3
0	16476	2984.651962816184	4
0	16478	2985.39481086253	3
0	16484	2986.226717756755	2
0	16490	2986.805577120687	1
0	16496	2987.269007065487	0
0	16511	2990.159608350692	1
0	16514	2991.470803637606	0
0	16526	2992.357615487531	1
0	16529	2994.055780670894	0
0	16557	2997.161600926755	1
0	16560	3000.769967843618	0
0	16566	3001.388616103953	1
0	16571	3002.888470727614	0
0	16582	3003.344031142721	1
[...]
4	156765	28247.899869467957	3393.1447311904
4	156772	28248.235688429168	3391.2732981317
4	156852	28261.940145860104	3402.2225471982
4	156865	28264.794283649905	3397.5324122948
4	156899	28268.939918542454	3400.0125819705
4	156927	28274.978922451479	3400.9408632712
4	156988	28285.570456913713	3410.4068269652
4	156993	28286.206032151338	3406.0450226381
4	157000	28286.611000753449	3405.6473125889
4	157015	28287.770384517201	3398.6894863284
4	157020	28288.107196937295	3398.7932570039
4	157029	28289.394226969592	3399.2892006358
4	157045	28291.071701445891	3399.813817677
4	157074	28297.82668231641	3404.8813614522
4	157143	28311.180340679167	3418.1339630646
4	157160	28312.751654842864	3404.1987787186
4	157169	28314.972137518148	3404.2683009988
4	157180	28315.752066815315	3394.9641527693
4	157185	28315.978926134905	3394.0240078091
4	157198	28317.16094218718	3390.7842943682
4	157240	28327.26195705565	3398.9207193759
4	157249	28328.319252422267	3390.1355745244
4	157303	28343.678371617917	3398.6893771214
4	157320	28348.597687935821	3402.2258959169
4	157332	28350.954496946752	3402.7175855512
4	157348	28353.505734769246	3405.0650801782
4	157357	28353.904468669375	3399.0455525991
4	157362	28354.879669696408	3399.2013677363
4	157369	28355.471054486658	3390.2624450361
4	157375	28355.774526435517	3377.6201062042
4	157382	28356.761360253073	3368.8328316126
4	157387	28357.292577710434	3360.987429677
4	157407	28363.049261699546	3366.3358302083
4	157532	28380.901652250142	3384.1678030753
4	157560	28387.872772851668	3388.7784408367
4	157570	28390.039057702073	3389.2775922871
4	157597	28393.108270661734	3390.579880563
4	157620	28397.134713007494	3386.5108107262
4	157630	28398.048106961523	3375.4221064188
4	157635	28398.349317009813	3368.9534906245
4	157645	28399.976440945498	3369.2288732774
4	157699	28410.256911633057	3372.8615942904
4	157705	28410.934305616126	3372.2097873084
4	157712	28411.672890454352	3372.486738583
4	157722	28412.048895273769	3360.3696108008
4	157730	28414.070868557846	3361.1585982278
4	157749	28416.045148858406	3362.6543871292
4	157754	28416.066592030397	3360.7427966937
4	157761	28417.909580340148	3359.4198476067
4	157834	28428.63606613609	3366.1285668884
4	157844	28428.851032088061	3362.6676872922
4	157851	28429.569921304309	3357.1096994648
4	157863	28430.959534333148	3353.4604604671
4	157877	28433.382185347385	3355.2952907322
4	158019	28457.768066387871	3373.3784010765
4	158032	28458.869479299971	3366.2605768458
4	158037	28459.537364946829	3357.6069113544
4	158044	28460.751708114845	3358.2172828067
4	158053	28462.82884044202	3359.5971120446
4	158072	28465.999490223014	3352.4116876306
4	158085	28467.839901856944	3342.7965461112
4	158110	28470.413898955442	3343.6389407855
4	158115	28470.847681463898	3343.8993790669
4	158122	28471.323953443214	3336.4342327155
4	158134	28475.166548554437	3335.5597688521
4	158149	28476.425494168499	3331.2052143646
4	158154	28476.801428478719	3321.711796221
4	158159	28476.822032370521	3321.6883098505
4	158168	28480.98469456521	3321.981652591
4	158183	28483.794015820643	3323.8458352643
4	158203	28485.888913938258	3323.9940146045
4	158214	28486.622763471145	3319.2009103569
4	158223	28489.025325354011	3315.1971627634
4	158250	28493.220449498506	3313.1344083522
4	158263	28495.845709903742	3312.1537393893
4	158286	28498.72738751324	3310.8809867294
4	158298	28500.475232319494	3309.6659318535
4	158319	28502.786769080635	3310.0425687388
4	158324	28503.142108828739	3309.401225812
4	158329	28503.182440830494	3306.9411547116
4	158334	28503.478590618243	3307.0285436418
4	158343	28504.383568728953	3306.4496546095
4	158367	28507.406721094966	3303.3739976197
4	158400	28510.624286486104	3305.1674992795
4	158405	28511.183025582443	3294.4128180995
4	158415	28515.003732222719	3296.8242005766
4	158425	28515.1414209687	3289.9930136833
4	158430	28515.223414415835	3286.1281254143
4	158442	28519.65323114357	3283.1275935896
4	158457	28521.983988719683	3285.1628694557
4	158464	28522.719434665796	3274.6781689689
4	158478	28524.605174854538	3274.1360603744
4	158483	28525.545261466649	3272.7544414303
4	158488	28525.844103983774	3271.7471936318
4	158493	28526.40091984826	3264.0126801016
4	158508	28532.36110676159	3268.0994264845
4	158527	28535.575061034841	3267.3136594169
4	158540	28537.94173512107	3260.7832857873
4	158548	28539.473647071924	3262.0119399464
4	158562	28541.648434766571	3262.2556097752
4	158568	28541.693226180905	3254.6246607978
4	158574	28542.255705325864	3254.1656274684
4	158585	28544.493226717129	3254.538115883
4	158602	28546.077611000677	3246.8903559514
4	158611	28547.328638420739	3243.1002689704
4	158624	28548.941427259493	3239.425909542
4	158631	28549.11277490314	3237.5112870456
4	158646	28555.641896839267	3241.6393941475
4	158728	28565.56025827331	3251.1199809228
4	158733	28565.685040405165	3247.8181899457
4	158745	28567.760800168407	3247.7160082217
4	158855	28587.257644772676	3264.9986950582
4	158865	28587.879317527717	3261.7909953824
4	158879	28588.672514513468	3261.9265339158
4	158886	28588.813447461185	3259.3610642228
4	158897	28589.855159645701	3259.0501720058
4	158903	28590.639726674386	3258.2791437498
4	158909	28591.391310875383	3252.4581338927
4	158915	28592.056043998869	3248.3078283159
4	158923	28593.748190350147	3239.8288537668
4	158928	28595.076906892091	3239.1220446317
4	158933	28595.446322151031	3238.7526873377
4	158938	28596.742026701769	3239.2953528611
4	158947	28598.112334810273	3235.9487339084
4	158959	28599.871191250402	3237.1055639249
4	158969	28600.391819361527	3229.2426327533
4	158980	28602.37412953335	3229.8697135032
4	159069	28621.856676086164	3248.7949687796
4	159077	28623.148861343395	3246.5452448828
4	159088	28624.569430277179	3247.6935171205
4	159095	28624.647625255668	3246.411972294
4	159120	28629.743867184409	3251.0917227593
4	159125	28630.417707537809	3236.10236538
4	159140	28634.147873107718	3238.7836957056
4	159157	28634.924217304473	3224.7075790625
4	159166	28636.404882823355	3204.8242721756
4	159179	28639.441650760292	3197.3664195228
4	159186	28640.38748186627	3196.766949199
4	159193	28641.818508980102	3191.5597435529
4	159198	28643.137729142197	3192.6287024984
4	159209	28645.748591067518	3178.1920626565
4	159229	28648.908838630773	3179.8572994067
4	159281	28653.491543573477	3183.2344512163
4	159286	28653.703746257232	3182.8813148427
4	159291	28654.302951395659	3181.602500384
4	159298	28657.378550701131	3177.4225942836
4	159323	28664.883637048496	3168.1196957076
4	159386	28672.547177898097	3163.4920663886
4	159391	28672.649545453896	3156.3256528042
4	159403	28678.927090315325	3159.5087922792
4	159416	28679.996968881381	3159.4092851688
4	159462	28690.010281657516	3167.5496958163
4	159510	28697.553688600947	3168.7241820762
4	159548	28705.158354324436	3173.653053309
4	159580	28708.853253949411	3176.4345224186
4	159590	28709.195670421781	3176.4099567841
4	159600	28710.851370059562	3175.5634874649
4	159682	28721.885861610492	3183.4074222497
4	159702	28726.803517794628	3185.7953994831
4	159709	28727.95751479207	3182.1406890014
4	159722	28728.845667117873	3180.1239410198
4	159770	28735.090389588185	3184.1381873191
4	159779	28736.432444401056	3183.2550636606
4	159786	28737.06663686087	3182.2493959162
4	159796	28739.532954396283	3183.758745301
4	159811	28741.615574367082	3179.8323772867
4	159829	28744.558891169894	3181.6154690009
4	159840	28745.835813626161	3181.3316314325
4	159846	28746.028125744418	3180.3734718209
4	159851	28746.08542480907	3179.6115194317
4	159869	28747.933233919339	3180.0770958921
4	160573	28891.925178906681	3323.7358842494
4	160578	28892.172536212736	3320.9618752037
4	160586	28892.959284828823	3321.3008945828
4	160596	28893.719680692279	3321.1833373304
4	160606	28897.519099213003	3320.1493071604
4	160623	28899.106260767165	3315.2001714597
4	160659	28905.054622771162	3307.1577730614
4	160806	28933.634958938088	3329.0742409741
4	160820	28936.009968372567	3328.1012481645
4	160838	28939.904955878983	3329.8441216307
4	160856	28942.218613613451	3330.27393285
4	160896	28949.643813866608	3332.6510466357
4	160908	28950.414641903175	3329.6983962603
4	160927	28953.05998742234	3331.7545290611
4	160952	28957.297627318493	3332.2512380092
4	160988	28962.614723988631	3336.5324270762
4	161030	28967.748898917098	3339.6842871088
4	161043	28971.617423618171	3342.4679528745
4	161059	28973.286018113477	3343.701347349
4	161068	28974.957377590172	3338.3618711814
4	161081	28978.572006285696	3339.7040477673
4	161108	28982.098908413502	3340.7919050336
4	161113	28982.205102479914	3338.1715207147
4	161129	28988.567149805152	3343.0040845657
4	161179	28999.290361613097	3351.7296644712
4	161187	29002.644467157361	3354.5481047725
4	161309	29031.872120310812	3375.8744422521
4	161317	29032.82021731714	3370.6280250009
4	161327	29034.104325104305	3367.0309474308
4	161332	29036.068417400792	3364.2797678352
4	161343	29037.49495079109	3365.0109725758
4	161378	29040.472756676678	3365.778166909
4	161389	29044.489283704474	3364.981592176
4	161406	29047.084381077352	3364.5916086386
4	161441	29052.038243793294	3356.5519181366
4	161464	29055.125925622439	3354.9307439715
4	161472	29056.634231771782	3356.1630549361
4	161501	29060.645966167136	3358.5937864034
4	161507	29062.094310150601	3354.3532897226
4	161512	29062.126587660521	3351.3946065119
4	161520	29065.609961285984	3350.3406802424
4	161531	29067.339504670297	3349.0041633907
4	161537	29068.964523903828	3348.9860833993
4	161542	29069.201690630683	3348.7160670667
4	161557	29073.370878231091	3351.3396040707
4	161598	29078.807210384552	3353.7463634542
4	161611	29081.216470206567	3349.3170925383
4	161694	29094.551026930539	3357.73591196
4	161699	29094.667602695762	3357.7473496518
4	161706	29095.458162967605	3356.3462415642
4	161722	29099.183451372366	3353.5981499411
4	161730	29100.617322726767	3350.8081534814
4	161736	29101.040648817269	3350.8650532847
4	161741	29102.174507606681	3351.2659722571
4	161750	29104.991622304097	3352.2766003013
4	161772	29108.255217078009	3354.1971793828
4	161785	29109.84622583868	3355.4363643718
4	161903	29136.622092404853	3377.0167238048
4	161921	29139.368100791609	3378.2024375106
4	161951	29141.889722945033	3380.1779399936
4	161956	29141.954767867034	3376.8211393685
4	161964	29143.331035518156	3376.570653766
4	161969	29143.431646794409	3371.6911882349
4	161977	29145.138984177902	3373.0994629222
4	161982	29146.45984412867	3365.9636138359
4	162001	29149.246329224766	3359.8529648924
4	162075	29158.393352150615	3366.1393306446
4	162082	29159.654200426045	3362.1724033244
4	162122	29163.150486908575	3362.9700327085
4	162140	29164.618523363769	3362.9176581641
4	162153	29168.281961756253	3354.4305158144
4	162192	29172.358935554177	3356.3446870078
4	162197	29172.756524038044	3348.107563587
4	162202	29172.837457196403	3347.8530470839
4	162207	29173.726570662932	3347.4671833272
4	162212	29173.962791932882	3345.4840656799
4	162225	29176.184224785301	3345.9864374046
4	162248	29177.047828297359	3343.111526331
4	162253	29177.764691887234	3341.3612069422
4	162261	29178.390051425694	3335.7322890442
4	162318	29187.122178967095	3342.7221358751
4	162330	29189.899730578134	3344.1790987542
4	162340	29190.941102676483	3344.0031867562
4	162368	29194.019160462823	3346.6879326
4	162373	29194.071529965456	3343.9731314819
4	162379	29195.472154515327	3336.1662441143
4	162391	29196.20923900406	3331.8179996264
4	162418	29200.904218549043	3334.1848487953
4	162441	29204.649173515951	3333.2905095172
4	162446	29204.655120702577	3330.0499759023
4	162457	29205.430700704012	3330.0417383649
4	162469	29206.505398045116	3330.4334927203
4	162487	29209.84345487945	3323.4653325181
4	162492	29209.915032529911	3319.820599131
4	162503	29211.60271246899	3317.7089007629
4	162533	29213.638954214371	3319.5540605716
4	162539	29214.104250406358	3308.7802901835
4	162544	29214.149158077082	3304.3115562797
4	162550	29214.779296784574	3304.7791227788
4	162555	29215.827364081798	3303.347638445
4	162575	29224.79378574574	3310.0900062067
4	162675	29244.318871235236	3327.8783911783
4	162701	29249.642707256824	3328.2129501251
4	162707	29250.033890856888	3322.445710071
4	162717	29252.22992998353	3321.9883175831
4	162734	29256.668487629841	3310.9248702479
4	162739	29257.213590484932	3306.1586570376
4	162749	29257.633485734388	3305.5693720975
4	162769	29259.567061790339	3303.5829139899
4	162778	29262.202799807792	3305.1002402172
4	162800	29269.303799054126	3311.7648766212
4	162977	29299.07634113818	3341.3772704516
4	162983	29300.681494700373	3340.9476959627
4	162988	29300.837805715866	3332.0036754303
4	162997	29301.387782853777	3330.6984600036
4	163006	29303.132369744007	3328.1617003461
4	163011	29303.366685834463	3326.8457108198
4	163016	29303.482552032525	3321.2096831464
4	163027	29308.662744474335	3317.4100549016
4	163050	29312.946812312565	3319.8224919883
4	163060	29313.677118709962	3311.2168486173
4	163081	29318.050644271684	3313.8036020107
4	163105	29319.920251861356	3315.2591245726
4	163117	29320.361319386021	3312.2019360238
4	163128	29322.29418216659	3312.072072521
4	163138	29323.591361962531	3311.6905163917
4	163152	29325.097554945079	3309.602051073
4	163173	29331.180031917699	3314.949202745
4	163188	29332.613359763055	3309.0777382421
4	163207	29336.39971344367	3308.5876837772
4	163213	29337.158423455067	3305.4377572205
4	163220	29339.349943412041	3306.8505807873
4	163232	29340.936191862971	3307.7936184444
4	163305	29356.211913168086	3322.5261418691
4	163322	29359.01375669394	3323.0506491377
4	163332	29361.149430222117	3322.2737126189
4	163385	29371.174827484432	3331.3828602322
4	163390	29371.270287730631	3330.1768074628
4	163397	29372.873291773665	3329.651822354
4	163405	29374.671846582492	3329.2669994007
4	163448	29380.814802400239	3331.6569258077
4	163453	29380.841364708093	3321.8315221853
4	163468	29383.157170809025	3299.8888465332
4	163518	29394.677764006671	3296.5395032455
4	163527	29398.644227420931	3299.4361161549
4	163548	29402.555640384826	3301.0352963233
4	163553	29404.817004512038	3299.928857523
4	163564	29407.916791042449	3298.2162300476
4	163585	29412.549615298428	3297.4168248161
4	163598	29413.624897843511	3295.3672569555
4	163607	29414.452492557816	3294.3244461404
4	163635	29419.833549438783	3295.5088125255
4	163640	29420.214724930489	3269.1772439747
4	163645	29420.323930516808	3267.3298325563
4	163654	29423.036468577828	3264.9920738845
4	163691	29431.211318550219	3273.130985796
4	163705	29432.784783044738	3270.6371259452
4	163714	29433.839794401057	3269.6198640035
4	163753	29438.070813266271	3268.4795633973
4	163761	29439.232476263118	3262.7784596389
4	163792	29446.064464064878	3267.8714885571
4	163801	29447.479036447841	3259.8545620819
4	163895	29465.558675605448	3274.327866576
4	163905	29466.213001879591	3269.0676564913
4	163915	29468.86141764178	3269.8484950005
4	163926	29469.308753393259	3269.8947715863
4	163932	29469.748160746196	3269.1556644169
4	163948	29473.283544017505	3271.681669802
4	164007	29483.474931281675	3280.9721566456
4	164012	29483.718791774462	3279.1520196607
4	164020	29484.154568957702	3279.4509369412
4	164032	29486.981375923507	3266.1194107862
4	164037	29487.273924835458	3264.7434996715
4	164042	29488.122866025675	3254.642982101
4	164048	29489.425819516815	3254.8777080143
4	164053	29490.000725412393	3252.825522788
4	164064	29492.345938704615	3255.1417765947
4	164200	29516.475778349836	3278.1575191041
4	164221	29519.275690632427	3279.9333709463
4	164226	29519.373805309119	3277.1160672863
4	164236	29520.782034806891	3272.6946121192
4	164251	29523.550172774214	3273.1910978637
4	164270	29528.193809053558	3270.2726322972
4	164280	29529.309510291522	3269.83863402
4	164285	29529.338311071415	3268.9823073094
4	164293	29530.530410129871	3269.2373237489
4	164303	29532.271867124853	3269.2310913949
4	164315	29533.536887166991	3270.372346952
4	164359	29541.822830958715	3276.9849713743
4	164376	29544.377929887991	3278.2012869362
4	164386	29546.094519173281	3275.0597417781
4	164399	29548.217786497072	3275.6489242749
4	164418	29549.740954255328	3275.8222784621
4	164508	29566.208463077393	3290.9043490275
4	164519	29567.094483482084	3291.1950855364
4	164529	29569.83422301247	3293.0817211619
4	164538	29572.869031935443	3294.5443039496
4	164551	29573.731610768574	3292.2235783308
4	164559	29574.808186030021	3291.9729101639
4	164574	29576.652651663388	3292.8609997979
4	164594	29580.823576215039	3295.5038566502
4	164614	29584.571349860202	3295.9023145361
4	164650	29590.231089588458	3300.2467447118
4	164665	29591.835859080614	3297.8723817244
4	164842	29626.895475797949	3324.3513723786
4	164847	29627.048266034327	3317.7548237451
4	164855	29628.635235591484	3318.8117931742
4	164866	29629.545308699605	3319.4420278887
4	164871	29630.917435741839	3316.2531522448
4	164882	29632.527234216142	3304.3444152779
4	164919	29642.025555155039	3313.1468940222
4	164926	29643.382423586959	3311.3749278591
4	164941	29646.600306492117	3312.3698416477
4	164953	29648.953653549492	3312.3056445618
4	164996	29656.710467988943	3308.1338346354
4	165004	29657.889623834525	3307.5202668767
4	165032	29661.782195833097	3309.6546985967
4	165039	29662.981449303157	3309.9467632022
4	165044	29663.232565898911	3309.4590923469
4	165051	29665.16316611618	3303.4458134575
4	165102	29674.072278218121	3307.0193986842
4	165501	29776.071652917764	3408.271448477
4	165524	29777.82153516923	3408.9390011925
4	165531	29778.997665709255	3410.0032479968
4	165540	29779.778234379538	3404.1411409449
4	165579	29787.147516300829	3407.0924238749
4	165625	29794.073080641851	3413.4233418453
4	165669	29803.444718649561	3421.3200831247
4	165701	29812.104822183072	3428.6685759313
4	165734	29818.339396945149	3431.8026800422
4	165739	29818.369000950328	3429.3542545159
4	165744	29818.806856684253	3429.6725003035
4	165749	29819.24040074908	3424.3026516725
4	165758	29821.674402318671	3425.3896954159
4	165777	29824.841951544405	3423.341159352
4	165786	29824.991783866051	3419.1401865344
4	165806	29828.376430122822	3417.9569047237
4	165826	29831.946419123334	3417.9573700731
4	165842	29832.607248271562	3411.6936116708
4	165852	29833.084607271203	3409.2878414867
4	165866	29835.587911499254	3411.5839522108
4	165871	29835.62943869709	3410.6603860167
4	165876	29837.924708427598	3412.9146527322
4	165885	29839.968268714617	3414.112545562
4	165899	29843.106284707851	3415.8565991878
4	165966	29852.626971226829	3415.9635183576
4	165973	29855.239917770251	3415.4880040349
4	165994	29858.207566477954	3404.0679711331
4	165999	29858.430391891426	3402.7333676842
4	166004	29858.444024997105	3397.8111576789
4	166018	29862.261319130916	3396.5794932229
4	166083	29874.858692773058	3407.9503151716
4	166091	29876.441788586059	3407.9046485918
4	166098	29876.567823190213	3406.3736901739
4	166103	29877.11525917709	3406.3616419271
4	166116	29879.560377549433	3406.7438627491
4	166157	29886.112873563937	3411.0287431255
4	166172	29889.491022296193	3413.9679997989
4	166229	29902.887422356518	3423.9002336875
4	166276	29911.223330516788	3431.0379190572
4	166281	29911.323397971454	3429.1794948051
4	166290	29911.852131072408	3429.0447741734
4	166301	29913.1408050241	3422.7887238959
4	166310	29913.427653504636	3421.6401274935
4	166341	29922.465003083836	3426.6955376679
4	166367	29929.633226242314	3432.7456432415
4	166392	29933.758807807514	3429.3283359967
4	166401	29933.911049172671	3429.3040798814
4	166470	29947.635985804543	3442.7933139086
4	166540	29955.723362215466	3450.6778431199
4	166553	29957.17597017695	3451.2532022586
4	166560	29957.763589021409	3448.3080467859
4	166581	29959.372036176607	3446.0787783036
4	166607	29963.323742614301	3446.9020825251
4	166618	29965.182644982883	3445.5996038274
4	166627	29966.973755630789	3447.1565833564
4	166656	29972.092639598761	3448.2783248901
4	166665	29973.87489070967	3447.4207008456
4	166686	29979.601255685524	3450.6305651511
4	166693	29980.74955323753	3447.191220712
4	166698	29980.841453732846	3445.7884010825
4	166703	29980.904253537611	3445.3212848694
4	166712	29981.632867463341	3442.9440288607
4	166731	29983.828529660999	3442.9652488604
4	166740	29986.195528245743	3433.5124736767

