version 2
run First-n3-11-20191016-14:52:55-1912
attr configname First-n3
attr datetime 20191016-14:52:55
attr experiment First-n3
attr inifile omnetpp.ini
attr iterationvars ""
attr iterationvarsf ""
attr measurement ""
attr network org.omnetpp.queueing.Pizza
attr processid 1912
attr repetition 11
attr replication ""
attr resultdir results
attr runnumber 11
attr seedset 11
param **.PS.maxInventoriedPS 3
param **.U1.interArrivalTime exponential(2s)
param **.U2.interArrivalTime exponential(4s)
param **.PS.serviceTimeForInventoryU1 exponential(0.8s)
param **.PS.serviceTimeForInventoryU2 exponential(1.0s)
param **.PS.serviceTimeDirectU1 exponential(1.2s)
param **.PS.serviceTimeDirectU2 exponential(1.4s)
param **.PS.probabilityProducing 0.5
param **.CS.serviceTimeU1 exponential(0.8s)
param **.CS.serviceTimeU2 exponential(1.0s)

vector 0 Pizza.EntryQueueU1 queueLength:vector ETV
attr interpolationmode sample-hold
attr title "queue length, vector"
vector 1 Pizza.CS queueLength:vector ETV
attr interpolationmode sample-hold
attr title "queue length, vector"
vector 2 Pizza.EntryQueueU2 queueLength:vector ETV
attr interpolationmode sample-hold
attr title "queue length, vector"
vector 3 Pizza.sink lifeTime:vector ETV
attr interpolationmode none
attr title "lifetime of arrived jobs, vector"
attr unit s
vector 4 Pizza.sink lifeTimeU2:vector ETV
attr interpolationmode none
attr title "lifetime of arrived jobs, vector"
attr unit s
0	0	0	0
0	7	0.397559776347	1
0	9	0.82918977245	2
0	12	1.924040615244	1
0	21	3.410677649658	2
0	23	3.605489874977	3
0	25	4.534659223345	2
0	31	5.118339758079	1
0	36	5.262681591808	0
0	48	7.410359181033	1
0	50	7.754101433183	2
0	52	7.805043269295	3
0	58	10.650790573663	4
0	60	10.887594790891	5
0	61	11.353524261599	4
0	67	12.351379131909	3
0	73	13.574806216492	2
0	81	14.351577282477	1
0	86	14.408853832952	0
0	92	14.877857899092	1
0	95	16.128483621229	2
0	96	16.791205407895	1
0	101	17.010622977155	0
0	114	18.400533118504	1
0	116	18.475817916481	2
0	118	18.539013135895	1
0	124	18.621782265538	2
0	127	19.787916653489	1
0	132	20.295277256268	0
0	138	20.885277512983	1
0	140	20.989297017595	2
0	141	21.061005740234	1
0	145	21.886512663043	2
0	147	22.256323966474	3
0	151	22.867302254254	4
0	152	23.751540109805	3
0	158	24.138133534737	2
0	162	25.057467450431	3
0	164	25.77068022718	4
0	168	26.254322990227	5
0	169	28.419818953954	4
0	175	28.907867735977	5
0	178	29.263991840107	4
0	183	29.960211847812	3
0	187	30.301265118663	4
0	189	30.413194788866	5
0	193	32.527836501058	6
0	195	32.609882852783	7
0	196	33.028084894483	6
0	201	33.827834890681	5
0	207	34.665528136473	6
0	208	35.35925622017	5
0	214	36.501423793213	4
0	222	36.996657884354	3
0	227	37.75253858216	2
0	233	38.532594496628	1
0	238	38.96653481662	0
0	252	40.650336116528	1
0	256	41.177726449389	0
0	284	43.300456150904	1
0	288	44.895003528826	0
0	294	45.01441853064	1
0	299	46.167710846285	2
0	301	46.346892555703	3
0	302	46.569397658936	2
0	309	46.706384360886	3
0	310	47.557771246988	2
0	315	48.150861695493	1
0	323	49.006202680611	0
0	344	54.003261703219	1
0	348	54.3850375315	2
0	349	55.126578449107	1
0	354	55.677100355305	0
0	373	60.094056215569	1
0	377	61.216421489039	2
0	378	61.249257419097	1
0	385	61.61436172453	0
0	405	67.319874790708	1
0	408	68.537221517085	0
0	415	68.867939871084	1
0	417	68.868284405826	2
0	419	69.535736624111	1
0	424	69.660984312002	0
0	433	70.276592147045	1
0	435	70.350304347575	2
0	438	74.497195931426	1
0	443	75.14301455082	0
0	470	77.59749024685	1
0	472	79.457842695456	2
0	473	80.214244678579	1
0	479	80.668839976253	2
0	480	80.734708243009	1
0	485	80.900619719314	0
0	520	86.681836939602	1
0	522	87.22973193649	2
0	524	87.506307782927	1
0	529	87.774193114106	0
0	540	94.264529818688	1
0	544	95.468282169538	2
0	547	96.145880085194	1
0	555	97.266054624416	0
0	590	101.053219125379	1
0	592	101.135814584964	0
0	613	103.003677144302	1
0	616	103.586329790421	2
0	619	104.068668673992	1
0	624	104.19233044022	0
0	630	104.67005581792	1
0	631	104.99813641924	0
0	635	105.624506107922	1
0	638	105.828992104866	0
0	673	110.40620109386	1
0	676	110.924044639481	2
0	679	111.564434204743	3
0	680	112.221332285808	2
0	685	112.44999996729	1
0	693	113.588001926108	0
0	715	117.572417287506	1
0	721	119.591510680634	0
0	727	119.632004054198	1
0	732	122.272741215101	0
0	738	123.158699963204	1
0	741	124.115930367407	0
0	747	124.523366230513	1
0	748	124.864545426597	0
0	754	124.904101972691	1
0	757	126.227972251084	2
0	758	127.262380609239	1
0	763	127.36030639777	0
0	782	130.158358524682	1
0	784	130.554758904486	2
0	785	131.402041837496	1
0	791	131.938059330514	0
0	795	132.18277375486	1
0	801	136.606519515291	2
0	803	136.991784265162	3
0	804	137.058815483529	2
0	808	137.11393732822	3
0	811	138.114274031691	2
0	815	138.940297543933	3
0	817	139.248020284403	4
0	820	140.137987575562	3
0	828	142.710845064022	4
0	830	142.861519361507	5
0	832	143.015620530674	6
0	834	143.959895575056	7
0	837	145.367558121812	6
0	841	147.629580885199	7
0	844	147.914753786983	6
0	850	149.619419705119	7
0	851	149.868277784679	6
0	856	150.334133335875	5
0	860	151.844767440187	6
0	862	151.901517655741	7
0	866	152.271124331	8
0	867	152.871222904308	7
0	871	152.927734686263	8
0	875	153.479223116854	9
0	877	153.737164935892	10
0	882	155.930496903794	9
0	889	156.402724798667	10
0	890	156.81387894254	9
0	897	157.310432661594	8
0	903	158.277751726772	7
0	908	158.53864933538	6
0	916	159.53945565911	7
0	917	160.314526306217	6
0	924	160.480812682052	7
0	925	161.024231554148	6
0	931	161.080562564976	7
0	933	162.174067448398	6
0	938	162.273269346414	5
0	942	162.837852953868	6
0	944	163.08687703611	7
0	947	163.771312504092	6
0	953	164.942223767798	7
0	955	165.236943902746	8
0	957	166.604283822337	7
0	962	166.629093599586	6
0	966	168.267786890234	7
0	969	169.065316374826	6
0	973	169.521078040208	7
0	979	171.513133117251	8
0	981	171.636376763594	9
0	984	172.005372086288	10
0	985	172.221374889675	9
0	993	172.64098474368	10
0	998	173.041162476956	11
0	999	173.665731821485	10
0	1005	175.358604140894	9
0	1010	175.793873090394	8
0	1017	177.273250806771	7
0	1023	177.577143861397	8
0	1024	177.693217292202	7
0	1030	178.985597638749	8
0	1031	179.14647375763	7
0	1036	179.72214513882	6
0	1043	180.267873787064	7
0	1045	182.06524386032	8
0	1046	182.251430871487	7
0	1051	182.745396930998	6
0	1057	183.548591569378	7
0	1060	184.700152622499	8
0	1061	185.602580752414	7
0	1068	186.98691863193	6
0	1073	189.573981550263	5
0	1078	190.53892548561	4
0	1082	191.551027723633	5
0	1090	193.586207616263	4
0	1095	195.818978835545	3
0	1101	197.07511335194	2
0	1106	197.174189001066	1
0	1111	197.372608194517	0
0	1115	197.763686840273	1
0	1117	198.453578676718	2
0	1119	200.25966597927	3
0	1124	200.951787851538	2
0	1132	201.543492476322	3
0	1133	201.720776056712	2
0	1137	201.861450243554	3
0	1140	202.398223903965	2
0	1147	203.913259607898	1
0	1151	204.660771535598	2
0	1153	205.003972477748	3
0	1158	205.531352102189	2
0	1164	206.972070388012	3
0	1166	207.033763719913	4
0	1170	208.700039491701	3
0	1175	208.740858024901	2
0	1185	213.735450032939	3
0	1191	215.701183830669	4
0	1192	216.01412404082	3
0	1199	217.535517328717	2
0	1203	217.660379319834	3
0	1205	217.735576745485	4
0	1210	219.265121072281	5
0	1211	219.590128692769	4
0	1219	220.530356544506	5
0	1221	220.988593091932	4
0	1231	222.698967630512	3
0	1237	222.740864765374	4
0	1241	222.934700212536	5
0	1242	223.448014421712	4
0	1247	223.938042839563	3
0	1252	225.016240204116	2
0	1256	226.403774372376	3
0	1260	226.945116509276	2
0	1266	227.602679459409	3
0	1269	228.086356302405	4
0	1272	228.27754081363	3
0	1278	228.688788058725	2
0	1284	229.901584520073	3
0	1288	231.786176530611	4
0	1290	232.014615036485	5
0	1292	232.082262872296	6
0	1294	232.510053055941	7
0	1296	233.001457728489	8
0	1297	233.329593285374	7
0	1301	234.227351448992	8
0	1303	235.679343128691	9
0	1306	236.225902751753	8
0	1313	238.060059343107	7
0	1320	238.780278053413	6
0	1324	238.979525434147	7
0	1330	239.536179094239	6
0	1336	239.563395040689	7
0	1337	241.012166444716	6
0	1342	242.312003526741	5
0	1346	242.428515583713	6
0	1350	243.975742369236	5
0	1355	244.179343544161	4
0	1363	245.220716510196	5
0	1365	245.230262922085	6
0	1366	245.700400248238	5
0	1371	246.252838696022	4
0	1381	249.139022143636	3
0	1386	251.036224900743	2
0	1390	251.653518251383	3
0	1395	253.099866166763	2
0	1401	254.159774985877	3
0	1402	254.948714069783	2
0	1407	255.383788585088	1
0	1413	256.4332281335	2
0	1414	256.445928304763	1
0	1419	257.476447117235	0
0	1439	262.034971405136	1
0	1440	262.572501288764	0
0	1451	262.60355892339	1
0	1452	262.807502878455	0
0	1472	265.754899840794	1
0	1474	267.297412110731	0
0	1517	271.842655376823	1
0	1519	273.321496492515	2
0	1520	273.747663205698	1
0	1529	274.482424013561	0
0	1545	275.046170128102	1
0	1551	277.782175613549	2
0	1554	278.678785181558	1
0	1561	279.127593712906	0
0	1572	281.153659096321	1
0	1575	281.543156157484	0
0	1593	284.138088274657	1
0	1597	285.926691337566	2
0	1599	287.099589558327	3
0	1601	287.556095047028	4
0	1605	290.075070053855	5
0	1609	292.850549204236	6
0	1610	293.621275568035	5
0	1615	294.282389862226	4
0	1620	294.445188765088	3
0	1626	294.884984800291	4
0	1629	295.437597478499	3
0	1634	295.664235505687	2
0	1640	295.773107077354	3
0	1641	296.154894364465	2
0	1647	297.226865074343	1
0	1653	297.492061360535	2
0	1655	298.961645500313	1
0	1662	299.365812128087	0
0	1666	299.737603814147	1
0	1668	300.078026861155	2
0	1672	300.672501711727	1
0	1677	300.783757376597	0
0	1684	301.690607176001	1
0	1686	301.772967319342	2
0	1688	301.950699104849	1
0	1693	302.130127695866	0
0	1699	302.822641844595	1
0	1702	303.596351442218	2
0	1705	303.860155987744	1
0	1711	304.579283271253	2
0	1712	305.042860307802	1
0	1717	305.573210113551	0
0	1726	306.764385267607	1
0	1727	306.856516823321	0
0	1736	307.345855751665	1
0	1740	308.516840343517	2
0	1741	308.633858736167	1
0	1746	309.142762615521	0
0	1750	311.187228973425	1
0	1757	313.034833082021	2
0	1759	313.177304940681	3
0	1763	315.835027267522	2
0	1769	317.026311820169	1
0	1774	317.373877046936	0
0	1785	318.24902173687	1
0	1786	318.54890251651	0
0	1800	319.582532992575	1
0	1803	319.963398918458	0
0	1809	320.670760462039	1
0	1811	320.910889371359	2
0	1814	321.992514331264	3
0	1815	322.026719476354	2
0	1821	322.894701009241	3
0	1823	323.251623647281	4
0	1826	323.728883868989	3
0	1832	324.514828167451	2
0	1839	326.663407481013	1
0	1845	328.428544548161	0
0	1849	328.82394681612	1
0	1851	330.397363792044	2
0	1855	332.277301464619	3
0	1856	333.133581494468	2
0	1862	334.129533839039	1
0	1867	335.150392381871	0
0	1897	339.615024237115	1
0	1901	340.229470389694	2
0	1902	340.539091761221	1
0	1908	340.774064284947	2
0	1910	340.848913996886	1
0	1914	342.516982605257	2
0	1919	343.568587035775	1
0	1923	343.652160971917	2
0	1926	344.527142536304	1
0	1933	346.27485725339	0
0	1939	346.489372625841	1
0	1940	346.9017181208	0
0	1958	349.302874366606	1
0	1959	349.305321441164	0
0	2004	352.869118982932	1
0	2006	352.970849486783	2
0	2012	353.139535723432	3
0	2013	353.179860627702	2
0	2022	353.943412754102	1
0	2028	354.353943257165	2
0	2029	354.38669026211	1
0	2034	354.651527502605	0
0	2061	358.355840133819	1
0	2062	358.36136807716	0
0	2069	359.730962571365	1
0	2072	359.77996592289	0
0	2076	360.11794408224	1
0	2080	360.304943083705	2
0	2082	360.537679557186	3
0	2085	360.747629038221	2
0	2094	361.670174916813	1
0	2098	362.800807755323	2
0	2100	363.679552098553	3
0	2102	364.682300291541	4
0	2105	365.980341718111	3
0	2111	366.127907515473	4
0	2115	367.067471386307	3
0	2121	367.961053402941	2
0	2126	369.410380484418	1
0	2132	371.686305198358	0
0	2187	382.986570362772	1
0	2191	384.141798507812	0
0	2202	385.538299123216	1
0	2205	386.972959987034	0
0	2233	392.237383634368	1
0	2235	392.960757512551	2
0	2237	393.335959600875	3
0	2238	393.983024079381	2
0	2244	394.618369270682	1
0	2249	394.786244012317	0
0	2262	395.413868569781	1
0	2263	395.425499230551	0
0	2267	396.300631340307	1
0	2270	397.071953014624	0
0	2274	397.357960998991	1
0	2281	401.317291710221	0
0	2287	403.299622540721	1
0	2288	403.719373201355	0
0	2302	404.692054723098	1
0	2305	405.779627022401	0
0	2321	408.710872122737	1
0	2323	408.855979665773	2
0	2325	409.431720312774	3
0	2334	411.049501819268	2
0	2339	411.054372446139	1
0	2345	412.006530597932	0
0	2351	413.153180866432	1
0	2353	413.188049814619	2
0	2354	413.392568023599	1
0	2365	415.75033645198	2
0	2367	416.235903572379	3
0	2368	416.868722884591	2
0	2373	417.30493196135	1
0	2379	418.107007558427	0
0	2396	419.461744797454	1
0	2397	420.192080554748	0
0	2411	420.709319589697	1
0	2415	421.525265866856	2
0	2422	423.588107773154	1
0	2427	424.058471416306	0
0	2443	426.587800581441	1
0	2447	427.630055314089	2
0	2456	428.355471508791	3
0	2457	428.416770512077	2
0	2463	429.464331753053	3
0	2464	429.74758432108	2
0	2472	430.274509684552	3
0	2473	430.469654307469	2
0	2478	431.228974740093	1
0	2484	431.275638421149	0
0	2498	432.54287537283	1
0	2503	433.815409837354	2
0	2504	433.816949062759	1
0	2511	435.934520468838	0
0	2515	436.559384397041	1
0	2521	438.722833288026	0
0	2549	442.771228831487	1
0	2551	444.327856476534	2
0	2554	444.685432899702	1
0	2560	445.048662590042	0
0	2580	446.406701294681	1
0	2584	448.662016492801	0
0	2599	452.476228100035	1
0	2604	454.904088032813	0
0	2636	460.849601012511	1
0	2639	461.09770906653	0
0	2648	461.613910637089	1
0	2650	462.416662748505	2
0	2652	464.516319696259	3
0	2656	464.667680239164	4
0	2657	465.093838889752	3
0	2668	467.306351183131	2
0	2674	467.529461252441	3
0	2675	467.593749997142	2
0	2681	467.825534148259	3
0	2685	469.831432283274	2
0	2691	470.200337643313	1
0	2696	470.721032135251	0
0	2702	471.217100504015	1
0	2703	472.134453796519	0
0	2757	482.736473919259	1
0	2758	482.926286210834	0
0	2771	483.628494802962	1
0	2776	484.685612829526	0
0	2797	487.507768016593	1
0	2798	487.560167098586	0
0	2804	487.751666405674	1
0	2805	487.756224462779	0
0	2829	493.047860454898	1
0	2831	493.301376011339	2
0	2834	494.190891336638	1
0	2840	494.360168073699	2
0	2844	495.485466064156	1
0	2850	495.501908301725	2
0	2852	496.736343839004	1
0	2857	496.944514989503	0
0	2861	497.191351860039	1
0	2867	497.882116467946	2
0	2868	498.074680917395	1
0	2877	500.53270140942	0
0	2888	501.79404910663	1
0	2890	501.809933134872	2
0	2891	502.536393359006	1
0	2899	503.309626154861	2
0	2903	503.53931587439	3
0	2904	504.127396733615	2
0	2912	505.315878908861	3
0	2913	505.363096365256	2
0	2919	505.376027278942	3
0	2921	506.871892671034	4
0	2922	507.101968410939	3
0	2927	507.52319868439	2
0	2931	507.658058910385	3
0	2933	507.913410175557	4
0	2936	508.57008071976	3
0	2942	509.35765875307	4
0	2945	510.510645829542	3
0	2949	510.72263491719	4
0	2951	511.750052646062	5
0	2954	512.335418789992	4
0	2962	513.357881091782	5
0	2964	514.125042987933	6
0	2965	514.506069302117	5
0	2970	515.094195830383	4
0	2975	515.909131242157	3
0	2979	517.140899366016	4
0	2982	518.115460924238	3
0	2986	518.147984561249	4
0	2988	519.412402173586	5
0	2995	521.975760807587	4
0	3001	522.422530388497	5
0	3002	522.867249789995	4
0	3007	523.099098479369	3
0	3013	523.23016505202	4
0	3014	523.295642793289	3
0	3020	525.273542529736	4
0	3021	525.481241773749	3
0	3026	526.179019886457	2
0	3032	527.477757801825	1
0	3038	527.948984044818	0
0	3045	529.45937805078	1
0	3047	529.904348150321	2
0	3048	529.997982138099	1
0	3055	530.147765707302	2
0	3056	530.341768128623	1
0	3062	530.406069267873	2
0	3064	530.445309985668	3
0	3067	531.189213817601	2
0	3076	534.243257095672	1
0	3082	534.319138206573	2
0	3083	534.383900460328	1
0	3088	534.544305681959	0
0	3094	536.178042764831	1
0	3095	537.083683499476	0
0	3099	538.733392233807	1
0	3101	540.382556970645	2
0	3104	541.529651523702	1
0	3108	541.804982610821	2
0	3110	542.396477087807	3
0	3112	542.605654741	4
0	3117	545.091366860623	3
0	3123	546.848781319929	2
0	3128	547.795503711726	1
0	3132	548.216222328874	2
0	3134	548.703179561843	3
0	3136	549.768467497044	4
0	3141	552.376084566075	3
0	3146	554.061879054129	2
0	3150	555.596712138595	3
0	3153	555.969989790332	2
0	3157	556.589397259246	3
0	3160	557.72982197934	2
0	3169	560.959002172193	1
0	3176	561.652514008346	2
0	3178	561.797364410568	3
0	3180	561.807108378819	4
0	3183	562.429163407082	3
0	3190	564.550741010506	2
0	3196	564.878529222853	1
0	3203	565.980104303484	0
0	3226	566.431446956777	1
0	3227	566.863922217622	0
0	3236	568.940624467452	1
0	3237	569.441241002966	0
0	3241	569.532846458038	1
0	3246	570.495582988408	0
0	3262	571.530251923775	1
0	3264	571.601260542567	2
0	3266	572.001890716676	1
0	3271	572.470262953539	0
0	3275	573.114081148428	1
0	3277	573.798687390117	2
0	3279	573.903829668741	3
0	3281	575.117712453203	4
0	3287	576.987388347293	5
0	3290	577.187966028654	4
0	3295	579.141478625971	3
0	3303	580.887903315209	4
0	3304	581.225656554237	3
0	3308	581.883085502178	4
0	3310	582.033242311853	5
0	3312	582.051882466128	6
0	3314	582.237731383344	7
0	3316	582.790486039024	8
0	3320	583.127169557504	7
0	3327	584.472913996665	6
0	3333	584.590871773007	5
0	3338	585.193076616828	4
0	3343	585.372916623755	3
0	3348	586.123706434091	2
0	3352	586.795470854378	3
0	3356	587.814625191728	4
0	3359	588.114912230661	5
0	3360	588.425081594359	4
0	3365	588.806297912583	3
0	3370	589.729898807066	2
0	3382	592.27725696442	3
0	3384	592.682716051925	4
0	3385	592.807091580874	3
0	3391	594.070234748389	2
0	3399	595.453878291552	1
0	3404	597.275691389962	0
0	3430	600.145287762959	1
0	3435	600.908778763261	2
0	3436	602.083894922167	1
0	3441	602.089626170315	0
0	3457	602.954767237003	1
0	3461	604.849931299017	0
0	3476	606.830608826339	1
0	3477	607.39187077058	0
0	3491	608.710448082351	1
0	3492	608.836700980273	0
0	3498	609.520473366513	1
0	3501	610.061941408497	0
0	3539	614.384412152022	1
0	3546	618.868078541122	0
0	3563	623.808048905259	1
0	3567	625.367943338048	2
0	3568	626.782022636873	1
0	3574	626.842012556999	2
0	3577	627.195960046289	3
0	3578	627.808748217003	2
0	3584	628.017019456008	1
0	3591	629.03776750479	0
0	3598	631.165033839413	1
0	3599	631.782657089018	0
0	3647	638.591816055433	1
0	3648	639.124445494361	0
0	3661	640.17234617322	1
0	3664	640.917893930529	0
0	3673	643.139213447593	1
0	3676	643.691744409403	0
0	3687	645.656957343904	1
0	3689	645.815142914393	2
0	3691	646.475808896595	3
0	3693	648.476654111819	4
0	3699	649.311992480099	3
0	3705	649.457530481331	4
0	3707	650.611353112893	3
0	3712	652.015413899108	2
0	3716	652.043506655678	3
0	3718	652.220375493077	4
0	3724	653.108514528685	5
0	3727	654.029158786614	4
0	3732	655.386467883754	3
0	3739	656.380759511485	2
0	3744	656.921712188602	1
0	3750	657.607735418911	2
0	3752	658.117741897343	3
0	3754	658.75408315114	4
0	3757	662.45680840467	3
0	3763	664.324856195	4
0	3765	665.329424783713	5
0	3768	665.727463233501	4
0	3774	666.035215340029	5
0	3776	666.811639162986	6
0	3780	668.674875218971	7
0	3781	669.09659527774	6
0	3788	669.910584903658	5
0	3792	670.464762583507	6
0	3796	671.405071392708	7
0	3797	671.839153882213	6
0	3801	671.881368005939	7
0	3805	672.190073973975	8
0	3808	673.014219744037	7
0	3815	674.627174938033	6
0	3819	674.66911354324	7
0	3821	674.845680861045	8
0	3826	676.949885716865	7
0	3837	681.896640380865	8
0	3838	682.946178520423	7
0	3843	682.971521390378	6
0	3849	684.067014335696	7
0	3850	684.078444412229	6
0	3857	685.016761363328	5
0	3863	686.673738730166	6
0	3864	688.224405792406	5
0	3869	689.371407082806	4
0	3878	691.055427498287	5
0	3879	691.092688002413	4
0	3884	691.326979016967	3
0	3888	691.422160345735	4
0	3891	691.923620513348	3
0	3899	692.964518286904	4
0	3900	693.875266447099	3
0	3905	694.55322433045	2
0	3910	694.952778457289	1
0	3915	697.800388922923	0
0	3919	697.908454971173	1
0	3926	699.804032022207	0
0	3932	701.167270558499	1
0	3933	701.271349712964	0
0	3937	703.785989416887	1
0	3945	707.428293326156	0
0	3963	708.820914616088	1
0	3966	709.324603496129	0
0	3972	709.44412228153	1
0	3973	709.642568126128	0
0	4016	713.746738822773	1
0	4019	714.235130809738	2
0	4021	715.20903515951	3
0	4023	717.337398193156	2
0	4029	717.540109420609	1
0	4035	717.624354862523	2
0	4036	717.71911796343	1
0	4042	717.791121193916	2
0	4049	719.459949404895	3
0	4052	720.509623128452	2
0	4058	720.76638437276	3
0	4060	720.853635137607	4
0	4061	721.268718927794	3
0	4065	724.414515304834	4
0	4069	725.923623049555	5
0	4072	726.604748896938	4
0	4077	726.674894476091	3
0	4086	733.014663389582	2
0	4093	735.120707320814	1
0	4098	735.189515964086	0
0	4131	739.302901007091	1
0	4135	740.07762168896	2
0	4137	740.81574166396	3
0	4139	741.450542516046	2
0	4146	741.779762717159	3
0	4147	742.1561035965	2
0	4154	742.422953914421	3
0	4157	743.65159532673	2
0	4163	743.912575959492	3
0	4164	744.622497786415	2
0	4169	745.285309215325	1
0	4175	746.383828567449	0
0	4188	748.510933001771	1
0	4190	749.558175905775	2
0	4192	750.727772717912	1
0	4199	752.131674596272	2
0	4200	752.134098683274	1
0	4206	752.212689683565	2
0	4207	752.247394041585	1
0	4214	753.127115547922	2
0	4216	753.318473724149	3
0	4217	753.536959337111	2
0	4222	753.671806259746	1
0	4232	755.484292024006	2
0	4234	755.542650004525	3
0	4236	755.638425093404	4
0	4237	756.237714250976	3
0	4241	756.241083030348	4
0	4248	758.876425774598	3
0	4253	760.026757331347	2
0	4257	760.344272732323	3
0	4259	760.960980994827	4
0	4262	761.795333835799	3
0	4268	762.917249591926	4
0	4271	763.321076040382	5
0	4272	763.576111198629	4
0	4277	763.753332462674	3
0	4281	765.40854455433	4
0	4287	766.761858783396	5
0	4288	767.210032451915	4
0	4293	767.322626435085	3
0	4300	769.856849671165	2
0	4307	770.318699774616	3
0	4308	770.389993862326	2
0	4314	770.447993111491	3
0	4315	770.532936857255	2
0	4319	770.600407135752	3
0	4321	770.70636422111	4
0	4325	770.827777376229	5
0	4328	771.35626397342	4
0	4332	771.733988477029	5
0	4335	772.517851271626	4
0	4342	774.580435631449	3
0	4350	777.574574027577	2
0	4355	777.707601428084	1
0	4360	777.817189710049	0
0	4367	778.567675143349	1
0	4368	779.540034423748	0
0	4394	782.092235373992	1
0	4399	783.2604250865	0
0	4413	785.756794463025	1
0	4417	786.399907439983	0
0	4437	788.60660651955	1
0	4439	789.41582074986	2
0	4444	789.74551443188	1
0	4450	789.981119738795	0
0	4461	791.614104555398	1
0	4463	792.118433799669	0
0	4470	792.582668082167	1
0	4471	792.760995386243	0
0	4486	795.823959479843	1
0	4489	796.504446886134	0
0	4496	797.267132335213	1
0	4497	797.309112713156	0
0	4517	799.736963177514	1
0	4522	800.056433646793	2
0	4523	800.172554553179	1
0	4529	800.834051413142	2
0	4533	801.857262176795	1
0	4539	802.642365098597	2
0	4541	802.999804950483	3
0	4543	803.416316933028	2
0	4550	804.105475056301	1
0	4559	806.082299549882	0
0	4604	812.444861548559	1
0	4606	813.475030282499	2
0	4609	814.184104100513	1
0	4614	814.368617680128	0
0	4623	814.629408028622	1
0	4627	816.281367169509	2
0	4628	816.418384870493	1
0	4633	816.580073351976	0
0	4643	819.098541453268	1
0	4648	825.163309253161	2
0	4649	825.925092941603	1
0	4653	826.526165858106	2
0	4657	827.105776903612	1
0	4661	827.8170087216	2
0	4665	828.547241234193	1
0	4671	829.324697364832	0
0	4702	834.126669613217	1
0	4704	834.717742861183	2
0	4706	835.065025704921	3
0	4714	837.765860959973	4
0	4717	839.058241063593	5
0	4718	839.315046640931	4
0	4724	839.398539733696	5
0	4726	839.944067285089	4
0	4732	840.132961782474	5
0	4735	840.371666490124	4
0	4742	841.155751846415	3
0	4747	841.531622035388	2
0	4751	842.351248436389	3
0	4756	845.663159885723	2
0	4763	846.854817052017	1
0	4768	847.132792605396	0
0	4800	855.073976750877	1
0	4801	855.103589444183	0
0	4817	856.069771766584	1
0	4821	857.599726418472	2
0	4822	857.828966240887	1
0	4828	857.886649367925	2
0	4830	857.973991593572	3
0	4833	858.803505616653	2
0	4839	859.225963894123	3
0	4840	859.416667134695	2
0	4847	860.492234290756	1
0	4852	861.006471070972	0
0	4871	862.982025747159	1
0	4873	863.131391707589	2
0	4875	863.420339988341	3
0	4879	864.835102477535	4
0	4885	866.69946034923	5
0	4886	866.728825895194	4
0	4893	867.04774583577	3
0	4898	867.335396530391	2
0	4904	867.793591912342	3
0	4905	868.561443864241	2
0	4910	869.073554185672	1
0	4915	870.401764336684	0
0	4936	872.67690544798	1
0	4937	872.89469284919	0
0	4960	875.756680997065	1
0	4961	875.938972503401	0
0	4981	877.162228381939	1
0	4982	877.561433021361	0
0	4999	879.320324854375	1
0	5003	881.223615359378	0
0	5023	882.67087044257	1
0	5026	882.74806205331	2
0	5027	883.253281940852	1
0	5032	883.373656733043	0
0	5063	889.445589386507	1
0	5066	890.561936055677	0
0	5075	892.309112798555	1
0	5084	895.752124161822	0
0	5114	898.482882419088	1
0	5119	900.249639173933	2
0	5121	900.785453114347	3
0	5123	900.954552275718	4
0	5125	901.024411668555	5
0	5132	905.609746967905	4
0	5140	906.109844090723	3
0	5146	906.773957559566	2
0	5151	907.552675098722	1
0	5156	907.642050042971	0
0	5188	913.943201871643	1
0	5191	915.424037010729	0
0	5195	915.958968549112	1
0	5199	917.490386876724	0
0	5208	918.853526613416	1
0	5211	919.885830264651	0
0	5218	921.79003473409	1
0	5220	922.079348789551	0
0	5252	925.856423723578	1
0	5254	926.940281336769	2
0	5258	927.98320929676	3
0	5260	928.499730397358	4
0	5264	929.247761786603	5
0	5268	930.29774720942	6
0	5270	931.927534125431	7
0	5276	934.322285012648	8
0	5277	934.792432735478	7
0	5282	934.959086625644	6
0	5288	936.141516597091	7
0	5289	936.58556162974	6
0	5298	937.856804977533	7
0	5304	939.846572836417	6
0	5310	939.984797244117	5
0	5315	940.255648700059	4
0	5319	940.686384479667	5
0	5322	941.399649604661	4
0	5326	943.226276417923	5
0	5330	944.764608547434	6
0	5331	946.037151954636	5
0	5336	948.574661659886	4
0	5341	948.664552505544	3
0	5345	949.0467838532	4
0	5348	949.466320320026	3
0	5354	950.861783152872	4
0	5356	951.861655351214	3
0	5361	952.311954064892	2
0	5367	953.253599981728	3
0	5369	953.537712505098	4
0	5376	954.548402574488	3
0	5383	958.440658013756	2
0	5388	958.923084719001	1
0	5397	960.036445718862	0
0	5401	961.040443407919	1
0	5405	961.628710488847	2
0	5409	963.039994405564	3
0	5411	964.064882775369	4
0	5413	964.473176328024	5
0	5414	964.95749325336	4
0	5419	966.121661576127	3
0	5424	966.613717430463	2
0	5430	968.198610977944	3
0	5434	969.197258097688	4
0	5435	969.683113314819	3
0	5442	970.192045528998	4
0	5444	970.377664976938	5
0	5447	971.040319744473	6
0	5448	971.20466154911	5
0	5454	971.291815775412	6
0	5458	972.992272154681	5
0	5466	975.258458769263	4
0	5471	975.564756095567	3
0	5476	976.004944584145	2
0	5481	976.138894719028	1
0	5485	976.657850967871	2
0	5490	978.522199049521	1
0	5498	980.06069769391	2
0	5500	980.733147756144	3
0	5502	980.867607473157	4
0	5503	980.931689095363	3
0	5509	981.655988035573	4
0	5510	981.983685857557	3
0	5515	984.119983454058	2
0	5519	984.137310187574	3
0	5526	985.486630984747	4
0	5527	985.793488222059	3
0	5532	986.029211374809	2
0	5537	987.093180562573	1
0	5542	987.107076450919	0
0	5550	988.280280245204	1
0	5551	988.989579931075	0
0	5555	989.147522586211	1
0	5558	989.686698047488	0
0	5562	991.223199561756	1
0	5564	992.598138120923	2
0	5570	994.746780727628	3
0	5572	994.774701718287	4
0	5574	995.51865664379	5
0	5575	996.055862240704	4
0	5583	997.719461572208	3
0	5589	998.890631526864	2
0	5595	999.046365685456	3
0	5599	999.805422333006	2
0	5605	999.9245029801	3
0	5608	1000.777823121971	2
0	5614	1001.256002959057	3
0	5617	1001.539586810416	2
0	5623	1002.692936785008	1
0	5629	1003.496070846	2
0	5631	1003.790199882788	3
0	5632	1004.028556903027	2
0	5637	1005.763926055428	1
0	5641	1007.698368948853	2
0	5645	1007.877879687452	3
0	5647	1008.32353516546	4
0	5650	1009.472436351655	3
0	5655	1012.004089099179	2
0	5659	1012.373629718156	3
0	5662	1012.720996633962	2
0	5666	1013.216425730906	3
0	5668	1013.824790100681	4
0	5671	1015.268992876691	3
0	5676	1016.388074486187	2
0	5680	1017.284529825819	3
0	5682	1018.158012287417	4
0	5684	1018.369564686241	5
0	5687	1019.163831662635	4
0	5691	1019.224097865171	5
0	5694	1021.977778707193	4
0	5698	1022.061191129233	5
0	5702	1022.303353107496	6
0	5703	1022.364282370757	5
0	5708	1023.117565632378	4
0	5712	1024.063222544532	5
0	5715	1024.650501055995	4
0	5719	1025.608650697188	5
0	5722	1027.576189296946	4
0	5726	1028.474677276227	5
0	5728	1028.950371442877	6
0	5730	1029.128605348783	7
0	5736	1033.118932434463	6
0	5745	1033.75072791469	7
0	5747	1033.885385747472	8
0	5749	1035.287551217348	9
0	5750	1036.977533854921	8
0	5755	1037.436305353878	7
0	5764	1038.389890881597	8
0	5767	1040.672956905527	7
0	5772	1041.634494094398	6
0	5777	1041.869702132638	5
0	5783	1042.496193216939	6
0	5785	1043.33887693187	7
0	5787	1043.588123376603	8
0	5788	1043.605184381933	7
0	5792	1044.069571182311	8
0	5794	1046.231806955721	9
0	5796	1046.376241799806	10
0	5799	1047.363120360831	9
0	5805	1048.366194323472	8
0	5810	1048.398618691351	7
0	5817	1049.265058853045	6
0	5824	1051.143877480414	5
0	5828	1051.555748966895	6
0	5832	1052.486578787678	7
0	5833	1053.165612635323	6
0	5837	1053.600768153825	7
0	5839	1053.938547453825	8
0	5842	1055.097441263396	7
0	5846	1055.411290503272	8
0	5852	1056.249635233499	9
0	5858	1058.639655206174	8
0	5865	1059.899405274575	7
0	5870	1061.052198348522	6
0	5874	1064.527546238964	7
0	5877	1065.196408725481	6
0	5882	1067.800679102148	5
0	5888	1070.13637931936	6
0	5891	1070.723476773588	5
0	5897	1070.9240048275	6
0	5898	1070.962696675143	5
0	5903	1071.84206386795	4
0	5908	1073.298770533032	3
0	5914	1074.975328451748	2
0	5919	1075.131426109664	1
0	5927	1081.362981141135	2
0	5929	1082.171713803077	3
0	5932	1083.13235742023	2
0	5936	1083.666455320668	3
0	5940	1087.374339320707	2
0	5945	1088.084837183921	1
0	5951	1089.6428799769	2
0	5952	1090.089825697287	1
0	5956	1090.323432157912	2
0	5959	1091.833345625504	1
0	5963	1091.873468941384	2
0	5966	1092.8845578028	1
0	5971	1093.198749509614	0
0	5982	1094.209810229263	1
0	5983	1094.410660627313	0
0	5989	1094.631632635792	1
0	5993	1095.232242896811	2
0	5994	1095.794012022129	1
0	5999	1095.897687088175	0
0	6007	1097.283240671057	1
0	6009	1098.764216166731	2
0	6014	1099.701831192479	1
0	6022	1101.587456967734	2
0	6026	1102.524147919637	1
0	6031	1102.525703645916	0
0	6042	1105.966143391466	1
0	6044	1106.743763843807	2
0	6045	1107.074263935438	1
0	6050	1107.475212326226	0
0	6073	1108.781679983032	1
0	6076	1109.38353460743	2
0	6077	1109.400708257234	1
0	6082	1109.873153993428	0
0	6122	1118.251081549618	1
0	6126	1118.465852491542	2
0	6127	1119.023640088563	1
0	6135	1119.264860836006	2
0	6138	1120.141029732006	1
0	6144	1120.745175814656	0
0	6150	1120.941338346841	1
0	6152	1121.520774423982	0
0	6166	1123.789528478962	1
0	6167	1124.810548636118	0
0	6173	1125.705103863529	1
0	6175	1126.075281493422	2
0	6177	1126.216735441747	3
0	6178	1126.418702171831	2
0	6183	1129.825221109224	1
0	6190	1130.238272411324	0
0	6197	1131.513667243126	1
0	6202	1134.708803928354	0
0	6231	1137.916274482002	1
0	6236	1140.639925154018	2
0	6237	1140.883117423956	1
0	6242	1141.146312511933	0
0	6259	1143.898634324962	1
0	6264	1144.529442172159	0
0	6279	1148.045116477838	1
0	6281	1148.165844321821	2
0	6285	1149.107566914571	1
0	6298	1151.17700412226	0
0	6304	1151.828927792069	1
0	6305	1151.883554785221	0
0	6345	1157.005520574378	1
0	6347	1158.989359957749	2
0	6351	1159.980012228368	3
0	6352	1160.727754231873	2
0	6357	1160.783017268797	1
0	6363	1162.535112602851	2
0	6364	1162.61898924272	1
0	6368	1163.242388258037	2
0	6370	1163.288834325976	3
0	6373	1165.381988699299	2
0	6379	1169.0034680761	3
0	6381	1169.859949774127	4
0	6383	1171.667481440282	5
0	6390	1172.968822091655	6
0	6392	1173.656402469978	5
0	6397	1173.657183548137	4
0	6404	1173.974783063891	3
0	6408	1173.98293735884	4
0	6410	1174.51613004231	5
0	6415	1175.848278472661	4
0	6419	1176.074048035441	5
0	6423	1178.350616899902	4
0	6427	1178.913824463643	5
0	6431	1180.131699982869	6
0	6436	1181.25095649326	5
0	6443	1182.352910000508	4
0	6449	1183.672728958542	5
0	6450	1184.230022014009	4
0	6456	1184.943545252194	5
0	6457	1185.788667574931	4
0	6462	1187.589401036459	3
0	6468	1188.026853710274	4
0	6471	1188.694628636767	3
0	6476	1188.737752250095	2
0	6481	1189.051347635902	1
0	6486	1189.726224598803	0
0	6492	1190.291483407925	1
0	6493	1190.393993058875	0
0	6512	1194.002653596591	1
0	6514	1194.220641273658	2
0	6516	1194.881479299915	3
0	6517	1195.069599225411	2
0	6521	1195.76066486054	3
0	6523	1196.098706936151	4
0	6528	1196.767057030533	5
0	6529	1196.959636804291	4
0	6534	1197.416468160232	3
0	6538	1197.616241224394	4
0	6542	1198.967053781553	3
0	6548	1199.37953205387	4
0	6550	1199.548992562707	5
0	6552	1199.652832771749	6
0	6554	1200.243463479685	5
0	6560	1200.76179397651	6
0	6561	1200.935604404726	5
0	6568	1203.251411268389	4
0	6572	1203.886403001977	5
0	6574	1204.230152527543	6
0	6581	1206.184263963459	5
0	6587	1206.202783698978	6
0	6593	1208.422368655007	5
0	6600	1208.888271716057	4
0	6606	1210.188808231643	5
0	6608	1210.760392900844	6
0	6609	1211.049852627981	5
0	6613	1212.564342523091	6
0	6615	1213.009019393853	7
0	6617	1214.148085877519	8
0	6623	1216.244876167	7
0	6630	1216.823654260291	6
0	6635	1217.703094393027	5
0	6640	1218.178231656436	4
0	6644	1218.528129799999	5
0	6646	1219.11046803135	6
0	6651	1221.275444135054	5
0	6657	1221.482204537352	6
0	6658	1221.836906986247	5
0	6662	1221.872668902652	6
0	6665	1223.886909158167	5
0	6670	1224.175762987402	4
0	6675	1225.365140111827	3
0	6683	1228.374238322243	4
0	6686	1230.544836209832	3
0	6691	1231.667472613039	2
0	6695	1235.336356693169	3
0	6697	1236.034966405856	4
0	6700	1237.144113914175	3
0	6705	1239.11649626013	2
0	6711	1240.530084663001	3
0	6713	1240.996931893443	4
0	6714	1241.125395012889	3
0	6721	1243.908297736864	2
0	6726	1245.312310659368	1
0	6732	1245.758018994932	0
0	6740	1246.56839276461	1
0	6741	1246.814254188613	0
0	6747	1247.298760838028	1
0	6752	1248.19650191719	2
0	6753	1249.032215340353	1
0	6758	1249.232787727032	0
0	6764	1249.462390289443	1
0	6765	1250.665412407569	0
0	6779	1253.024449792615	1
0	6782	1253.612702578866	0
0	6819	1258.842880748671	1
0	6822	1259.500608349698	0
0	6842	1264.683619624936	1
0	6844	1265.187485480927	2
0	6845	1265.851773825458	1
0	6850	1266.311418698196	0
0	6858	1268.240274409781	1
0	6860	1268.423508621079	2
0	6861	1268.813852414881	1
0	6866	1269.108124596701	0
0	6891	1273.424438835799	1
0	6893	1274.406915532025	2
0	6897	1274.853111038149	3
0	6901	1276.070169956695	2
0	6907	1276.42830654266	3
0	6911	1276.929554471032	2
0	6916	1277.080532029542	1
0	6923	1277.562646918008	0
0	6927	1277.715383396465	1
0	6934	1279.306432842679	2
0	6935	1279.348554499901	1
0	6941	1280.60331908971	2
0	6942	1281.314761144671	1
0	6948	1284.838778956729	0
0	6979	1288.013074692711	1
0	6981	1288.255529357149	0
0	6991	1290.8076803111	1
0	6995	1291.33468763865	0
0	7007	1294.494221131558	1
0	7011	1297.490703407324	2
0	7015	1298.901093269058	3
0	7019	1300.393950687226	4
0	7020	1301.184953614845	3
0	7026	1301.526679811287	4
0	7028	1301.948571770429	5
0	7031	1302.283351657615	6
0	7033	1302.569938782344	5
0	7038	1302.688632811542	4
0	7043	1303.229557312346	3
0	7048	1303.238836699295	2
0	7052	1304.206516684803	3
0	7054	1304.299465386945	4
0	7058	1305.956256772644	5
0	7062	1307.129443819293	6
0	7068	1308.810634476556	7
0	7069	1308.953464296955	6
0	7075	1308.98308841827	7
0	7077	1309.282231377135	8
0	7079	1309.862455680953	7
0	7085	1310.795937324264	6
0	7091	1311.17508930093	5
0	7096	1311.185524434066	4
0	7102	1311.332178761787	5
0	7104	1312.43462208535	4
0	7111	1313.002353769756	3
0	7121	1314.02642891003	2
0	7125	1315.884127877684	3
0	7128	1316.318370880336	2
0	7132	1316.585696623723	3
0	7138	1319.85051592863	4
0	7140	1320.049230771634	5
0	7146	1321.63849940367	6
0	7151	1322.016520261741	7
0	7152	1322.06271593269	6
0	7159	1322.740879538862	7
0	7160	1323.448676527734	6
0	7165	1323.773121310883	5
0	7171	1324.276461127322	4
0	7181	1324.774661768638	3
0	7186	1325.0202688281	2
0	7192	1325.0227298325	3
0	7195	1325.703153391348	2
0	7201	1327.104967781251	1
0	7206	1327.53869581692	0
0	7210	1328.837534343519	1
0	7216	1329.117846810672	2
0	7217	1329.159635131241	1
0	7222	1329.860408255084	0
0	7229	1331.394816326631	1
0	7230	1331.619516350412	0
0	7259	1333.667708578375	1
0	7260	1333.73374817245	0
0	7273	1334.077935393158	1
0	7275	1334.609405795744	2
0	7279	1335.286895413071	1
0	7284	1335.645608425304	0
0	7291	1338.060313688312	1
0	7293	1338.27691457102	0
0	7332	1341.355199886844	1
0	7334	1341.432373888828	2
0	7336	1342.431530322142	1
0	7341	1343.033621684152	0
0	7347	1343.291640399873	1
0	7350	1343.785736450796	2
0	7353	1344.046963300975	1
0	7358	1344.174955020662	0
0	7398	1350.121962652163	1
0	7399	1350.211100584552	0
0	7406	1350.782773015208	1
0	7407	1350.968468835142	0
0	7414	1351.324823663784	1
0	7415	1352.762446266216	0
0	7440	1358.275986577502	1
0	7442	1358.352710976405	2
0	7447	1361.71903875811	3
0	7449	1361.962989867116	4
0	7452	1362.163533267623	3
0	7457	1362.217310123074	2
0	7462	1362.244274212705	1
0	7470	1363.816504993453	0
0	7498	1366.296277656331	1
0	7500	1366.629534261299	2
0	7501	1366.760984759827	1
0	7507	1367.043132430976	0
0	7515	1368.293674206485	1
0	7516	1368.460161190635	0
0	7532	1369.694932730056	1
0	7535	1371.348132622154	0
0	7583	1381.058806562019	1
0	7584	1381.167126322539	0
0	7604	1384.438816207462	1
0	7605	1384.519851750808	0
0	7619	1384.890955132925	1
0	7621	1385.40354568247	2
0	7626	1386.50561159905	3
0	7628	1386.917967742477	2
0	7634	1388.020501150981	3
0	7638	1389.390733594855	2
0	7644	1389.733892045936	3
0	7646	1391.678105259069	2
0	7652	1391.810651071718	3
0	7655	1392.33851095456	2
0	7660	1392.460885879227	1
0	7667	1392.709349031916	0
0	7671	1392.962079289702	1
0	7673	1392.979828278127	2
0	7675	1393.364029982525	3
0	7678	1394.855637594971	2
0	7684	1396.306578878588	3
0	7687	1397.609390938664	2
0	7692	1399.057191195154	1
0	7699	1400.38016294353	0
0	7705	1401.418601587882	1
0	7707	1401.874987503046	2
0	7713	1403.408957139053	3
0	7714	1403.639695355347	2
0	7726	1405.701458009938	3
0	7727	1406.578040837206	2
0	7733	1406.695006715048	1
0	7738	1407.158637907259	0
0	7764	1409.106438634626	1
0	7765	1409.674819983923	0
0	7781	1413.156345711028	1
0	7782	1413.295682878138	0
0	7813	1418.904209262657	1
0	7814	1418.941622260973	0
0	7844	1423.220897753603	1
0	7846	1423.263094349864	2
0	7848	1423.484154034969	3
0	7850	1423.712893586217	4
0	7851	1425.538799847194	3
0	7856	1426.414311159885	2
0	7864	1426.461042436749	3
0	7865	1426.579392854793	2
0	7872	1426.804134492064	1
0	7882	1429.558906896072	0
0	7891	1429.915406858171	1
0	7894	1430.083601506023	0
0	7909	1432.312378424196	1
0	7913	1433.119874470015	2
0	7915	1434.539132248136	1
0	7921	1434.620106146362	2
0	7922	1434.883743519918	1
0	7928	1435.789167077882	0
0	7958	1439.046377746818	1
0	7959	1439.704759234288	0
0	7972	1441.390440671018	1
0	7973	1442.003662985781	0
0	7986	1442.344940139887	1
0	7990	1444.764639869004	0
0	8019	1447.509503703501	1
0	8020	1448.419797035965	0
0	8038	1452.119418723413	1
0	8039	1453.352128924837	0
0	8085	1458.185127455734	1
0	8089	1458.354892070423	2
0	8090	1459.339607293332	1
0	8095	1459.495803047361	0
0	8127	1467.042597972294	1
0	8132	1468.749227489456	0
0	8145	1471.293043626338	1
0	8146	1471.346544705481	0
0	8167	1473.11005278939	1
0	8169	1473.631791875763	2
0	8171	1474.116233847118	3
0	8174	1474.69221498012	2
0	8179	1475.016231877291	1
0	8187	1475.949207276302	0
0	8205	1477.440981146567	1
0	8209	1480.145541184842	2
0	8210	1481.734630648271	1
0	8215	1482.285250762884	0
0	8249	1487.248718266445	1
0	8254	1489.965786085497	0
0	8263	1490.07890479437	1
0	8268	1496.08791557065	2
0	8271	1497.300203193654	3
0	8273	1499.189174827983	2
0	8279	1499.88998461688	1
0	8285	1500.654662129686	2
0	8286	1500.655107704104	1
0	8294	1501.424009174428	2
0	8295	1501.594995703852	1
0	8300	1501.641815294076	0
0	8307	1502.145768763059	1
0	8308	1502.896882602419	0
0	8320	1505.952420704991	1
0	8325	1508.003609625961	0
0	8331	1508.36883918375	1
0	8334	1509.055684431789	0
0	8357	1510.207573885204	1
0	8360	1512.13704325301	0
0	8380	1516.175008103165	1
0	8381	1516.787614303952	0
0	8392	1517.094284590313	1
0	8396	1517.722637264143	2
0	8400	1518.72029783892	3
0	8404	1520.489731674107	4
0	8405	1520.843768871512	3
0	8410	1521.173120740116	2
0	8415	1521.355152737564	1
0	8422	1521.742219128723	0
0	8429	1522.298133794846	1
0	8432	1522.803074437104	2
0	8434	1523.922968552077	3
0	8435	1523.953122251316	2
0	8440	1524.2819648612	1
0	8444	1524.844393037864	2
0	8446	1524.886799040848	3
0	8450	1525.269761986835	4
0	8453	1526.009761512139	3
0	8458	1526.173624404405	2
0	8463	1527.366185705222	1
0	8468	1527.745181355261	0
0	8474	1528.302738725863	1
0	8475	1529.12561579874	0
0	8481	1532.16260407533	1
0	8486	1533.644263599169	0
0	8508	1534.71358179464	1
0	8511	1537.134707977402	2
0	8513	1537.284159764093	1
0	8519	1537.693739758849	0
0	8556	1543.526789274114	1
0	8557	1544.309907666476	0
0	8572	1546.092801220442	1
0	8573	1546.113381382435	0
0	8585	1547.086823667952	1
0	8588	1547.330598135257	0
0	8609	1551.435218861418	1
0	8612	1551.997143604886	0
0	8618	1552.184224282932	1
0	8619	1552.484755277813	0
0	8628	1553.960210959595	1
0	8630	1553.969630554111	2
0	8632	1554.607103505014	3
0	8634	1555.216260600373	4
0	8639	1556.715304807717	5
0	8641	1556.981643369082	6
0	8645	1558.310265003634	5
0	8650	1558.527287160597	4
0	8656	1558.751123438843	3
0	8661	1559.191111993804	2
0	8665	1559.249422611265	3
0	8667	1560.253645513638	4
0	8671	1560.836067868549	5
0	8674	1561.14419898488	4
0	8679	1562.390707968766	3
0	8683	1562.420322725804	4
0	8687	1563.133803260686	5
0	8689	1563.543996840805	6
0	8692	1564.059476979987	5
0	8698	1564.328126928405	6
0	8700	1564.519426835535	7
0	8701	1564.53485332258	6
0	8705	1564.769395556118	7
0	8707	1565.849413586393	8
0	8710	1566.23907852845	7
0	8721	1569.860656113676	6
0	8726	1571.965534308694	5
0	8730	1572.312338375995	6
0	8733	1573.021691424752	5
0	8737	1573.187135140532	6
0	8740	1573.355864865579	5
0	8748	1575.728957906336	6
0	8750	1577.403366765079	7
0	8751	1578.435399301784	6
0	8759	1579.433852202139	5
0	8764	1579.911352768918	4
0	8769	1581.819377800836	3
0	8774	1582.123028128319	2
0	8778	1582.397620680137	3
0	8783	1586.419269727177	2
0	8789	1587.341927214675	3
0	8793	1588.989405350225	2
0	8798	1589.041686533324	1
0	8802	1589.102784877746	2
0	8804	1589.185448443255	3
0	8806	1589.38149511403	4
0	8808	1589.952059416686	5
0	8810	1590.316634866177	6
0	8815	1591.817246796153	5
0	8820	1593.367920792988	4
0	8825	1593.590351384452	3
0	8829	1594.209802720387	4
0	8831	1595.638142849509	5
0	8834	1595.94126857274	4
0	8841	1597.447774698251	3
0	8845	1598.043291010096	4
0	8848	1598.270259571227	3
0	8855	1599.186621167182	2
0	8859	1602.23573476795	3
0	8863	1603.131233541707	2
0	8869	1604.4354887217	1
0	8874	1605.209728142433	0
0	8889	1607.477332477561	1
0	8891	1608.199474888321	0
0	8904	1610.896107628741	1
0	8905	1610.970666262672	0
0	8916	1611.039974554757	1
0	8921	1612.835497378979	0
0	8939	1615.123960276022	1
0	8943	1616.816743830462	0
0	8974	1620.986982491629	1
0	8980	1623.127098742578	2
0	8981	1623.161364977738	1
0	8986	1623.253720509655	0
0	9003	1624.353561637166	1
0	9005	1624.779603907901	0
0	9019	1625.616755770522	1
0	9023	1627.83882529846	2
0	9033	1630.714378373508	3
0	9036	1630.863434368768	2
0	9042	1631.619710850572	3
0	9043	1632.073240543711	2
0	9049	1632.238267816338	1
0	9055	1632.885725711037	0
0	9066	1633.553400672842	1
0	9070	1635.007809876622	2
0	9072	1635.354560094394	3
0	9073	1635.498923338409	2
0	9079	1636.121092310601	1
0	9084	1636.462259855364	0
0	9117	1642.830816020164	1
0	9120	1644.835702809254	0
0	9129	1645.326098987396	1
0	9131	1646.00547585318	2
0	9133	1646.146169523455	3
0	9137	1646.715070971142	2
0	9143	1647.743966876944	1
0	9149	1648.629399671029	0
0	9167	1650.759811248341	1
0	9168	1651.170168927619	0
0	9204	1657.57851317913	1
0	9206	1658.711548063622	0
0	9213	1659.578886998954	1
0	9214	1659.778623519838	0
0	9220	1659.894728062082	1
0	9221	1660.582262383026	0
0	9286	1670.362979511374	1
0	9289	1670.966748225179	0
0	9295	1671.706586532055	1
0	9297	1672.516034096224	2
0	9299	1672.565457567137	3
0	9300	1672.679475107399	2
0	9304	1673.390051091081	3
0	9306	1673.406775973122	4
0	9308	1673.498600614095	5
0	9314	1675.630663348933	4
0	9319	1675.783748373454	3
0	9326	1677.454030131716	4
0	9327	1677.579993519082	3
0	9332	1677.765428145091	2
0	9337	1677.89854283432	1
0	9342	1678.457503021083	0
0	9346	1679.780620425533	1
0	9348	1680.833146503866	2
0	9350	1681.350657002489	3
0	9357	1682.578205618357	4
0	9358	1683.615485054364	3
0	9363	1683.747095913169	2
0	9368	1683.920729205058	1
0	9373	1683.946737190199	0
0	9379	1684.555264905522	1
0	9382	1685.029229687441	2
0	9384	1687.561282992869	3
0	9385	1688.010951876756	2
0	9390	1688.252891605354	1
0	9396	1689.416082665614	2
0	9397	1690.188017298265	1
0	9403	1691.012552709757	2
0	9404	1692.03159013053	1
0	9408	1693.029538324372	2
0	9410	1693.100481020021	3
0	9413	1693.973484321264	2
0	9417	1694.87211446678	3
0	9422	1695.940423563133	2
0	9427	1696.181806124213	1
0	9433	1696.88355841321	2
0	9435	1696.972575557176	3
0	9438	1699.378706909488	2
0	9447	1702.649739537508	1
0	9454	1705.619471712412	2
0	9456	1705.944866057359	3
0	9457	1706.169209714277	2
0	9462	1706.30685078406	1
0	9466	1706.412175902125	2
0	9469	1708.442513184131	1
0	9473	1709.041371891488	2
0	9475	1710.525743683896	3
0	9478	1712.22487477093	2
0	9483	1712.661109016386	1
0	9488	1714.275682159855	0
0	9494	1715.75810009288	1
0	9495	1716.053689362932	0
0	9499	1716.116262025393	1
0	9501	1717.905052803117	2
0	9505	1718.944820342056	3
0	9509	1719.128248158268	2
0	9514	1719.368952688628	1
0	9521	1722.637868816126	0
0	9525	1723.060481834218	1
0	9531	1724.555262379984	2
0	9535	1726.181825713795	1
0	9540	1726.366531008749	0
0	9544	1726.694775679889	1
0	9548	1727.129751510965	2
0	9549	1727.53503218249	1
0	9554	1728.371846941682	0
0	9558	1729.050115241058	1
0	9561	1730.799344403525	0
0	9565	1731.194204276251	1
0	9568	1731.792461981095	0
0	9572	1731.836878375244	1
0	9574	1732.005403568008	2
0	9576	1732.404794777349	3
0	9585	1735.288496102341	2
0	9589	1735.368230280443	3
0	9592	1736.669578125805	2
0	9596	1737.654440686479	3
0	9599	1738.263885746232	2
0	9604	1738.521492032326	1
0	9610	1741.580842228755	2
0	9612	1741.618569159377	3
0	9615	1743.3576294747	2
0	9619	1743.504588576722	3
0	9622	1744.025094383795	2
0	9629	1746.014735893955	1
0	9635	1747.773980145932	0
0	9669	1751.538734376497	1
0	9672	1752.465983971018	0
0	9697	1754.722142866301	1
0	9699	1754.861009300592	2
0	9700	1755.111627128811	1
0	9707	1755.269980567741	0
0	9713	1755.455195969875	1
0	9716	1755.898491437908	0
0	9736	1757.773598127845	1
0	9738	1758.025674025623	0
0	9750	1758.79664072166	1
0	9751	1758.955967250439	0
0	9764	1759.568733582389	1
0	9765	1759.675262533321	0
0	9771	1759.702526861762	1
0	9775	1760.263621500711	0
0	9789	1760.755545677853	1
0	9791	1762.136741124217	2
0	9793	1762.138079732682	3
0	9798	1762.39681480159	4
0	9800	1762.887540743874	5
0	9801	1763.096626236543	4
0	9806	1763.305095528967	3
0	9814	1764.061231467875	2
0	9819	1764.348135546502	1
0	9823	1765.260584433498	2
0	9826	1766.543147126552	1
0	9838	1770.400211526147	0
0	9845	1772.194706302905	1
0	9846	1772.481000202766	0
0	9855	1772.633946548559	1
0	9856	1772.65503901621	0
0	9868	1773.469351585549	1
0	9871	1774.142043093771	0
0	9877	1774.385033181727	1
0	9879	1774.995001971543	2
0	9882	1775.452046792181	3
0	9883	1775.50430396946	2
0	9888	1776.181846139522	1
0	9893	1776.235874757543	0
0	9916	1779.833354871461	1
0	9919	1780.539083147571	2
0	9920	1780.641079939189	1
0	9928	1781.662825329842	2
0	9930	1781.9769018904	3
0	9933	1783.154957150931	2
0	9938	1783.342210396132	1
0	9943	1785.118842478672	0
0	9961	1788.560547353289	1
0	9964	1789.21912265428	2
0	9965	1789.681081075986	1
0	9971	1789.931880654644	2
0	9972	1790.158598102032	1
0	9978	1790.579179726651	0
0	9984	1790.612853794077	1
0	9985	1790.885191589981	0
0	10015	1795.7431286888	1
0	10017	1795.882995496688	2
0	10018	1795.885190494773	1
0	10024	1796.006872897775	2
0	10025	1796.471140333159	1
0	10030	1796.690318732124	0
0	10055	1798.4820390991	1
0	10066	1800.913154573247	0
0	10077	1801.141590760534	1
0	10078	1801.307270025934	0
0	10087	1802.467556015092	1
0	10088	1802.731499304462	0
0	10121	1809.024978333341	1
0	10122	1810.22803463113	0
0	10128	1810.770270451634	1
0	10131	1811.872924414333	0
0	10135	1813.252053366638	1
0	10141	1815.076488305165	0
0	10152	1815.471264629513	1
0	10153	1815.625410002223	0
0	10166	1817.595472300468	1
0	10168	1817.834027410352	2
0	10170	1817.913449987644	3
0	10173	1818.4078101131	2
0	10180	1820.536448294617	1
0	10187	1821.292179146102	0
0	10216	1825.615655289025	1
0	10218	1826.887779153858	2
0	10226	1828.385206758851	1
0	10232	1828.499419653619	2
0	10233	1828.963018788027	1
0	10237	1829.049787771556	2
0	10240	1831.613708035096	1
0	10244	1831.707490493264	2
0	10250	1831.977960377427	3
0	10251	1833.290020373603	2
0	10255	1834.263124341438	3
0	10259	1834.930833635007	2
0	10264	1835.41888397127	1
0	10270	1837.169292995266	2
0	10272	1837.489614166619	3
0	10277	1839.650462249874	4
0	10278	1840.103225718167	3
0	10284	1840.850582642274	2
0	10290	1840.964866675014	1
0	10295	1841.867173784127	0
0	10299	1841.958080282619	1
0	10302	1843.330392507861	0
0	10306	1844.99869057114	1
0	10309	1847.428917005041	0
0	10319	1849.325617020595	1
0	10320	1849.462975698843	0
0	10355	1856.379691960403	1
0	10357	1856.977950322458	2
0	10364	1858.627874633927	1
0	10372	1859.978405312327	0
0	10402	1864.231195508253	1
0	10404	1864.808991003117	0
0	10410	1864.822256487885	1
0	10412	1865.682374893418	0
0	10425	1866.935538337643	1
0	10427	1867.480074016611	2
0	10429	1868.602407846701	1
0	10434	1868.981434241297	0
0	10443	1872.006420866553	1
0	10445	1872.861789836603	2
0	10449	1873.046058356958	3
0	10453	1873.486065941227	4
0	10454	1873.876225263187	3
0	10460	1873.981120552547	4
0	10462	1874.069295229575	5
0	10466	1874.814543624892	6
0	10468	1875.104421440756	7
0	10470	1875.934764300098	8
0	10471	1875.996285184147	7
0	10476	1876.096209705552	6
0	10481	1876.653967315611	5
0	10487	1877.773273886106	4
0	10492	1877.896507769694	3
0	10496	1878.088624597494	4
0	10501	1878.783186259873	3
0	10510	1879.234671959121	4
0	10511	1880.162630493711	3
0	10516	1880.736251194474	2
0	10521	1882.529223724638	1
0	10526	1883.71142066257	0
0	10530	1883.86123522003	1
0	10532	1886.005490779473	2
0	10535	1887.706293040189	1
0	10540	1889.943956307803	0
0	10544	1890.150088294953	1
0	10546	1890.629123496565	2
0	10551	1891.677262156263	1
0	10557	1892.05823165948	2
0	10559	1892.248012818169	3
0	10561	1892.326896431669	4
0	10572	1893.929446367627	3
0	10579	1894.089904585557	2
0	10585	1894.137621804628	3
0	10587	1894.372315865947	4
0	10589	1894.794154403804	3
0	10594	1895.131721217233	2
0	10602	1895.618092047394	3
0	10604	1895.916248654898	4
0	10605	1895.963873572969	3
0	10610	1898.341985934388	2
0	10614	1898.350761843388	3
0	10618	1901.072609942443	4
0	10622	1902.1402041794	3
0	10627	1902.585350380869	2
0	10632	1905.024758639154	1
0	10639	1906.468403199453	0
0	10643	1906.801139911108	1
0	10645	1907.008096825145	2
0	10649	1907.622940318076	3
0	10650	1908.999989778406	2
0	10656	1909.529792408257	3
0	10659	1910.533710316999	2
0	10665	1911.87181692462	3
0	10667	1912.544176608691	4
0	10673	1914.472235212181	5
0	10674	1914.654145454713	4
0	10678	1914.706991975207	5
0	10681	1915.312083854263	4
0	10689	1917.425734994605	5
0	10690	1917.524556332285	4
0	10694	1918.234732589062	5
0	10699	1919.308751784852	4
0	10704	1919.878968389195	3
0	10711	1923.303750542175	2
0	10715	1924.561045013825	3
0	10721	1927.170594969944	4
0	10722	1928.71050266534	3
0	10727	1929.174058273816	2
0	10731	1929.223946288717	3
0	10733	1929.941445601381	4
0	10736	1930.602938223932	3
0	10740	1931.372535490575	4
0	10742	1931.470036241777	5
0	10745	1932.546082333655	4
0	10751	1936.33273867432	3
0	10756	1936.503534456295	2
0	10760	1936.569967647	3
0	10765	1937.183619987795	2
0	10771	1937.699616332651	3
0	10772	1937.925484745194	2
0	10777	1938.182955135351	1
0	10782	1938.709657813985	0
0	10795	1942.004618902116	1
0	10797	1944.34487538737	2
0	10799	1944.668437083779	3
0	10800	1944.669598066568	2
0	10805	1945.114595693368	1
0	10813	1945.938804098219	2
0	10814	1946.495408869603	1
0	10818	1947.076943411568	2
0	10821	1947.981779785359	1
0	10825	1948.260222006716	2
0	10829	1948.7602042135	3
0	10830	1949.365451162011	2
0	10836	1950.781858636293	3
0	10838	1950.795525380954	4
0	10839	1950.91880563811	3
0	10844	1951.667787701109	2
0	10852	1953.375164282541	1
0	10859	1953.444226867904	0
0	10865	1954.533751258895	1
0	10869	1955.316162215093	2
0	10870	1956.900416354178	1
0	10874	1957.041491111059	2
0	10879	1957.505684443288	1
0	10883	1957.523569264741	2
0	10887	1958.002026042018	3
0	10894	1959.965905330866	4
0	10895	1960.228239114005	3
0	10900	1960.3300917807	2
0	10906	1961.058664370196	1
0	10914	1962.010459908279	2
0	10915	1962.395881111667	1
0	10920	1962.436227374337	0
0	10950	1967.166697109829	1
0	10951	1967.752175338207	0
0	10955	1970.646544188079	1
0	10961	1971.622895297793	0
0	10978	1973.550075018798	1
0	10980	1973.565463762652	2
0	10982	1973.680424140408	3
0	10985	1974.392557133646	2
0	10991	1975.033124898666	1
0	11001	1976.260329126032	2
0	11004	1976.947793714826	1
0	11010	1976.96856590045	2
0	11011	1977.100834875464	1
0	11016	1977.649211271153	0
0	11020	1977.741731357877	1
0	11023	1978.357918573712	0
0	11027	1978.822166612459	1
0	11030	1980.148755590045	0
0	11064	1986.287930226737	1
0	11068	1987.681404247282	0
0	11084	1992.02130819818	1
0	11088	1994.505671610866	0
0	11102	1996.655103767893	1
0	11104	1996.768470353357	2
0	11107	1997.908078298481	1
0	11113	1997.919379428911	2
0	11116	1998.002578470541	1
0	11121	1998.107070632932	0
0	11129	1998.594590942182	1
0	11131	1998.644434020994	2
0	11136	1999.73223985957	3
0	11138	2000.669538465396	4
0	11140	2000.855386789313	3
0	11146	2002.910863604499	2
0	11151	2002.92418094524	1
0	11156	2003.649392719139	0
0	11160	2003.866542878818	1
0	11163	2004.671603797297	0
0	11189	2008.663246336775	1
0	11193	2009.393104593068	0
0	11204	2010.940636306921	1
0	11205	2011.021191075085	0
0	11211	2012.040018843745	1
0	11213	2012.35787824206	2
0	11214	2013.151400560062	1
0	11219	2014.59619713999	0
0	11233	2016.896013583786	1
0	11236	2016.985349699437	0
0	11240	2017.230103022059	1
0	11242	2018.156842914956	2
0	11246	2018.658981052255	1
0	11252	2020.928802195484	0
0	11265	2022.924562463197	1
0	11266	2022.951932814705	0
0	11270	2022.992594534455	1
0	11272	2023.997012628202	2
0	11274	2025.822437978999	3
0	11276	2026.412150116295	4
0	11278	2026.966194382556	5
0	11284	2028.466713993655	6
0	11286	2028.705457869153	5
0	11291	2029.57067160541	4
0	11298	2030.590984974043	5
0	11300	2030.697136788285	6
0	11302	2031.547102571964	7
0	11304	2031.683247166058	8
0	11306	2032.299696395831	9
0	11307	2032.57685443113	8
0	11312	2032.845108453533	7
0	11317	2033.213127607518	6
0	11323	2033.545938571902	5
0	11328	2033.613875813994	4
0	11332	2035.462210584175	5
0	11334	2035.834490630403	6
0	11337	2036.772635681851	5
0	11341	2037.562902761198	6
0	11344	2039.290138044133	5
0	11349	2039.760940185239	4
0	11356	2040.955783716986	3
0	11362	2043.149606812639	4
0	11365	2043.900255173027	3
0	11369	2045.308595354565	4
0	11372	2045.492253840521	3
0	11378	2046.353527256436	2
0	11384	2046.96700357839	1
0	11390	2047.697418072783	2
0	11391	2048.281837418481	1
0	11395	2049.004839850755	2
0	11397	2049.681297141549	3
0	11402	2051.26645984211	2
0	11406	2051.694686869735	3
0	11412	2053.38589590358	4
0	11414	2053.888761561195	5
0	11416	2055.237862511087	6
0	11417	2055.436508867144	5
0	11421	2056.132191744589	6
0	11423	2056.410970292364	7
0	11426	2056.957727286416	6
0	11430	2057.018698946545	7
0	11434	2059.776861483927	8
0	11439	2061.985456209529	9
0	11441	2062.083017028012	10
0	11442	2062.240445570819	9
0	11447	2062.273938351742	8
0	11452	2062.456244278718	7
0	11456	2065.101294097645	8
0	11458	2065.938843335062	9
0	11460	2066.280282924028	10
0	11462	2066.745292444036	11
0	11465	2068.231465685102	10
0	11473	2071.040286015896	11
0	11475	2074.080779722729	12
0	11476	2074.515923269791	11
0	11480	2075.34526735416	12
0	11483	2076.030436449171	11
0	11488	2077.529456571365	10
0	11493	2078.048184503463	9
0	11498	2080.330789646947	8
0	11505	2081.356526609632	7
0	11509	2081.433060368404	8
0	11514	2082.910223800763	7
0	11520	2083.40316604573	6
0	11525	2083.596336023134	5
0	11530	2083.994028851353	4
0	11537	2085.44360763094	3
0	11548	2086.834168708774	2
0	11559	2088.02314409959	1
0	11565	2089.679755046604	2
0	11567	2090.201578832889	3
0	11570	2090.780989917787	4
0	11572	2092.266966309866	5
0	11573	2093.09310365934	4
0	11578	2093.54736696784	3
0	11588	2094.073822728396	4
0	11589	2094.103276450391	3
0	11595	2095.527810064179	4
0	11597	2095.969384298503	5
0	11600	2096.490847587579	4
0	11606	2098.370704979045	3
0	11613	2098.742432727828	4
0	11617	2099.840476234072	3
0	11622	2101.401310688615	2
0	11631	2102.010285344356	1
0	11636	2102.738295723305	0
0	11666	2106.49399443321	1
0	11669	2110.207294749858	0
0	11680	2110.489307392482	1
0	11682	2110.836529389172	2
0	11684	2110.939252222434	3
0	11687	2111.213557235512	2
0	11694	2111.738033677102	1
0	11702	2113.620857374407	0
0	11722	2116.079527660594	1
0	11724	2116.585677378343	2
0	11725	2117.073333049318	1
0	11731	2118.336533504061	0
0	11758	2123.442033611047	1
0	11759	2124.845574987177	0
0	11777	2127.458554635671	1
0	11779	2127.611947172324	2
0	11781	2127.672565510847	3
0	11783	2127.706552953025	4
0	11784	2128.53780203361	3
0	11790	2129.442776856973	2
0	11797	2129.749888044076	3
0	11799	2131.695987557556	4
0	11801	2132.156841905635	5
0	11802	2132.167400965371	4
0	11807	2133.304743766929	3
0	11813	2134.03108435621	4
0	11814	2134.142972335142	3
0	11822	2136.575259324509	4
0	11824	2137.24331886108	5
0	11826	2138.177061504759	6
0	11829	2138.909105132774	7
0	11832	2139.842017121594	8
0	11833	2140.943936385543	7
0	11838	2141.422137619087	6
0	11844	2141.696707088574	7
0	11845	2142.041064409452	6
0	11850	2143.277601594431	5
0	11855	2144.208215791565	4
0	11859	2144.373700928371	5
0	11862	2146.80559273692	4
0	11869	2147.43408446744	3
0	11873	2147.594506054869	4
0	11875	2148.244192354464	5
0	11880	2152.640980980451	4
0	11890	2155.435685723878	5
0	11892	2155.593547892134	6
0	11893	2155.834770917923	5
0	11900	2157.227486560112	6
0	11902	2158.036831726786	5
0	11908	2159.263638788223	6
0	11911	2159.798336389632	5
0	11917	2159.972476937011	6
0	11918	2160.959080029447	5
0	11923	2161.277750300029	4
0	11927	2161.605513927292	5
0	11931	2164.139842509801	4
0	11936	2165.497177316004	3
0	11943	2165.884071337047	4
0	11944	2166.343661634344	3
0	11949	2167.646547649217	2
0	11954	2169.945139625607	1
0	11960	2174.385176277305	0
0	11991	2178.281710549156	1
0	11995	2178.779976284471	2
0	11999	2179.953578194669	3
0	12001	2180.164105176438	4
0	12003	2180.542271354971	5
0	12006	2181.561715832702	4
0	12014	2182.307490231106	3
0	12020	2182.76962504542	4
0	12022	2183.251601014243	5
0	12025	2183.803703655403	4
0	12034	2185.981570999476	3
0	12042	2188.042615426848	2
0	12047	2188.317622127753	1
0	12054	2190.192590253564	0
0	12065	2191.517424098909	1
0	12068	2191.714890556356	0
0	12072	2194.610792870795	1
0	12074	2194.805619072353	2
0	12079	2197.121089441617	3
0	12084	2198.635799495798	4
0	12086	2199.219646760218	5
0	12087	2200.324420133058	4
0	12093	2200.65993435365	3
0	12098	2200.729917422794	2
0	12103	2200.778497659583	1
0	12108	2201.355796393835	0
0	12112	2202.432477957783	1
0	12116	2204.547576759121	0
0	12122	2204.562043357064	1
0	12124	2204.588471742404	2
0	12125	2206.480064380013	1
0	12129	2207.027644474009	2
0	12134	2208.880317124266	1
0	12142	2211.262892458995	2
0	12144	2211.458156520791	3
0	12145	2211.735337052644	2
0	12151	2211.856767508275	1
0	12156	2212.0849650675	0
0	12162	2213.087788448709	1
0	12163	2214.882714446866	0
0	12184	2216.786274215649	1
0	12186	2216.832962468732	2
0	12187	2217.068211380099	1
0	12193	2218.434855930396	0
0	12205	2219.136299883555	1
0	12210	2220.86422175016	2
0	12212	2221.087969275139	3
0	12214	2221.352452084095	4
0	12216	2221.405684581354	5
0	12219	2224.01475366249	4
0	12225	2224.828826910128	3
0	12231	2225.46014157225	2
0	12236	2225.738760995454	1
0	12241	2226.312354405259	0
0	12252	2227.877814767578	1
0	12257	2228.955705498181	0
0	12267	2229.573374465491	1
0	12268	2230.246400373936	0
0	12295	2234.844917121957	1
0	12297	2235.42071887926	2
0	12300	2237.399264616513	1
0	12311	2240.047447144695	2
0	12312	2240.252382209226	1
0	12318	2240.359771752563	2
0	12320	2241.103156789395	1
0	12326	2241.651169630575	2
0	12327	2241.964730666751	1
0	12334	2244.05483292568	0
0	12347	2245.748934910655	1
0	12349	2245.760857783466	2
0	12353	2248.527317035891	1
0	12362	2249.144753440174	0
0	12432	2258.897579457343	1
0	12438	2260.885403448281	2
0	12440	2261.593350600803	1
0	12447	2262.694890703111	0
0	12466	2263.672027216265	1
0	12470	2264.316247520024	0
0	12476	2264.570861354134	1
0	12482	2266.504049815844	2
0	12483	2266.541224564311	1
0	12488	2267.117382671415	0
0	12502	2269.561897306186	1
0	12503	2269.604572121553	0
0	12524	2270.420758824522	1
0	12526	2270.673092925816	2
0	12533	2271.994368317118	3
0	12535	2272.9501653365	2
0	12540	2273.131443375536	1
0	12545	2273.605642266229	0
0	12549	2273.884306745766	1
0	12551	2274.593713645238	2
0	12555	2275.282908946055	3
0	12556	2275.912685618901	2
0	12565	2276.829139152975	3
0	12567	2277.26519939227	2
0	12573	2277.281601206976	3
0	12574	2277.552077377382	2
0	12578	2277.686715156776	3
0	12581	2278.004221192751	2
0	12588	2278.838283125271	3
0	12589	2279.119059196892	2
0	12594	2279.128169957482	1
0	12599	2280.258593456266	0
0	12626	2284.914838284065	1
0	12628	2285.669198262491	2
0	12633	2288.029907220084	1
0	12640	2290.496865889022	0
0	12663	2295.040156885883	1
0	12665	2295.79917245303	2
0	12666	2295.910290616439	1
0	12674	2296.821895692025	0
0	12681	2297.675504511123	1
0	12682	2297.771617324906	0
0	12693	2297.79755327188	1
0	12694	2298.709744833911	0
0	12701	2298.783917396152	1
0	12705	2299.287601022182	2
0	12706	2299.616707320286	1
0	12714	2300.107675357178	0
0	12737	2305.504808152283	1
0	12738	2305.794809118992	0
0	12762	2308.824623891804	1
0	12766	2309.912295937768	0
0	12792	2311.771369106352	1
0	12794	2312.606707334853	2
0	12797	2313.803325560603	1
0	12802	2314.047091299246	0
0	12825	2316.378997011409	1
0	12835	2318.084392451895	2
0	12836	2318.116105633691	1
0	12841	2318.244991552874	0
0	12858	2319.27362702924	1
0	12865	2321.335132281982	0
0	12916	2332.903300638939	1
0	12918	2332.990617316996	2
0	12920	2333.825338176911	3
0	12922	2333.971312272837	4
0	12924	2335.005561111098	5
0	12929	2338.409805561532	4
0	12937	2340.357900741687	5
0	12939	2340.54283390773	6
0	12940	2341.1254354415	5
0	12945	2342.238025981755	4
0	12950	2342.351985603515	3
0	12955	2342.394932389766	2
0	12959	2342.438869893119	3
0	12963	2343.946132702233	4
0	12969	2345.927132775481	3
0	12974	2346.597532638321	2
0	12978	2347.108249426795	3
0	12982	2348.736672269477	4
0	12985	2350.46131471425	3
0	12990	2351.800251739087	2
0	12996	2352.535202026785	3
0	13001	2353.14368393598	4
0	13003	2353.855381097817	3
0	13009	2353.929798239904	4
0	13010	2353.975256783428	3
0	13014	2354.692008228751	4
0	13016	2355.112841057053	5
0	13018	2355.190928670864	6
0	13020	2355.346395440584	7
0	13028	2356.904220068913	8
0	13030	2356.997907960974	9
0	13033	2358.809464465066	8
0	13039	2358.855981467914	9
0	13041	2359.162494367885	10
0	13044	2359.584179591792	9
0	13050	2362.076179689439	10
0	13052	2362.660750136131	9
0	13057	2363.290158761128	8
0	13063	2365.291423573799	9
0	13066	2366.182504494538	8
0	13072	2368.36762793606	7
0	13078	2368.526053405248	6
0	13083	2368.71318580701	5
0	13088	2370.81304407041	4
0	13092	2371.841586126851	5
0	13096	2373.770435896886	4
0	13103	2374.379895421706	5
0	13104	2374.598559002615	4
0	13110	2374.886636940474	5
0	13114	2376.324100302227	4
0	13119	2376.790863981801	3
0	13124	2378.64985688822	2
0	13130	2379.187417251928	3
0	13133	2380.039312312798	2
0	13137	2381.419880670864	3
0	13139	2382.297628231819	4
0	13142	2385.241779235702	3
0	13147	2385.84072467689	2
0	13152	2387.50543472121	1
0	13157	2389.182902252748	0
0	13161	2389.420994115696	1
0	13165	2389.944767360342	2
0	13166	2391.253284237747	1
0	13175	2394.874496747247	2
0	13176	2395.311577140319	1
0	13181	2396.124906416861	0
0	13199	2397.444729677006	1
0	13201	2397.540799735622	2
0	13204	2399.35467062491	1
0	13210	2400.072408280469	0
0	13216	2402.217570952267	1
0	13217	2402.223202947043	0
0	13243	2404.579288640936	1
0	13246	2405.053449617353	0
0	13265	2406.345575630752	1
0	13267	2407.03102370991	2
0	13270	2407.769220519131	1
0	13275	2408.264018810776	0
0	13279	2408.777139075052	1
0	13284	2410.587408866395	0
0	13290	2410.940103563744	1
0	13293	2412.202759194498	0
0	13307	2413.719145024347	1
0	13309	2413.758415111802	2
0	13316	2415.760163118004	1
0	13322	2417.022150315831	2
0	13324	2417.422083765593	3
0	13328	2418.699115596414	2
0	13335	2418.972361250667	1
0	13340	2419.633034879584	0
0	13351	2420.065538905647	1
0	13356	2423.992381711161	2
0	13358	2424.287331086698	1
0	13363	2425.590936104656	0
0	13372	2428.091520095447	1
0	13373	2428.396518401491	0
0	13379	2430.548927967167	1
0	13381	2430.946672743427	0
0	13387	2430.984216211016	1
0	13389	2432.586381616379	0
0	13393	2433.167120134652	1
0	13396	2433.451073189058	0
0	13416	2438.211144784246	1
0	13418	2438.441025473643	0
0	13444	2441.321717851904	1
0	13447	2443.040216896818	0
0	13466	2446.328413953751	1
0	13469	2448.653098112902	0
0	13519	2452.864116803027	1
0	13520	2453.287477290264	0
0	13529	2453.947644293901	1
0	13532	2455.509793649325	0
0	13538	2455.826464922674	1
0	13539	2455.908544688293	0
0	13565	2458.407476081606	1
0	13567	2458.545178882487	2
0	13569	2459.086584036164	3
0	13573	2460.191515326779	4
0	13578	2461.199488347063	5
0	13580	2461.302844100889	6
0	13582	2461.614367354328	7
0	13583	2461.943851235191	6
0	13590	2462.847450770068	5
0	13595	2462.908500116556	4
0	13600	2462.922970874066	3
0	13606	2464.035823118337	4
0	13610	2465.170209224486	3
0	13615	2465.590578492262	2
0	13620	2466.381556733339	1
0	13626	2466.670150610339	0
0	13640	2467.421314737809	1
0	13642	2468.990871763479	0
0	13662	2470.773528816853	1
0	13663	2471.010949446809	0
0	13682	2472.806553393976	1
0	13684	2473.460741952129	0
0	13699	2475.334685323518	1
0	13701	2475.673380292464	2
0	13705	2476.066088341482	3
0	13706	2476.293160832107	2
0	13711	2476.402172689436	1
0	13718	2477.717216799624	0
0	13730	2479.364780464592	1
0	13734	2480.150171005024	2
0	13737	2483.486858761851	3
0	13738	2486.183619906416	2
0	13743	2486.616009609599	1
0	13754	2487.954943136312	2
0	13755	2488.289896914455	1
0	13760	2488.611730604623	0
0	13766	2488.975378839197	1
0	13768	2490.062458292113	0
0	13774	2490.276885548015	1
0	13775	2490.439096122427	0
0	13797	2494.80435956631	1
0	13805	2496.182641294254	0
0	13817	2497.086223155511	1
0	13819	2497.385661287676	2
0	13821	2497.917470917894	1
0	13826	2498.767609688912	0
0	13849	2501.170758853969	1
0	13851	2501.786278791239	0
0	13865	2506.046809719327	1
0	13867	2506.780186840783	0
0	13879	2508.516847850213	1
0	13882	2508.961254246687	2
0	13886	2509.318974215918	3
0	13887	2509.452622163454	2
0	13893	2509.955796399173	3
0	13894	2510.240466840438	2
0	13899	2510.352300172521	1
0	13904	2510.645392132364	0
0	13913	2512.285146352614	1
0	13914	2514.411588223006	0
0	13925	2516.170661712039	1
0	13930	2516.914119032697	2
0	13932	2517.11918767251	1
0	13937	2517.799844153305	0
0	13949	2519.501606618872	1
0	13950	2519.929005673569	0
0	13954	2520.382301534167	1
0	13958	2521.208756082039	2
0	13960	2522.549807515811	1
0	13964	2523.440564678489	2
0	13967	2524.725610668006	1
0	13972	2525.473817271046	0
0	13988	2527.650930345035	1
0	13990	2527.735122035889	2
0	13991	2528.236187427164	1
0	13997	2528.550530685968	0
0	14003	2528.726277828233	1
0	14007	2529.651664199634	2
0	14009	2530.176610479055	1
0	14016	2530.594952804767	2
0	14019	2530.924782355086	3
0	14021	2530.956767366355	4
0	14022	2531.112074640016	3
0	14027	2531.315242644114	2
0	14033	2533.257717091981	1
0	14040	2533.808585369918	0
0	14055	2535.31220266103	1
0	14057	2536.451534014698	2
0	14058	2537.245712796712	1
0	14063	2537.942490435827	0
0	14069	2538.731141180164	1
0	14070	2539.055232232913	0
0	14082	2540.081273232617	1
0	14088	2541.899576703593	2
0	14090	2542.901226318162	1
0	14095	2542.986210394182	0
0	14122	2546.534687804749	1
0	14124	2546.796816674536	2
0	14126	2547.414160843752	3
0	14129	2548.514449082216	2
0	14134	2548.526516012649	1
0	14141	2548.919112838222	2
0	14143	2549.302993618601	1
0	14149	2549.451231364825	2
0	14151	2550.026416136352	3
0	14152	2550.23279687913	2
0	14161	2551.235874242481	3
0	14162	2551.254358899422	2
0	14168	2551.861512915003	1
0	14173	2552.589293818143	0
0	14179	2553.399105081168	1
0	14182	2554.240518819348	0
0	14231	2561.454052685899	1
0	14239	2568.193608020299	0
0	14245	2568.231073049861	1
0	14246	2569.161573605456	0
0	14274	2571.538473470814	1
0	14277	2571.999578547218	0
0	14288	2572.335181631844	1
0	14291	2572.433335109923	2
0	14294	2572.577690516721	1
0	14301	2573.840112712594	0
0	14318	2575.910126691787	1
0	14320	2576.541692649774	2
0	14321	2577.500295112333	1
0	14325	2577.637741258372	2
0	14329	2579.575239730311	1
0	14334	2580.131701830247	0
0	14367	2584.60083421357	1
0	14368	2585.226237053883	0
0	14379	2585.807011154274	1
0	14381	2586.551371516384	0
0	14393	2587.260114634043	1
0	14394	2587.923991923056	0
0	14400	2588.075606537498	1
0	14403	2588.914852041964	0
0	14416	2590.341933016108	1
0	14418	2590.660231304347	2
0	14419	2591.347611345477	1
0	14424	2592.911191428658	0
0	14440	2594.175360889556	1
0	14442	2594.494228891017	0
0	14474	2598.482173346014	1
0	14477	2599.691379541966	0
0	14494	2602.717069924836	1
0	14496	2605.494594315795	2
0	14498	2605.635465136658	3
0	14504	2607.671527753014	4
0	14505	2608.243913916133	3
0	14510	2608.893613988966	2
0	14517	2609.582894028157	1
0	14522	2609.583412997887	0
0	14533	2612.476359825763	1
0	14535	2612.685937981698	0
0	14546	2614.07104918194	1
0	14547	2614.223111303181	0
0	14551	2615.428356168322	1
0	14556	2619.198970248623	0
0	14577	2620.572423048765	1
0	14578	2620.814100045328	0
0	14582	2621.040944692347	1
0	14586	2621.571894986858	2
0	14603	2625.254328424242	3
0	14604	2625.272004181801	2
0	14610	2625.331518926656	3
0	14611	2625.631712788832	2
0	14617	2625.858208285337	3
0	14620	2627.222673890055	2
0	14627	2627.406697631699	1
0	14633	2628.792202924379	2
0	14635	2628.931145650571	3
0	14636	2630.225255949421	2
0	14640	2631.196098803783	3
0	14643	2631.747552996325	2
0	14647	2632.001069438782	3
0	14653	2633.383673273171	2
0	14658	2633.467855544193	1
0	14663	2634.030670791784	0
0	14669	2634.103246512039	1
0	14670	2634.137800226524	0
0	14676	2634.957903765575	1
0	14677	2635.167593082817	0
0	14681	2637.4946986437	1
0	14685	2638.526819196212	2
0	14687	2638.673266505229	3
0	14688	2638.719213672365	2
0	14692	2640.280928372206	3
0	14695	2641.195085178929	2
0	14703	2642.649613681031	3
0	14705	2642.773926832835	4
0	14706	2643.146236495599	3
0	14711	2643.793505869262	2
0	14717	2644.486627235738	3
0	14719	2644.4868187211	4
0	14720	2645.15639620291	3
0	14725	2645.855637455994	2
0	14731	2646.13225814316	3
0	14736	2646.662515502011	4
0	14739	2646.723859287688	5
0	14740	2647.439781611752	4
0	14745	2647.536578990824	3
0	14750	2647.7595736297	2
0	14754	2647.800912254816	3
0	14758	2649.765220084818	4
0	14763	2652.694310199158	3
0	14769	2654.918344758939	4
0	14770	2654.976534856704	3
0	14774	2656.655682608239	4
0	14781	2658.743243421463	3
0	14790	2662.325400349752	2
0	14796	2663.912251506703	3
0	14798	2663.967970766943	4
0	14800	2664.696098602467	5
0	14802	2665.354800608375	6
0	14807	2666.907796026768	7
0	14812	2667.78675869946	6
0	14817	2667.942093563532	5
0	14821	2668.319454820731	6
0	14825	2670.005050539348	7
0	14826	2670.615043209257	6
0	14830	2670.675033260466	7
0	14832	2670.740469910213	8
0	14836	2672.029292163299	9
0	14837	2672.882387358349	8
0	14842	2673.830131383966	7
0	14849	2675.707656703743	6
0	14855	2676.687021724358	7
0	14858	2678.194402711457	6
0	14862	2679.45742433016	7
0	14867	2680.347472225456	6
0	14873	2681.043162272144	5
0	14878	2681.100290984937	4
0	14885	2683.015680620419	3
0	14893	2683.185682744265	2
0	14898	2683.626859729613	1
0	14904	2683.866999827398	2
0	14905	2684.346416405906	1
0	14911	2685.486743673904	0
0	14930	2690.123136422803	1
0	14933	2691.440321302294	0
0	14939	2691.604247951538	1
0	14942	2693.838377117392	0
0	14966	2700.414437049341	1
0	14968	2702.146357181353	0
0	14980	2702.646446452912	1
0	14981	2703.196955188736	0
0	14989	2704.332500372764	1
0	14990	2706.767002950388	0
0	15001	2708.712969635906	1
0	15004	2709.2596393337	0
0	15010	2709.940972742661	1
0	15011	2710.891825731738	0
0	15019	2711.941354614485	1
0	15020	2713.1999842839	0
0	15028	2714.013960446336	1
0	15029	2714.037457525364	0
0	15033	2714.142381693218	1
0	15036	2714.723291454728	0
0	15042	2715.214506346932	1
0	15043	2715.492719619341	0
0	15049	2718.077614753473	1
0	15051	2718.750543272758	2
0	15056	2721.126177033109	1
0	15061	2721.682774697151	0
0	15067	2721.744557514438	1
0	15068	2722.092524574657	0
0	15081	2723.698322500003	1
0	15084	2724.492910922614	0
0	15114	2726.768765405782	1
0	15119	2728.023940126047	2
0	15129	2731.369796453499	3
0	15131	2731.843459489223	4
0	15132	2732.352962106661	3
0	15137	2732.597578650472	2
0	15142	2733.18331927893	1
0	15149	2735.287286722148	2
0	15150	2735.349222415729	1
0	15159	2737.461690391171	2
0	15161	2737.495886484107	3
0	15162	2738.167133129675	2
0	15167	2738.856150089618	1
0	15171	2738.959258778818	2
0	15173	2738.983351202753	3
0	15178	2740.444821234471	2
0	15184	2740.463214020118	3
0	15185	2740.688012418458	2
0	15192	2742.684167192626	1
0	15198	2745.155905699699	2
0	15202	2747.656164893963	3
0	15203	2747.989807106012	2
0	15207	2748.161900856924	3
0	15209	2749.503175456059	4
0	15214	2750.691787090281	3
0	15218	2750.711289276596	4
0	15222	2752.150367221591	5
0	15225	2753.752911029336	4
0	15232	2753.953167585956	3
0	15236	2754.188446506565	4
0	15239	2755.189858854383	3
0	15246	2757.202010302718	2
0	15253	2759.488586196058	1
0	15259	2760.397881784993	2
0	15262	2762.676359370358	1
0	15273	2764.001095438531	2
0	15274	2764.314975553807	1
0	15279	2764.357207663466	0
0	15287	2766.082164677988	1
0	15291	2767.687118184593	2
0	15292	2767.793591797062	1
0	15297	2769.071950864137	0
0	15321	2774.392047818984	1
0	15322	2774.631986415225	0
0	15326	2775.899154869341	1
0	15331	2776.531858001524	0
0	15349	2780.089439823704	1
0	15352	2780.571648649045	0
0	15359	2781.025526437805	1
0	15361	2781.724729389044	0
0	15375	2785.816630160422	1
0	15377	2786.548559800342	2
0	15381	2788.145325099757	1
0	15386	2788.431043579443	0
0	15411	2793.440032101978	1
0	15412	2793.519140644159	0
0	15424	2794.499394692085	1
0	15426	2794.88935896214	0
0	15438	2796.019027812114	1
0	15440	2797.288545267357	0
0	15471	2800.424861616983	1
0	15473	2801.232201632536	0
0	15490	2804.614639664416	1
0	15493	2805.558914611805	0
0	15499	2805.854827454989	1
0	15500	2806.417483125112	0
0	15531	2810.830739548751	1
0	15532	2811.156575620067	0
0	15538	2811.72768117928	1
0	15541	2813.289541924985	0
0	15558	2815.645420326105	1
0	15560	2815.871796290356	2
0	15561	2815.94582870639	1
0	15567	2817.35610213177	0
0	15571	2817.433932359945	1
0	15578	2820.366919939147	2
0	15579	2822.163388539135	1
0	15585	2822.21111486861	2
0	15586	2822.758307080984	1
0	15590	2823.716697670857	2
0	15592	2825.549484335751	3
0	15599	2829.054264624243	2
0	15604	2829.117499852625	1
0	15610	2831.043557175289	0
0	15621	2832.048406234472	1
0	15623	2832.525025730983	2
0	15626	2832.95081733207	3
0	15628	2833.153754993342	4
0	15629	2833.319070936699	3
0	15633	2833.334830071981	4
0	15636	2834.563090263351	3
0	15640	2835.188949104188	4
0	15643	2836.026033677011	3
0	15648	2837.018111607821	2
0	15653	2837.590264142503	1
0	15657	2837.964136581584	2
0	15661	2839.067039464651	3
0	15663	2839.110622953566	4
0	15664	2839.312091031287	3
0	15674	2842.035303287461	4
0	15675	2842.246363421276	3
0	15682	2845.819580993645	2
0	15687	2846.654696945447	1
0	15692	2847.756163603273	0
0	15703	2849.954629192706	1
0	15704	2850.459306031073	0
0	15735	2854.852852668775	1
0	15736	2855.617999831625	0
0	15742	2858.176611576835	1
0	15743	2858.272636083334	0
0	15750	2858.91500596091	1
0	15752	2859.742497637314	0
0	15758	2861.939676995324	1
0	15763	2862.959142711115	2
0	15765	2863.193544249969	3
0	15766	2863.944796852312	2
0	15771	2865.587761475223	1
0	15777	2866.113992072992	2
0	15780	2868.53346689823	1
0	15785	2869.370481426948	0
0	15791	2869.744116438058	1
0	15794	2870.806346203874	0
0	15798	2870.820777193733	1
0	15801	2871.440718703714	0
0	15812	2871.824498993056	1
0	15813	2872.689448494949	0
0	15833	2877.577577272607	1
0	15838	2879.09983378501	0
0	15852	2881.793726406187	1
0	15857	2883.136910907389	2
0	15858	2883.142549309446	1
0	15863	2883.911620203332	0
0	15875	2884.366417200773	1
0	15877	2885.866090597279	0
0	15883	2886.027372611418	1
0	15885	2886.085434430896	2
0	15887	2886.157274116207	3
0	15889	2886.656807599072	2
0	15894	2887.24420792129	1
0	15900	2887.672340949247	0
0	15914	2890.712106156014	1
0	15915	2890.734586256856	0
0	15922	2891.18537331119	1
0	15923	2891.94976989114	0
0	15932	2895.467229648393	1
0	15937	2896.67924537711	0
0	15952	2898.38882374511	1
0	15954	2898.660713144126	2
0	15958	2898.836292395496	3
0	15962	2900.255552445058	4
0	15963	2902.027519042593	3
0	15968	2902.184925279315	2
0	15974	2902.33317959284	1
0	15982	2902.633114404308	2
0	15984	2902.834666706298	1
0	15988	2903.16106763158	2
0	15992	2903.556147419425	3
0	15994	2904.276738277695	2
0	15999	2904.323474800074	1
0	16003	2905.853302172597	2
0	16006	2906.656221689773	1
0	16010	2907.099566057651	2
0	16014	2908.373141382437	3
0	16015	2908.373817309602	2
0	16021	2909.115342553382	3
0	16029	2910.387951399897	4
0	16031	2910.430554172512	5
0	16035	2911.474203278375	6
0	16038	2913.130979506471	5
0	16043	2913.625551369431	4
0	16047	2913.650532875823	5
0	16051	2917.139115687434	6
0	16052	2918.220855593044	5
0	16057	2919.721323792997	4
0	16065	2919.881821004546	5
0	16067	2919.958625825101	6
0	16069	2920.848234647879	7
0	16071	2921.062453307658	8
0	16074	2921.344819935727	7
0	16082	2921.949189374724	8
0	16083	2923.788276868989	7
0	16090	2927.016841978126	6
0	16095	2928.096323192091	5
0	16099	2928.106278017483	6
0	16103	2929.905489091064	7
0	16104	2930.426360432213	6
0	16109	2931.095264772697	5
0	16117	2933.174356940977	4
0	16123	2933.744079488038	5
0	16124	2933.78047277767	4
0	16129	2934.048427267776	3
0	16135	2934.744658928579	4
0	16140	2935.754186070202	5
0	16141	2935.788868147664	4
0	16147	2936.246912981924	5
0	16148	2936.541755002692	4
0	16155	2938.466429150851	3
0	16160	2938.847602531977	2
0	16165	2939.353751904743	1
0	16173	2940.877383638655	0
0	16180	2941.226946428014	1
0	16183	2941.769233532314	0
0	16237	2951.859166214071	1
0	16243	2956.201859569135	0
0	16249	2956.208596989494	1
0	16250	2956.287774584583	0
0	16256	2956.354625214019	1
0	16259	2957.712052831504	0
0	16265	2958.01244373139	1
0	16267	2958.32832493836	2
0	16269	2958.691755275777	3
0	16270	2958.936603526097	2
0	16275	2960.779521240117	1
0	16283	2962.723911545408	0
0	16301	2964.851890272172	1
0	16305	2966.733239402203	0
0	16341	2973.261933097394	1
0	16342	2973.477180835899	0
0	16351	2974.365954777432	1
0	16353	2974.62471595563	2
0	16355	2974.881332017543	3
0	16359	2975.975679134913	2
0	16364	2976.093133002596	1
0	16369	2976.411058716946	0
0	16378	2977.239395188845	1
0	16380	2979.361967407846	2
0	16384	2982.501758194966	3
0	16386	2982.709105690045	4
0	16387	2982.996888498838	3
0	16395	2984.148027443231	2
0	16401	2985.725918632286	3
0	16403	2986.57691909734	2
0	16411	2987.477039911499	1
0	16416	2987.499283977993	0
0	16425	2988.529989884499	1
0	16426	2988.98998359751	0
0	16432	2989.559780641285	1
0	16433	2990.056366884346	0
0	16439	2990.412113941075	1
0	16442	2990.675031081758	0
0	16450	2991.243576212178	1
0	16452	2991.512300474996	2
0	16455	2992.787708104861	1
0	16459	2993.326703685365	2
0	16462	2994.695573195367	1
0	16467	2996.287622562981	0
0	16483	3001.276980427735	1
0	16488	3002.64442387356	2
0	16489	3003.154806080426	1
0	16495	3003.262654027326	0
0	16520	3005.52422205935	1
0	16523	3006.746874136631	0
0	16530	3008.120781845553	1
0	16532	3009.369518864282	0
0	16543	3009.68877753574	1
0	16547	3010.716509930656	2
0	16549	3011.196819313809	3
0	16551	3011.636843849629	4
0	16552	3011.721649180061	3
0	16560	3012.385825954055	4
0	16565	3012.899671856674	5
0	16566	3013.663330997966	4
0	16571	3013.937104413506	3
[...]
4	155547	27965.054989220627	1922.8241161558
4	155554	27967.658515550245	1925.057487214
4	155565	27969.442799129404	1920.7481711106
4	155575	27970.582786319082	1918.3307880104
4	155596	27974.319259240842	1920.8512368679
4	155601	27974.725254083605	1920.2600060731
4	155609	27975.308241589011	1919.2391737559
4	155637	27983.800325319798	1924.063108222
4	155646	27984.366162441834	1924.5067655123
4	155657	27986.680872248362	1926.2919526637
4	155664	27986.96168708804	1915.0986648059
4	155674	27987.392476564007	1915.3258567062
4	155680	27987.87908025183	1908.27895708
4	155689	27989.174309141223	1908.0016714629
4	155706	27991.526621956314	1909.0629765591
4	155739	27996.947213874437	1900.7502497472
4	155744	27997.734907643134	1891.495819443
4	155761	27999.603832618517	1892.8476262615
4	155795	28006.94922278428	1894.9434919332
4	155800	28007.082599988649	1894.30720416
4	155807	28008.506459531266	1888.5973166254
4	155827	28011.388159611039	1885.9840180255
4	155846	28014.161318789532	1888.3239404196
4	155853	28014.673257886855	1886.2540569611
4	155953	28035.498220271938	1906.2925030211
4	155970	28037.374391718875	1884.1261255229
4	155992	28038.631165840046	1880.7443959374
4	156014	28040.834022120711	1868.1061196353
4	156043	28044.256287886495	1867.4097727047
4	156049	28044.402983739899	1863.8680862657
4	156061	28047.318410032049	1863.3486311684
4	156078	28048.383507148116	1863.3244005366
4	156093	28051.269110634495	1862.4488485339
4	156960	28242.86364156878	2050.5586555741
4	156965	28243.46255597147	2042.6864179325
4	156972	28244.306993268882	2041.786021873
4	156984	28246.863766097847	2035.3791925427
4	157001	28248.921859924718	2032.5995453278
4	157040	28257.774309431241	2039.3634057541
4	157142	28274.94088710341	2052.8776362667
4	157153	28280.613831075024	2054.5831139229
4	157180	28284.996974033871	2052.7681294213
4	157202	28292.431444187501	2058.2883800863
4	157214	28296.101829300996	2055.5075305714
4	157228	28297.434376002119	2056.4071701046
4	157240	28299.552575158655	2056.0738641112
4	157262	28302.011721984137	2054.2581550538
4	157272	28303.179926523783	2052.3418791732
4	157277	28304.17031987724	2051.607532987
4	157283	28305.286237533012	2039.7684400106
4	157288	28305.362471131614	2039.7318676615
4	157295	28307.416667610643	2037.9409553659
4	157302	28308.020672888719	2030.8316328505
4	157308	28308.752772041646	2030.2314681982
4	157316	28310.012233284114	2029.380030541
4	157340	28313.268427868182	2026.254631698
4	157355	28315.207885239208	2017.5794605393
4	157471	28331.530309317421	2032.7656179654
4	157485	28335.10371864949	2028.7869040754
4	157492	28336.011364810969	2025.8667594205
4	157525	28341.347547734135	2027.7600920502
4	157540	28343.341837723689	2023.4828400935
4	157547	28343.544692674929	2012.8765513311
4	157577	28346.780302401132	2014.0126421618
4	157582	28347.275635234759	2013.8242547185
4	157591	28347.61722418325	1997.8019415643
4	157605	28348.069742982775	1987.5062774579
4	157618	28352.025475528784	1989.4788647004
4	157628	28353.919617572273	1984.1752225463
4	157638	28355.006674336588	1974.7768354153
4	157655	28357.821995014231	1976.7652143591
4	157677	28365.689900368585	1979.921319136
4	157803	28391.188319971357	2003.867719641
4	157808	28391.418438619221	1978.0766616921
4	157813	28391.495347740183	1977.7820949232
4	157831	28395.094681573328	1978.5329329201
4	157876	28403.507706791806	1980.0771109736
4	157885	28404.764743144562	1979.2524950259
4	157919	28408.361464331843	1977.9492330959
4	157924	28409.35546671318	1968.3289053319
4	157931	28410.971521353095	1969.0693498484
4	157999	28422.777346148791	1980.6158074061
4	158007	28423.205127672435	1978.0697064975
4	158025	28427.987933547953	1978.146517624
4	158030	28428.159460277195	1974.67354604
4	158035	28428.61032995531	1970.2728610374
4	158045	28430.98266564824	1969.9814397981
4	158056	28432.964710327596	1967.2734141113
4	158064	28436.651530692642	1967.9480053854
4	158069	28437.692594563689	1945.2686743553
4	158083	28439.490031460187	1939.4333433617
4	158111	28442.461879102118	1931.0536800724
4	158179	28454.797438079432	1942.0645148233
4	158185	28455.049079648558	1941.1519864627
4	158190	28455.073837122523	1938.2807933064
4	158197	28455.366806438233	1934.693065168
4	158206	28456.070980380367	1932.767513012
4	158457	28504.340367328369	1979.6156752224
4	158462	28504.558441388904	1973.9478960604
4	158475	28505.388307973797	1974.2548988841
4	158533	28516.004185188857	1983.9723217554
4	158641	28534.66212517551	2002.3768785055
4	158652	28535.223065123271	2000.7007699059
4	158660	28536.682329199685	2000.209607839
4	158667	28537.247753311015	1997.2500167888
4	158677	28538.023174606711	1994.3415767356
4	158686	28540.928088595655	1983.7456037504
4	158743	28546.621241685334	1989.226699614
4	158818	28563.8084241337	2005.7590291854
4	158823	28563.849467830161	1995.7296800181
4	158828	28563.887968889995	1995.2289854911
4	158840	28568.156838752863	1993.1778129708
4	158863	28570.353896629297	1994.8403755555
4	158869	28570.89417798877	1992.3847136374
4	158878	28571.557414808113	1990.349429121
4	158921	28577.156583421949	1994.2988183378
4	158933	28578.36122743432	1986.9130379456
4	158950	28579.689618319642	1973.4402764445
4	158959	28581.860831307755	1964.0528639443
4	159023	28592.318401884198	1973.3063617204
4	159033	28595.049762989218	1971.4539711662
4	159044	28595.76917468933	1966.8309074349
4	159050	28596.476098042459	1967.4957723891
4	159061	28600.147837940128	1962.0105659248
4	159079	28602.110600672241	1963.8631588362
4	159084	28602.874014359434	1960.4887119182
4	159101	28606.235749154224	1963.4147114834
4	159196	28621.761094493608	1976.774538015
4	159476	28684.875271154009	2038.9617708754
4	159580	28700.566396006804	2054.6275810629
4	159585	28700.786731157935	2049.3863537855
4	159590	28700.817360019046	2047.8264408465
4	159601	28706.873321250083	2049.3294929843
4	159619	28708.409950910557	2042.815209753
4	159626	28710.37784776476	2041.1475784869
4	159662	28714.905740191587	2042.638605591
4	159667	28715.110196846944	2042.1979495399
4	159678	28721.151679098872	2048.0130624487
4	159743	28733.479780762725	2053.7788037315
4	159769	28737.186969380785	2057.1654720655
4	159774	28738.886276959351	2050.811221996
4	159781	28741.340098205624	2051.6609438741
4	159789	28742.517112312417	2038.0372549073
4	159802	28745.804455338599	2033.9500654446
4	159815	28746.712077670649	2034.6388482073
4	159828	28747.838011246777	2032.7278523906
4	159841	28750.543810228599	2033.8517741632
4	159846	28751.144350691145	2032.6911348828
4	159858	28754.703208582717	2032.3402829791
4	159873	28757.341403977295	2033.4319512754
4	159878	28759.017237995263	2028.8892684636
4	159883	28759.29446890165	2022.393729182
4	159888	28760.05514078589	2022.0775485101
4	159895	28761.566638149369	2021.8903745565
4	159921	28763.65711767368	2023.3092193638
4	159927	28764.908556466422	2007.0285461777
4	159935	28765.608976670528	1995.3773073527
4	159951	28767.502842412776	1996.8146301004
4	159986	28772.174968217571	2001.1670537334
4	159991	28772.231036446362	1984.5508159883
4	159996	28772.559748512269	1983.344142415
4	160001	28773.220134904379	1970.0675168863
4	160015	28776.649255884823	1969.7208770796
4	160193	28805.890978662645	1991.3085192158
4	160198	28806.733303609991	1983.5913429173
4	160208	28807.224834625913	1983.3674315256
4	160225	28808.726300911362	1981.0654391937
4	160234	28809.603578877771	1976.1596461333
4	160257	28814.802581342176	1980.9436756668
4	160268	28815.327704978877	1979.9378978119
4	160274	28816.465185390741	1978.5571996036
4	160279	28816.933435038039	1977.9553989929
4	160284	28818.027190299058	1978.1078902511
4	160293	28819.384052083093	1973.1076657467
4	160329	28826.662637126741	1978.1383185619
4	160347	28827.921234144712	1978.1808916885
4	160352	28828.049271434871	1974.7560158398
4	160367	28834.310886362467	1974.4904651882
4	160565	28868.929137439989	2005.9989747606
4	160570	28869.832430773096	2005.1033940158
4	160576	28870.380882812771	2003.1701104154
4	160581	28870.415703473023	1999.9637017668
4	160587	28871.118856420074	1993.7669964046
4	160608	28876.536535903345	1992.9348675508
4	160714	28897.919697969998	2010.6037747525
4	160724	28899.791980944355	2012.1831930057
4	160746	28903.547148017464	2012.9788892608
4	160758	28905.38377846787	2012.7127302945
4	160763	28906.939269820723	2013.9420581895
4	160773	28908.721853379069	2015.2355133834
4	160791	28911.690019142154	2009.0800616029
4	160796	28912.008127982456	1989.1180321238
4	160808	28916.323532574266	1992.2560783667
4	160828	28919.722883779126	1994.8710916192
4	160851	28922.549184204606	1978.9814986107
4	160856	28924.986715538829	1978.9786742909
4	160861	28927.189093936436	1967.3475263666
4	160866	28927.614785613336	1967.0992550647
4	160878	28929.725115984207	1968.9193471499
4	160904	28933.044245071833	1970.4711215916
4	160915	28936.333698665069	1971.7576994667
4	160991	28948.796505413311	1979.1412268945
4	160998	28949.547288879946	1978.7544951882
4	161004	28949.769982799832	1977.9042750076
4	161009	28950.529315884689	1977.1735552047
4	161025	28955.639081686503	1972.1612451111
4	161042	28956.357448597782	1972.0330330766
4	161052	28957.225082506357	1966.721806921
4	161057	28958.288637982049	1966.9375760512
4	161069	28960.19264514428	1960.726787418
4	161080	28961.333029281937	1960.8614185084
4	161085	28961.646581672432	1959.4952269435
4	161092	28961.739192812083	1953.9843557713
4	161097	28961.832893943128	1947.6832921281
4	161108	28963.869330203127	1946.8163580703
4	161141	28971.756746309135	1950.554510412
4	161151	28975.053635187726	1947.3998930034
4	161156	28976.332843395023	1941.2109443085
4	161166	28981.866669068099	1945.5625611965
4	161194	28985.271404405876	1948.8666212647
4	161205	28987.773272726026	1948.6434770764
4	161212	28988.895575880649	1947.890805005
4	161224	28990.993693818426	1947.9230909809
4	161231	28992.607551300065	1939.5625338347
4	161241	28993.540156529253	1938.8915822775
4	161253	28996.070030629167	1913.9976302986
4	161286	29000.391660885543	1915.768577458
4	161297	29001.713494677003	1910.186173003
4	161418	29024.057020070934	1930.3827453595
4	161425	29026.066703986156	1932.184660818
4	161436	29027.139216842449	1929.140641793
4	161442	29027.161638986289	1925.8737572031
4	161455	29030.072854343758	1928.4844294709
4	161479	29032.331784729487	1930.4963982384
4	161561	29053.133212936291	1947.4915083948
4	161572	29053.736828930966	1946.3387594532
4	161579	29054.95025728574	1944.8502279735
4	161585	29055.167690368717	1944.0317347748
4	161592	29058.44846501467	1944.3823030944
4	161600	29061.462429200447	1940.4460680952
4	161606	29061.766563588631	1938.4186508784
4	161611	29062.234145174184	1937.0733519643
4	161618	29066.061136367928	1939.8266033095
4	161631	29066.936561870457	1935.0103352252
4	161657	29070.958966202562	1935.9017551485
4	161708	29081.278425063467	1942.746071494
4	161713	29081.527105400044	1940.8165739597
4	161720	29082.505029468312	1934.1855768531
4	161730	29084.352814232852	1927.0575705356
4	161741	29087.798865929573	1928.9313442454
4	161758	29089.362668779591	1929.0884442227
4	161789	29094.126654503854	1932.7807161912
4	161803	29096.950719433497	1928.4086961549
4	161810	29097.393794806831	1927.9135948601
4	161846	29103.614450228558	1926.0943199644
4	161881	29108.236134930333	1928.2172627416
4	161889	29108.781760525657	1920.0023744707
4	161913	29113.525682060731	1924.1542874081
4	161927	29115.239382688396	1916.2796422741
4	161932	29115.980815029271	1914.1549504918
4	161939	29116.694809148455	1913.4687190003
4	161946	29118.726632098334	1911.01770205
4	161958	29121.727628833086	1913.9445291354
4	161970	29122.558676152779	1914.4164519576
4	162006	29134.017575318229	1925.671534564
4	162109	29153.413124069183	1943.3841280832
4	162133	29157.941388790475	1944.6792218138
4	162152	29159.50494639767	1938.8981954021
4	162157	29159.956382105238	1935.9113798241
4	162165	29160.805209538314	1934.3401220815
4	162171	29161.367688822205	1933.3443520153
4	162182	29162.215523743483	1930.1607676176
4	162225	29167.942335950308	1935.8452608484
4	162252	29171.278740211904	1934.7453496063
4	162259	29173.686443233727	1930.83619559
4	162273	29175.721574769362	1930.0826861944
4	162283	29176.737440162934	1929.1394923254
4	162309	29180.400442096596	1931.8911882411
4	162333	29183.406615656422	1926.9001695142
4	162338	29184.034174873346	1918.8958145895
4	162343	29184.240073089506	1916.0365127673
4	162356	29188.383912854627	1916.8884699609
4	162375	29192.539051185521	1919.4899927427
4	162395	29194.605495258308	1906.2982340482
4	162402	29195.449625388806	1904.8617390301
4	162409	29195.606454373934	1903.9945061011
4	162419	29197.225150286158	1903.2430331684
4	162438	29199.484149798929	1903.3681420421
4	162462	29203.217979929191	1906.8416614088
4	162478	29205.436171733161	1907.067231355
4	162489	29211.335282849989	1912.0996431156
4	162500	29212.298466204038	1903.9216551926
4	162506	29212.478286302401	1898.4428258668
4	162514	29213.599868373702	1893.9531022872
4	162519	29215.267677685787	1890.0718919866
4	162524	29215.520917446702	1887.2469292402
4	162533	29217.37907710238	1888.9480267461
4	162548	29219.570586978135	1888.9686820236
4	162710	29256.737954948452	1922.7561511469
4	162715	29256.774967708573	1915.8026981311
4	162720	29256.841752084805	1904.3201843195
4	162728	29258.96270726446	1902.8837553501
4	162746	29265.191442329781	1903.304620443
4	162768	29271.365935224076	1901.5766005713
4	162777	29272.05837606856	1891.6782369385
4	162790	29273.081389606318	1889.0242828503
4	162798	29274.178891917683	1889.3702367976
4	162804	29274.832645687986	1886.7788458446
4	162813	29276.556399801491	1882.6031962733
4	162892	29286.406949008082	1891.4282190232
4	162897	29286.508644550728	1891.4287188786
4	162903	29286.686785207102	1890.9989267538
4	162908	29286.719081778896	1890.3024311998
4	162913	29286.778293337334	1888.3313849633
4	162918	29290.921761898965	1891.1552426517
4	162929	29292.99299036366	1883.8309103512
4	162963	29297.247127836608	1883.7885512611
4	162968	29297.718600569606	1880.1509583369
4	162981	29300.399401374412	1874.1256156839
4	163004	29302.018745553534	1873.6531724926
4	163016	29306.187184388059	1873.9646685313
4	163041	29308.291252079277	1872.0542371065
4	163051	29312.642436621242	1865.7482331299
4	163108	29320.004604577065	1871.2772290751
4	163116	29321.151992986739	1871.7761151419
4	163122	29321.864560923645	1870.1444648021
4	163127	29321.986100675033	1862.1984988667
4	163134	29322.692471570901	1862.0610415986
4	163144	29323.453528773352	1858.4563874557
4	163155	29324.681702064622	1859.5820848158
4	163160	29324.873337230889	1852.1440290591
4	163167	29325.990424768296	1852.7802058981
4	163177	29326.658468298058	1849.6089253178
4	163186	29328.048627332602	1849.0442024677
4	163204	29330.714268302621	1851.6588754058
4	163217	29333.002280299519	1853.7624511852
4	163233	29334.505531846896	1854.9275013106
4	163256	29336.042587339838	1854.7944706416
4	163266	29336.746668994744	1854.0372525587
4	163284	29338.975325035455	1853.350454885
4	163290	29339.420113326272	1848.052571817
4	163295	29339.80251370274	1846.4172989768
4	163310	29342.822080870772	1839.4276480078
4	163368	29353.787118064721	1847.8614683277
4	163386	29355.41061458374	1844.649618457
4	163399	29357.580397829222	1846.4117082233
4	163408	29359.053277818348	1844.9408651489
4	163462	29363.137182998659	1826.7318813963
4	163473	29365.762311587328	1826.4809591153
4	163486	29369.233938964077	1822.6560124822
4	163512	29370.691156023673	1823.774931913
4	163528	29372.486526972404	1823.8650138292
4	163549	29375.49620642423	1825.6973771588
4	163560	29376.805897468351	1826.3257322229
4	163616	29386.565959794212	1830.5092249192
4	163629	29387.08899682144	1829.1565715705
4	163638	29389.298596657771	1829.728185282
4	163686	29397.994953784178	1829.9795361159
4	163714	29401.249969513198	1826.4218968031
4	163719	29402.556816589097	1820.5273762766
4	163726	29403.416221592734	1820.6743466234
4	163778	29410.282029502522	1825.9110035049
4	163783	29411.224048415025	1826.472535575
4	163789	29412.767036369727	1827.7945863731
4	163794	29412.828107893467	1819.8435458113
4	163799	29414.599381448495	1816.0602163985
4	163826	29422.664894177719	1820.7425392508
4	163942	29438.873474731264	1836.6054352595
4	163967	29443.9993889425	1839.211912466
4	163975	29444.986381169631	1839.8147579502
4	163997	29448.011935416437	1833.4703758221
4	164157	29479.691838415142	1861.3241316768
4	164169	29481.218810343573	1858.1095343006
4	164174	29483.290536731586	1857.8126434875
4	164184	29486.637782494786	1856.8229899766
4	164190	29486.883511609376	1856.265441085
4	164195	29487.324470780869	1852.9826398066
4	164205	29488.840132763359	1848.5884488633
4	164215	29489.344128495882	1848.598791023
4	164220	29489.643125437012	1843.6423140642
4	164229	29490.750135469958	1837.8698061897
4	164239	29491.917912882314	1838.9627151154
4	164259	29493.241496161557	1837.7116572528
4	164264	29493.34329766308	1833.8171023065
4	164269	29495.848328406508	1832.7910120649
4	164282	29499.149980075953	1833.1735138449
4	164295	29500.485571631356	1828.5073424055
4	164300	29501.087933278558	1826.462302461
4	164309	29502.197593700887	1827.1351809966
4	164328	29504.293891985363	1824.7772954894
4	164341	29505.534501105703	1820.9510444029
4	164351	29506.681031842303	1821.3621358144
4	164357	29507.262857002675	1815.6043174517
4	164365	29508.283109778314	1801.7112536012
4	164572	29550.681877962822	1838.5233247513
4	164579	29551.630421452784	1838.3188348799
4	164587	29552.680826195178	1836.994940709
4	164599	29554.667720572718	1838.3201201352
4	164619	29558.943426422768	1839.8119084862
4	164632	29561.421688710197	1841.3641585452
4	164643	29562.22511250811	1830.0089855191
4	165278	29691.651216824206	1951.8320988866
4	165290	29693.083835839498	1932.5658641187
4	165296	29694.16366531261	1931.7528319382
4	165303	29694.958049076587	1928.7900774261
4	165312	29698.654444656157	1931.8000474302
4	165337	29703.829528652092	1936.5602121557
4	165344	29704.412548596261	1935.134085142
4	165363	29706.826023530491	1937.2298546672
4	165407	29716.831913610968	1946.9078931087
4	165414	29716.973660215952	1946.9190394684
4	165428	29719.020111332498	1945.1691858173
4	165482	29727.058099092102	1946.3974630262
4	165490	29729.487879010942	1944.6015878891
4	165495	29729.606602028488	1938.3874517973
4	165501	29730.177417321209	1930.6856218591
4	165508	29731.842835934163	1927.5269920355
4	165520	29733.642829374206	1928.3740224899
4	165555	29739.10886238485	1928.0727660617
4	165565	29741.082750123265	1929.7633662299
4	165646	29759.433497768551	1945.9189644593
4	165857	29808.632457584953	1994.2890925306
4	165862	29808.971437766709	1993.5607119255
4	165873	29811.273817527883	1994.7374635159
4	165886	29815.406244596274	1997.1826534561
4	165898	29816.858097947754	1997.278926154
4	165983	29837.088381217872	2004.7887576023
4	165999	29839.191046539575	2000.1748399156
4	166018	29846.370906078636	2003.712955225
4	166232	29893.223382109612	2046.6294408075
4	166242	29894.240163871015	2047.0971244162
4	166262	29895.59063526526	2046.8473574005
4	166267	29895.925977761845	2039.9128613296
4	166276	29898.090050574132	2037.2139060587
4	166324	29908.570493499792	2042.045065384
4	166333	29912.158734594562	2043.5019168152
4	166342	29912.673826564749	2039.5970643636
4	166401	29923.606844237649	2049.9894424984
4	166425	29928.091791441495	2046.0397896618
4	166439	29928.890052601311	2045.1143945327
4	166452	29930.611811857418	2043.493823769
4	166466	29932.34792070789	2043.8712504036
4	166481	29932.838220112899	2039.9523208153
4	166490	29934.029218168298	2035.8552935409
4	166495	29934.759569442149	2035.9724235626
4	166500	29937.165777349271	2023.5651130823
4	166511	29941.650362374706	2015.0373157762
4	166555	29950.059616102525	2022.3168522747
4	166570	29954.384044915649	2026.1754826937
4	166620	29962.982128485918	2023.6517045027
4	166629	29963.740736120638	2024.3037153944
4	166659	29966.851517896796	2018.1653170117
4	166664	29967.352608569481	2016.4582882428
4	166676	29969.809352523974	2016.3680175407
4	166707	29975.366162951546	2014.2681353885
4	166722	29979.389808672934	2015.7414404216

