version 2
run First-n3-12-20191016-14:52:58-2356
attr configname First-n3
attr datetime 20191016-14:52:58
attr experiment First-n3
attr inifile omnetpp.ini
attr iterationvars ""
attr iterationvarsf ""
attr measurement ""
attr network org.omnetpp.queueing.Pizza
attr processid 2356
attr repetition 12
attr replication ""
attr resultdir results
attr runnumber 12
attr seedset 12
param **.PS.maxInventoriedPS 3
param **.U1.interArrivalTime exponential(2s)
param **.U2.interArrivalTime exponential(4s)
param **.PS.serviceTimeForInventoryU1 exponential(0.8s)
param **.PS.serviceTimeForInventoryU2 exponential(1.0s)
param **.PS.serviceTimeDirectU1 exponential(1.2s)
param **.PS.serviceTimeDirectU2 exponential(1.4s)
param **.PS.probabilityProducing 0.5
param **.CS.serviceTimeU1 exponential(0.8s)
param **.CS.serviceTimeU2 exponential(1.0s)

vector 0 Pizza.EntryQueueU1 queueLength:vector ETV
attr interpolationmode sample-hold
attr title "queue length, vector"
vector 1 Pizza.CS queueLength:vector ETV
attr interpolationmode sample-hold
attr title "queue length, vector"
vector 2 Pizza.EntryQueueU2 queueLength:vector ETV
attr interpolationmode sample-hold
attr title "queue length, vector"
vector 3 Pizza.sink lifeTime:vector ETV
attr interpolationmode none
attr title "lifetime of arrived jobs, vector"
attr unit s
vector 4 Pizza.sink lifeTimeU2:vector ETV
attr interpolationmode none
attr title "lifetime of arrived jobs, vector"
attr unit s
0	0	0	0
0	9	3.02938641821	1
0	11	3.058750860014	2
0	19	3.843532611707	1
0	25	3.92178884275	2
0	28	4.110600934278	1
0	32	6.175797446328	2
0	37	9.048434481314	1
0	43	9.94355337748	0
0	51	11.948661382188	1
0	53	12.299075441925	2
0	54	13.271657336626	1
0	58	13.51687472535	2
0	63	15.123433665667	1
0	67	15.173164941431	2
0	71	15.678719808058	3
0	72	16.162221645315	2
0	78	17.064794533466	3
0	79	17.720892312145	2
0	83	17.748611513252	3
0	86	18.051546637161	2
0	91	18.853725087835	1
0	96	19.09585554251	0
0	102	20.390568628423	1
0	104	20.770088181259	2
0	105	22.67313214234	1
0	110	23.459503011807	0
0	114	23.687608857344	1
0	117	24.495351513305	0
0	121	24.783018379992	1
0	126	26.521243836037	0
0	174	35.435692590008	1
0	178	36.512667523903	2
0	180	36.855431027593	1
0	185	37.11503757803	0
0	196	38.206779432694	1
0	199	38.502897580584	0
0	208	39.945439982886	1
0	215	41.794870231114	2
0	216	41.806269047583	1
0	225	43.400738587664	2
0	228	44.120541904477	1
0	233	44.1350534955	0
0	240	45.209228013486	1
0	243	46.407921770939	0
0	260	47.275488647078	1
0	263	47.623746784025	0
0	269	48.317100321599	1
0	271	48.945080731316	2
0	272	49.180742080437	1
0	282	51.138420218406	0
0	288	51.280540387842	1
0	289	51.862981602079	0
0	302	52.771969328966	1
0	303	54.208368755837	0
0	318	54.861513221572	1
0	320	54.908148713898	2
0	322	55.35982894248	3
0	323	55.924657893937	2
0	332	56.759864396998	1
0	337	56.876287558586	0
0	352	57.592137504632	1
0	355	57.81136707918	0
0	361	57.824049116312	1
0	364	58.554473602753	0
0	399	62.93515205042	1
0	400	64.818983987431	0
0	411	66.761288954078	1
0	412	67.240751788607	0
0	421	68.594959517009	1
0	428	70.780749248536	0
0	436	71.307734131692	1
0	439	71.662573835117	2
0	445	72.748990576137	1
0	451	74.727033509814	0
0	496	80.800015757671	1
0	502	82.89740225031	2
0	503	83.399486704739	1
0	508	83.628674999224	0
0	623	109.195302795168	1
0	626	110.039114489127	2
0	628	110.137495826413	1
0	634	110.636032326112	0
0	654	116.272503936664	1
0	656	116.546878589464	2
0	659	117.736439562935	1
0	664	119.548253730654	0
0	686	123.175340252723	1
0	688	123.737905705586	0
0	695	124.079629389791	1
0	696	124.366740276213	0
0	707	124.53531619107	1
0	708	124.611919276615	0
0	726	129.896819951241	1
0	729	130.523542430861	0
0	741	131.178308214403	1
0	743	131.411384321675	2
0	747	134.02579711091	3
0	749	134.288320147136	4
0	750	135.089401135539	3
0	756	135.487017716154	2
0	761	135.62176332164	1
0	771	136.926566765055	2
0	773	137.462955634382	1
0	778	137.465393668974	0
0	789	138.471389491915	1
0	791	138.858128930799	2
0	792	139.00435444042	1
0	797	140.713806870474	0
0	801	141.115510286183	1
0	803	141.196078366216	2
0	805	141.555278174327	3
0	810	142.186898852105	2
0	818	146.034875289832	1
0	823	146.175217644164	0
0	829	146.272234105419	1
0	831	146.300153236053	2
0	837	146.712161392557	3
0	838	146.949293321372	2
0	844	147.487629890155	1
0	848	147.655101168396	2
0	852	147.964856993899	3
0	858	150.017377923727	4
0	859	150.46185429249	3
0	864	150.747524747831	2
0	871	151.911784487232	1
0	878	152.760556388361	0
0	882	153.560282156193	1
0	886	155.391896980557	2
0	889	156.034321926234	1
0	893	159.015432340022	2
0	896	160.637156137638	1
0	901	161.750791744591	0
0	905	162.085144871464	1
0	907	162.299449533191	2
0	909	162.657194648267	3
0	914	163.204068495786	2
0	920	164.404352739485	3
0	922	164.434775232472	4
0	923	164.776879761678	3
0	930	165.586637571142	2
0	934	165.644236711994	3
0	936	165.744243581777	4
0	939	166.30405817805	3
0	945	167.61557170605	4
0	946	167.721376809263	3
0	951	169.866700688112	2
0	956	171.667050769438	1
0	961	172.896209452732	0
0	965	172.917743036363	1
0	967	173.865127600814	2
0	969	174.869112165508	3
0	972	175.996807304898	2
0	980	178.279698907249	3
0	982	179.024288331827	4
0	984	179.475624178012	5
0	985	180.420752520642	4
0	991	180.536264906828	5
0	992	180.62493811692	4
0	997	180.715668151158	3
0	1001	180.781957776041	4
0	1005	182.646647290298	3
0	1011	183.613646146375	2
0	1020	184.114193006507	3
0	1023	184.302626659213	4
0	1026	185.030775032407	3
0	1031	185.884827850307	2
0	1037	186.270612564369	3
0	1038	186.532894281022	2
0	1045	189.215671566704	1
0	1050	189.936364702589	0
0	1064	191.677413205252	1
0	1066	192.278675527223	2
0	1067	192.490869587605	1
0	1075	194.33403197963	2
0	1076	194.878671936184	1
0	1080	195.455778700868	2
0	1084	195.718914307839	3
0	1085	195.761315631209	2
0	1091	198.351113599759	3
0	1092	198.717360613267	2
0	1096	201.008016837728	3
0	1098	202.122960875176	4
0	1101	206.783559295659	3
0	1107	208.749233942831	4
0	1111	209.649576775533	5
0	1115	210.662203797331	6
0	1116	210.81386440891	5
0	1120	211.359786408731	6
0	1123	212.302663586812	5
0	1128	212.701114651868	4
0	1134	213.267751677827	5
0	1136	213.485345229613	6
0	1137	214.094892501907	5
0	1142	214.671150535134	4
0	1147	215.572500776895	3
0	1156	217.422762671919	4
0	1158	218.919107972671	5
0	1159	219.407958577967	4
0	1166	219.667231184054	3
0	1173	221.824595136646	4
0	1174	221.944409208932	3
0	1180	222.65688483182	2
0	1185	222.968571230805	1
0	1189	224.160992352244	2
0	1192	224.575013965255	1
0	1198	226.84334888899	2
0	1199	227.263895818199	1
0	1206	229.809840108403	0
0	1212	230.446158857869	1
0	1213	230.95689252952	0
0	1219	233.830402088421	1
0	1220	234.343684405929	0
0	1227	234.806835823325	1
0	1228	234.881426909357	0
0	1268	240.392439710521	1
0	1269	240.845435403222	0
0	1283	241.139055944202	1
0	1287	241.615583101731	2
0	1294	243.172168997082	3
0	1296	243.517426926894	4
0	1297	244.123185625392	3
0	1303	244.464416930385	4
0	1307	245.463711892162	5
0	1309	246.556473021654	6
0	1312	246.867904235368	5
0	1319	249.115321680481	4
0	1323	250.098978943616	5
0	1327	250.560328962306	6
0	1331	251.13560895343	7
0	1334	253.877371584352	6
0	1339	254.627130670636	5
0	1344	256.945083899892	4
0	1349	258.117838904291	3
0	1353	258.172216907614	4
0	1359	261.378879721048	5
0	1362	261.631064122974	4
0	1366	261.68027094162	5
0	1373	262.550456320684	4
0	1379	263.66123536155	3
0	1384	263.667754798757	2
0	1390	264.981932996704	3
0	1393	265.561626150253	2
0	1402	267.776385623418	1
0	1409	268.153288716175	2
0	1410	268.236959459606	1
0	1415	268.41724106422	0
0	1429	271.354547044058	1
0	1432	271.668701451446	0
0	1449	272.226682852912	1
0	1451	272.463767433117	2
0	1452	272.574788700585	1
0	1459	273.156816863467	0
0	1476	275.022694725787	1
0	1478	275.215826189592	2
0	1481	276.127171598245	1
0	1486	276.423607716011	0
0	1494	278.507345106614	1
0	1497	278.852732664176	0
0	1516	282.746987988712	1
0	1522	284.369816961135	2
0	1523	284.626608659378	1
0	1529	285.413102952196	2
0	1530	285.557895776353	1
0	1537	288.150852466051	0
0	1543	288.153558514933	1
0	1545	288.261213087605	2
0	1546	288.26513433615	1
0	1551	289.066293940223	0
0	1580	295.794885669315	1
0	1581	296.815357918757	0
0	1594	299.060921154831	1
0	1598	299.883173825186	0
0	1645	315.585479113525	1
0	1646	316.191795374417	0
0	1666	317.21015469393	1
0	1668	317.724565292854	2
0	1671	319.560738124636	1
0	1678	320.594366148713	0
0	1707	324.670445472614	1
0	1708	325.201329007355	0
0	1724	327.77030395523	1
0	1728	329.010034331597	2
0	1732	330.566064094927	1
0	1738	330.818086004001	2
0	1741	331.601517409741	1
0	1746	331.720264514086	0
0	1799	338.118459968817	1
0	1804	338.480582593132	2
0	1806	338.64419983691	3
0	1808	339.083955717364	4
0	1810	340.567703257599	3
0	1815	341.404728331544	2
0	1820	341.970993033708	1
0	1827	342.756988826766	0
0	1833	343.448902345715	1
0	1835	344.087223378209	2
0	1838	348.251540582375	1
0	1844	348.779385688971	2
0	1847	349.063265341201	1
0	1852	349.147108574497	0
0	1856	349.552290895929	1
0	1860	349.887097174277	2
0	1861	351.214876402591	1
0	1869	351.822414809515	2
0	1871	352.585413790893	1
0	1876	353.086904153291	0
0	1880	353.303483163015	1
0	1882	353.927875892459	2
0	1885	354.790535086939	1
0	1892	356.233679888479	0
0	1896	356.92369397	1
0	1900	357.481088736567	2
0	1904	359.074803201076	3
0	1905	359.274627843206	2
0	1910	359.791455196606	1
0	1915	360.205108974072	0
0	1923	361.912444602077	1
0	1927	363.419041129537	2
0	1929	363.596494003983	3
0	1930	363.752528225714	2
0	1936	364.634389211941	1
0	1941	365.525896617669	0
0	1959	367.425812681836	1
0	1960	368.199889802087	0
0	1964	368.313991656403	1
0	1968	369.181004108243	2
0	1970	369.181050690281	3
0	1972	369.403496550675	4
0	1976	369.876282171514	5
0	1978	371.584610183925	4
0	1983	372.498536644813	3
0	1987	373.049236123731	4
0	1990	375.689356966427	3
0	1996	376.825780772235	4
0	1998	377.311638554451	5
0	1999	377.326867386909	4
0	2004	379.117561381175	3
0	2009	381.530468840768	2
0	2015	382.627650637849	3
0	2019	384.389257843244	2
0	2024	384.574715115772	1
0	2028	386.124983919289	2
0	2030	386.171589618537	3
0	2032	386.180160848162	4
0	2034	387.708125817765	5
0	2036	388.753019963614	6
0	2038	389.20412377721	7
0	2040	390.005027375096	8
0	2043	391.245391657962	7
0	2049	392.183486236049	8
0	2052	392.421751263633	7
0	2058	394.062407674404	6
0	2067	394.908334930089	7
0	2068	395.102577393552	6
0	2074	396.180073233161	5
0	2081	396.729713178292	4
0	2086	397.196591588107	3
0	2090	397.323492333717	4
0	2092	398.004692102982	5
0	2094	399.9181630172	6
0	2099	401.146839974093	5
0	2105	401.363591519193	6
0	2107	402.142144428836	5
0	2113	402.333565396487	6
0	2114	403.583632548638	5
0	2118	404.209574495392	6
0	2120	405.118305394276	7
0	2122	405.140614792014	8
0	2124	405.391653777427	9
0	2126	405.706764301687	10
0	2128	405.809228450388	11
0	2132	408.402253062708	12
0	2135	409.16697759578	11
0	2139	409.621130751321	12
0	2143	409.842849028679	11
0	2149	410.157337933432	12
0	2150	410.284292510009	11
0	2154	410.411640009232	12
0	2158	412.028794709908	13
0	2162	412.119918315746	14
0	2163	412.30090887682	13
0	2173	415.58715877893	12
0	2178	416.494519164696	11
0	2187	418.19590586102	10
0	2193	419.462584201222	11
0	2194	419.774084690858	10
0	2199	419.96117942797	9
0	2205	420.700640061118	8
0	2211	422.854884027564	7
0	2216	423.536487010543	6
0	2222	426.123429857072	7
0	2226	427.796356070095	8
0	2228	428.676078605605	9
0	2232	428.859777039597	10
0	2233	428.912864117519	9
0	2238	429.435407489046	8
0	2242	430.302590581493	9
0	2244	430.942515613514	10
0	2252	433.975857707995	9
0	2260	435.122899458121	8
0	2268	435.811158242094	9
0	2269	436.539783396766	8
0	2276	437.274700280553	9
0	2280	437.82254851601	10
0	2282	438.741084976937	11
0	2284	439.128429299489	12
0	2285	439.649074299729	11
0	2291	439.929998071921	12
0	2295	440.282702036855	11
0	2300	440.658002526635	10
0	2305	441.251496257894	9
0	2310	442.402453764897	8
0	2317	444.369130526698	7
0	2322	444.681049061289	6
0	2327	445.914773438374	5
0	2334	447.223251281305	4
0	2344	452.090411823595	5
0	2347	453.37254942725	4
0	2353	453.696514692512	5
0	2354	454.400106036881	4
0	2359	454.942250708443	3
0	2364	455.807052543686	2
0	2369	456.297767940996	1
0	2373	456.374169814687	2
0	2376	456.82017224453	1
0	2380	457.777150412472	2
0	2383	458.047207874744	1
0	2389	459.372366542004	2
0	2391	460.085286536475	3
0	2393	460.143840673511	4
0	2396	460.548113063658	3
0	2405	463.088943111073	2
0	2411	463.412042286447	3
0	2413	464.349471948271	4
0	2414	465.459812024373	3
0	2419	466.610972470573	2
0	2423	466.670782209807	3
0	2427	467.021876119875	4
0	2430	467.470658353931	3
0	2435	470.291901338689	2
0	2447	474.040765513037	3
0	2448	474.476147172872	2
0	2458	479.624159715833	1
0	2465	481.93647891614	0
0	2471	482.722015675905	1
0	2473	483.381923979902	2
0	2476	487.761868881267	1
0	2481	488.018061239015	0
0	2487	489.563000208541	1
0	2489	489.577399568471	2
0	2490	489.62943710491	1
0	2495	491.161157822444	0
0	2513	493.140092327969	1
0	2514	493.323726945082	0
0	2525	494.771338362865	1
0	2527	495.367346749112	0
0	2533	496.927957125242	1
0	2536	497.55125853313	0
0	2555	500.689533849565	1
0	2557	501.201526891457	2
0	2562	503.135071992334	1
0	2568	504.118484178703	0
0	2587	506.45215892995	1
0	2590	506.96926736208	0
0	2604	510.986083676898	1
0	2606	511.175768862677	2
0	2610	514.346662334525	3
0	2611	514.839063306898	2
0	2615	515.518466272752	3
0	2620	516.165850045637	2
0	2626	517.484932278752	3
0	2632	519.300628279684	4
0	2633	519.391167327605	3
0	2638	519.906754292915	2
0	2643	520.890069405299	1
0	2647	520.906571276477	2
0	2653	522.83155003366	1
0	2658	522.916892201715	0
0	2673	527.882297022715	1
0	2675	528.757429279608	2
0	2679	530.702313109327	1
0	2686	530.835970939604	2
0	2688	530.968712178694	3
0	2693	532.302368380759	2
0	2699	532.30701372323	3
0	2702	533.320862188839	4
0	2707	534.581617051178	5
0	2712	536.176928321973	6
0	2713	536.506108560527	5
0	2721	536.949643761183	6
0	2722	537.094011879891	5
0	2728	537.182472460649	6
0	2729	537.199389234129	5
0	2734	537.810746336889	4
0	2740	538.360845133553	5
0	2742	539.069830293853	4
0	2747	540.934857155638	3
0	2751	541.447047043876	4
0	2755	543.223775077347	5
0	2757	545.05845463436	6
0	2760	546.241026154086	5
0	2769	548.904087025047	4
0	2774	549.271654969414	3
0	2779	549.349329955548	2
0	2787	552.026934652901	3
0	2791	553.007057321541	2
0	2797	553.473900326509	3
0	2798	553.673085964135	2
0	2804	554.163306230083	3
0	2806	554.626297053382	4
0	2810	556.131701655753	5
0	2811	556.265187507819	4
0	2819	557.599624354012	5
0	2820	557.726026684058	4
0	2825	558.944971008929	3
0	2829	558.980369676621	4
0	2832	559.265645101934	3
0	2837	560.055793084966	2
0	2841	560.128213712104	3
0	2845	560.604268392045	4
0	2847	561.125095378481	3
0	2852	562.025024599265	2
0	2858	562.085478370989	3
0	2861	562.266134783204	4
0	2863	562.767942600399	5
0	2864	562.780136886005	4
0	2869	562.91573799586	3
0	2874	563.155974581662	2
0	2884	564.549368388226	1
0	2889	565.964449907782	0
0	2895	566.74281958093	1
0	2896	566.759293247851	0
0	2918	569.372772006877	1
0	2920	570.34209272209	2
0	2921	570.69572703053	1
0	2931	572.436604310897	0
0	2944	573.667485120098	1
0	2945	574.052223905519	0
0	2959	576.496716741395	1
0	2961	577.10880220497	0
0	2984	578.976659025443	1
0	2986	579.698803443732	2
0	2987	580.060972220734	1
0	2992	580.227141044651	0
0	3014	582.575330503254	1
0	3016	584.35082395539	0
0	3038	587.658611515815	1
0	3042	590.222510069758	2
0	3044	590.570024011323	3
0	3046	590.768377405342	4
0	3048	591.249028513878	5
0	3050	591.695861474424	6
0	3053	592.128199920288	5
0	3058	592.166933563333	4
0	3063	592.915254935924	3
0	3069	593.773321127455	4
0	3070	593.880958666874	3
0	3076	595.077433082196	4
0	3077	595.312872292069	3
0	3082	596.148642470394	2
0	3086	597.419597519794	3
0	3088	597.523245073309	4
0	3090	598.076332819613	5
0	3092	598.62761801323	6
0	3096	599.826847370063	7
0	3099	600.503699106709	6
0	3106	600.782164577635	5
0	3114	601.44390365001	6
0	3116	601.835280478298	7
0	3118	602.203429994553	6
0	3123	602.837877399151	5
0	3127	603.813135218247	6
0	3131	604.354382446684	5
0	3136	604.951926742998	4
0	3141	605.122073995178	3
0	3146	607.299543327379	2
0	3151	608.79609211817	1
0	3156	609.94067119482	0
0	3160	610.064075326644	1
0	3164	611.208272943977	2
0	3168	612.062650130338	3
0	3172	613.144507655876	2
0	3178	614.653418325314	3
0	3180	614.667986169292	4
0	3181	615.382685696715	3
0	3186	616.02676247674	2
0	3190	616.954344225633	3
0	3193	618.35629578414	2
0	3198	619.08465468371	1
0	3203	619.913734260021	0
0	3209	621.423979378399	1
0	3212	622.8082991535	0
0	3216	622.873384770017	1
0	3219	624.94744591559	0
0	3223	626.270125381877	1
0	3225	627.605747864147	2
0	3227	632.212950807711	3
0	3230	633.018395035956	2
0	3239	634.065744250108	1
0	3245	635.597653977692	0
0	3286	640.133393759774	1
0	3289	641.226053763011	0
0	3295	641.294240668681	1
0	3297	642.472486993783	0
0	3320	646.155938738111	1
0	3324	646.465153480192	2
0	3325	646.778227550888	1
0	3332	647.436474738892	0
0	3336	647.537021382495	1
0	3340	648.705833459738	2
0	3344	650.824972565767	1
0	3349	650.90426578267	0
0	3358	652.767086692427	1
0	3359	652.985234880849	0
0	3365	654.157322423017	1
0	3368	656.207999865837	0
0	3374	657.204799391178	1
0	3375	657.575351945095	0
0	3409	663.231747287946	1
0	3412	663.939710679249	0
0	3421	667.979217028638	1
0	3423	668.266664150366	2
0	3429	670.330509693709	3
0	3430	670.640971468	2
0	3434	670.734948956692	3
0	3439	673.240503503135	2
0	3449	675.186674535782	1
0	3459	675.584750412613	2
0	3461	675.858703634137	3
0	3462	675.863801217149	2
0	3467	675.953217730089	1
0	3472	676.213565652015	0
0	3491	681.058896039243	1
0	3492	681.432404010664	0
0	3509	684.057027391308	1
0	3510	684.093738651333	0
0	3528	688.027197771048	1
0	3533	688.783758832841	2
0	3535	688.926115986386	3
0	3539	689.251686333984	4
0	3542	690.122729011544	5
0	3543	690.874747547511	4
0	3548	691.343520778237	3
0	3553	691.735054104623	2
0	3559	692.008647749402	3
0	3560	692.248221360594	2
0	3564	692.33573442685	3
0	3566	692.499914676761	4
0	3568	692.617724610833	5
0	3570	693.831301888472	6
0	3574	695.252205140601	7
0	3575	695.561354685705	6
0	3581	696.35120177753	7
0	3583	697.262043499163	8
0	3585	697.584812019558	9
0	3587	697.952914172632	10
0	3593	699.976221118644	11
0	3594	702.643281336299	10
0	3598	702.74062026916	11
0	3600	703.090738846039	12
0	3602	703.559289040848	13
0	3605	703.907211267018	12
0	3609	705.683759140532	13
0	3613	705.811642327857	14
0	3614	706.410572208085	13
0	3618	707.180671155885	14
0	3621	707.817162695328	13
0	3626	708.793709079283	12
0	3632	710.533540838861	13
0	3634	710.993091447237	14
0	3639	711.715926062391	13
0	3643	711.917407536957	14
0	3646	712.225890457822	13
0	3652	713.483426237846	14
0	3653	714.640679913345	13
0	3660	716.762861535358	12
0	3666	717.713943032258	13
0	3667	718.001540187686	12
0	3672	719.065977206163	11
0	3676	719.669331890998	12
0	3680	719.782728722959	13
0	3681	719.80046992073	12
0	3687	720.652798711692	13
0	3688	720.697477665683	12
0	3693	720.995570417129	11
0	3698	722.237066545651	10
0	3705	722.848845497005	11
0	3706	722.888486024084	10
0	3712	723.941572589979	9
0	3718	726.876767528269	10
0	3720	727.55039922254	11
0	3721	727.782865766816	10
0	3728	729.09913148715	11
0	3729	729.374790516996	10
0	3734	729.491374483146	9
0	3740	730.1309256331	10
0	3741	730.512261937277	9
0	3747	731.205161424176	10
0	3749	731.429239814472	11
0	3750	731.910199113221	10
0	3755	733.007223692114	9
0	3759	734.091827473171	10
0	3763	735.089155822019	9
0	3769	736.816645731504	8
0	3777	737.96504488915	9
0	3778	738.60694009887	8
0	3784	739.341034892266	7
0	3789	739.468283472603	6
0	3795	740.1321191506	7
0	3798	741.817999900482	6
0	3802	743.4839531228	7
0	3808	745.482399582209	8
0	3811	745.751377607148	7
0	3816	746.061943152737	6
0	3821	746.067632736498	5
0	3827	747.50858133606	4
0	3833	747.678771344911	5
0	3834	747.795500989299	4
0	3841	749.560892659131	3
0	3846	749.812944800394	2
0	3851	750.374306795947	1
0	3858	751.016834563219	0
0	3874	752.546437450278	1
0	3876	752.636450110168	2
0	3877	752.881823543918	1
0	3882	753.160734523764	0
0	3909	756.140711724449	1
0	3911	756.1667086648	2
0	3912	756.289244023365	1
0	3917	756.363155658414	0
0	3925	756.90946960358	1
0	3926	757.50636275043	0
0	3955	760.132183709288	1
0	3956	760.424601668928	0
0	3972	763.582358262785	1
0	3976	764.383058196738	2
0	3981	765.293362576967	3
0	3982	765.551853565622	2
0	3989	766.260316738535	3
0	3990	766.75568271304	2
0	3997	767.580321048304	3
0	4000	770.71071552908	4
0	4001	770.934170760581	3
0	4007	771.207323090192	4
0	4009	771.449813206113	5
0	4011	772.113972097664	4
0	4016	772.730214322061	3
0	4024	773.376756647978	4
0	4025	774.255130522675	3
0	4030	775.49627807103	2
0	4039	777.019030665873	1
0	4044	777.037478398895	0
0	4058	778.368729946698	1
0	4063	780.278757952914	0
0	4077	782.66870534995	1
0	4080	784.188482250597	0
0	4097	785.591330490907	1
0	4099	786.532977263041	0
0	4120	789.704145592224	1
0	4122	789.788654527152	2
0	4126	790.170739079834	3
0	4128	791.356930242752	4
0	4134	793.971965844386	5
0	4135	794.944992995049	4
0	4140	795.330068286318	3
0	4150	796.86294500198	2
0	4155	797.304012227135	1
0	4164	799.516516594755	0
0	4170	800.410407267201	1
0	4172	800.749665721684	2
0	4173	801.353216932191	1
0	4178	801.76356229984	0
0	4194	804.053278390813	1
0	4199	805.821175206611	2
0	4201	806.340141132239	3
0	4204	808.282942325461	4
0	4207	809.972331823925	5
0	4208	811.080016087417	4
0	4215	811.744212483123	3
0	4220	812.072687161205	2
0	4225	812.211646303199	1
0	4229	813.694333221204	2
0	4231	814.272906890294	3
0	4233	814.356893906228	4
0	4235	815.149050954955	5
0	4238	816.351081967404	4
0	4245	817.228704801311	3
0	4249	817.338493578957	4
0	4253	819.590698961142	5
0	4256	820.281309655458	4
0	4265	823.282353309317	5
0	4266	823.72341975267	4
0	4270	824.506080219603	5
0	4274	824.619192237912	6
0	4278	825.695122995954	5
0	4284	826.95675977245	4
0	4291	827.167016061542	3
0	4298	828.213212305485	2
0	4303	830.253977802718	1
0	4309	831.347503934472	2
0	4310	832.222096373243	1
0	4314	832.44692889078	2
0	4318	833.372885059077	3
0	4322	834.217610824135	4
0	4323	834.337339895588	3
0	4329	835.029015057286	2
0	4335	836.358879960079	3
0	4337	836.481874386454	4
0	4338	837.451868970983	3
0	4345	838.033113315401	4
0	4346	838.177532178168	3
0	4352	838.726626011443	2
0	4357	839.007759588867	1
0	4364	839.755663281739	0
0	4368	839.996999630506	1
0	4370	841.248541012463	2
0	4372	842.10303284204	3
0	4375	843.600985287596	2
0	4380	844.216850811376	1
0	4385	844.697656285185	0
0	4392	845.985276083988	1
0	4394	846.610029859947	2
0	4395	846.62990155016	1
0	4400	846.697781434363	0
0	4406	848.011297960942	1
0	4408	848.55630754914	2
0	4414	850.20881215829	3
0	4418	850.959638156609	4
0	4419	851.542852114771	3
0	4429	854.898572897539	2
0	4434	856.196426745058	1
0	4439	856.852343587755	0
0	4450	856.985624886508	1
0	4453	858.579128109928	0
0	4466	860.301176063676	1
0	4467	861.017216065538	0
0	4484	861.80235488538	1
0	4486	862.170402307469	2
0	4490	862.637503701769	1
0	4499	864.579506687404	0
0	4515	865.364813428763	1
0	4517	866.002288477193	0
0	4532	866.874135719589	1
0	4534	867.077900590273	2
0	4538	868.936073886043	1
0	4545	869.51619114292	2
0	4546	871.638128686299	1
0	4554	872.835822310259	2
0	4556	872.910505480214	3
0	4558	873.078229405471	4
0	4559	873.173097005899	3
0	4564	873.251473210134	2
0	4570	874.265935775008	1
0	4575	874.345744697405	0
0	4590	875.124299684479	1
0	4591	875.149012433465	0
0	4597	875.482310058027	1
0	4598	875.65624887614	0
0	4641	880.683630140475	1
0	4642	880.708054612218	0
0	4656	882.937315629503	1
0	4660	883.575157812649	2
0	4663	883.793536462397	1
0	4673	888.074011177039	2
0	4677	889.468635436165	1
0	4681	890.90476381833	2
0	4683	891.430236597421	3
0	4691	892.202289175032	4
0	4693	892.263606777947	5
0	4699	893.795546386709	4
0	4707	895.787503500392	3
0	4712	896.613308292229	2
0	4717	897.035276316278	1
0	4722	897.288003560562	0
0	4726	897.684145611789	1
0	4732	898.194068744185	0
0	4760	901.087634474837	1
0	4761	901.523178849232	0
0	4768	902.722126085486	1
0	4769	902.884481621545	0
0	4788	904.555059680002	1
0	4789	904.556907028778	0
0	4805	906.560373777521	1
0	4806	906.591699540643	0
0	4812	906.810188694135	1
0	4816	908.029310862856	0
0	4822	908.030952450329	1
0	4824	908.529626219569	0
0	4836	909.502068276676	1
0	4837	909.95260650618	0
0	4885	919.81893828752	1
0	4895	924.519819089306	2
0	4896	924.986045297308	1
0	4902	926.382229586535	0
0	4914	928.701929902731	1
0	4917	929.906262750339	0
0	4936	934.623011191301	1
0	4937	935.054944096146	0
0	4953	937.3788175849	1
0	4955	939.058891333546	2
0	4958	939.56618774132	1
0	4965	940.290641619776	0
0	4987	944.177148109324	1
0	4989	946.091348430706	2
0	4991	946.563979003363	3
0	4992	946.911149910494	2
0	5001	947.858437381692	1
0	5006	948.153993244095	0
0	5012	948.196501371697	1
0	5015	948.333591818216	0
0	5045	953.230719371764	1
0	5046	953.603960994664	0
0	5083	959.465008077623	1
0	5084	959.953039929871	0
0	5103	963.766219496899	1
0	5104	963.878951314649	0
0	5142	969.287317763115	1
0	5151	970.941857398565	0
0	5157	971.017734917778	1
0	5161	971.863590562942	2
0	5162	972.534030554807	1
0	5169	972.912982471868	2
0	5171	973.338912400236	3
0	5173	973.642940761944	4
0	5174	973.81814538032	3
0	5179	974.101458063775	2
0	5184	974.478647880999	1
0	5189	974.491088704394	0
0	5202	978.132708606028	1
0	5203	978.732592508983	0
0	5226	980.61810115133	1
0	5229	983.028032004407	0
0	5236	984.962725852546	1
0	5238	985.641533636533	2
0	5239	985.810479689628	1
0	5246	986.240142297143	0
0	5276	994.642728592668	1
0	5278	995.629869221478	0
0	5304	999.591207038293	1
0	5307	1000.592092419088	0
0	5314	1000.932391578185	1
0	5316	1001.330635816568	0
0	5373	1016.168514799277	1
0	5377	1016.585156154673	0
0	5388	1017.602260119901	1
0	5390	1017.869271944171	0
0	5415	1020.552267298196	1
0	5417	1021.074776950824	2
0	5418	1021.670058056194	1
0	5424	1021.751064565973	0
0	5430	1021.934393356502	1
0	5433	1022.396961740574	2
0	5434	1022.560790607069	1
0	5439	1023.518389709279	0
0	5450	1024.148334459619	1
0	5453	1028.684498999702	2
0	5454	1030.056356987215	1
0	5460	1032.018022854474	2
0	5461	1032.717436391497	1
0	5465	1033.679735578522	2
0	5468	1034.791896167465	1
0	5472	1034.883324183622	2
0	5475	1035.765327614566	1
0	5480	1037.868957425055	0
0	5505	1041.250574094833	1
0	5506	1041.496681064527	0
0	5512	1041.517922073516	1
0	5513	1041.573898759379	0
0	5535	1043.189652522442	1
0	5537	1043.738459823878	2
0	5540	1044.349292130354	1
0	5545	1044.524091702828	0
0	5579	1049.648867687169	1
0	5580	1049.861131027277	0
0	5596	1052.51417054123	1
0	5599	1053.503671593074	0
0	5610	1054.628555697584	1
0	5611	1055.049295674822	0
0	5623	1056.498272925895	1
0	5624	1056.549740071369	0
0	5642	1060.003870379664	1
0	5644	1061.085069713125	2
0	5646	1061.210967523605	3
0	5649	1063.227453900805	2
0	5654	1063.240334658601	1
0	5659	1063.905574816587	0
0	5663	1064.15073860296	1
0	5667	1064.995914858309	2
0	5668	1065.411405511095	1
0	5673	1066.327256564065	0
0	5705	1071.84624802874	1
0	5708	1072.395152814893	2
0	5709	1072.48539558139	1
0	5714	1072.572623536495	0
0	5760	1079.386844464457	1
0	5762	1079.826383815311	2
0	5764	1080.210389217427	3
0	5765	1081.417857573988	2
0	5775	1083.934267447663	3
0	5776	1084.809902110105	2
0	5781	1085.20610890533	1
0	5787	1085.828672470491	2
0	5788	1085.908888383293	1
0	5793	1085.970909026559	0
0	5797	1086.900263566948	1
0	5799	1087.048750519483	2
0	5801	1087.235424036999	3
0	5804	1087.686426005392	2
0	5810	1088.251864949978	3
0	5811	1088.523458980654	2
0	5818	1091.168394417438	3
0	5819	1091.982098875234	2
0	5829	1094.677720750438	3
0	5830	1094.679960977199	2
0	5838	1096.011902111998	3
0	5844	1098.276244244203	2
0	5849	1098.28926533602	1
0	5854	1098.46626547066	0
0	5858	1098.8238388169	1
0	5861	1100.832413703709	0
0	5870	1102.172565569093	1
0	5872	1102.885436047087	2
0	5873	1103.322193853157	1
0	5878	1103.434556184922	0
0	5889	1105.384529172176	1
0	5890	1105.683878375877	0
0	5911	1108.029512337471	1
0	5912	1108.122767467099	0
0	5919	1109.052624153054	1
0	5920	1109.160699647768	0
0	5935	1113.177401604894	1
0	5938	1113.389793757658	2
0	5939	1113.491792952657	1
0	5944	1113.589188529306	0
0	5956	1114.864762347328	1
0	5957	1115.009343144398	0
0	5983	1117.987214295728	1
0	5988	1118.481398799448	2
0	5990	1120.62040593666	3
0	5991	1120.846690081041	2
0	5997	1121.105245071584	1
0	6002	1121.798612208977	0
0	6019	1123.717581112743	1
0	6022	1124.043621798218	2
0	6026	1124.470471994822	3
0	6028	1124.84071656093	4
0	6031	1125.801649571064	5
0	6033	1126.156434320271	6
0	6034	1126.604430426559	5
0	6039	1126.867918342261	4
0	6045	1126.892777512473	5
0	6047	1127.094773983707	6
0	6048	1127.709761602861	5
0	6054	1128.279717686111	4
0	6059	1129.649332039625	3
0	6064	1130.262252745358	2
0	6068	1130.377755682365	3
0	6071	1130.621489998449	2
0	6076	1131.085697437055	1
0	6081	1132.856155512063	0
0	6110	1136.497270716098	1
0	6112	1137.181275837178	2
0	6114	1137.285348866205	3
0	6116	1138.764591017744	4
0	6117	1138.973990153221	3
0	6123	1141.053938344379	2
0	6130	1141.357041219693	3
0	6136	1143.30980012365	2
0	6142	1143.375125479685	3
0	6145	1144.696012707199	2
0	6153	1147.227589352915	1
0	6158	1147.635300266027	0
0	6198	1151.37094339816	1
0	6201	1152.584946473775	0
0	6210	1153.785609215345	1
0	6212	1154.403462116654	2
0	6215	1155.365963020165	1
0	6221	1155.665336334024	0
0	6227	1155.711698764447	1
0	6230	1156.753781343722	2
0	6231	1156.78811199416	1
0	6236	1156.940272761248	0
0	6242	1157.112770820646	1
0	6244	1157.782020936843	0
0	6256	1158.448422469737	1
0	6259	1158.65864634298	0
0	6276	1161.113791499326	1
0	6278	1161.421226560866	2
0	6280	1161.659144446494	3
0	6285	1162.467188769388	2
0	6291	1162.98061631336	1
0	6296	1163.000381824625	0
0	6316	1166.605022654321	1
0	6320	1167.396074288887	2
0	6321	1167.600281555034	1
0	6329	1169.319508953505	0
0	6353	1171.192510160752	1
0	6355	1171.674361528863	2
0	6356	1174.709533786589	1
0	6361	1175.112866510337	0
0	6373	1176.314269393552	1
0	6375	1176.427957928047	2
0	6377	1176.941492517269	3
0	6381	1179.115108640931	2
0	6386	1179.330682603606	1
0	6391	1179.484997235714	0
0	6418	1185.468060889672	1
0	6420	1185.686572898063	2
0	6428	1187.416348862835	1
0	6433	1188.826832510266	0
0	6446	1189.632944282961	1
0	6448	1189.653777062584	2
0	6450	1190.507097230146	1
0	6456	1191.118183585511	0
0	6465	1191.291266605542	1
0	6467	1191.405698290178	2
0	6470	1192.346769676536	1
0	6476	1192.558256384566	0
0	6487	1193.259572503562	1
0	6489	1193.988887244686	2
0	6490	1194.055490213794	1
0	6498	1194.985932575364	0
0	6504	1196.11575631315	1
0	6506	1196.226405408766	2
0	6508	1196.420126985849	3
0	6512	1196.688920675692	2
0	6517	1196.861022447902	1
0	6524	1197.734047660041	2
0	6530	1198.919064510091	1
0	6535	1199.070787720864	0
0	6542	1199.88880334286	1
0	6543	1200.03159322303	0
0	6549	1200.767601868901	1
0	6551	1200.795113183866	2
0	6553	1200.950691069817	3
0	6554	1200.9686580865	2
0	6561	1202.484045648736	1
0	6567	1203.441367858837	2
0	6568	1204.438478901505	1
0	6572	1204.55645225381	2
0	6578	1205.427448852166	3
0	6580	1205.47948845897	4
0	6582	1205.654289960374	5
0	6583	1205.747591517682	4
0	6588	1207.028465679533	3
0	6592	1207.204676073402	4
0	6596	1208.149028750693	5
0	6600	1209.046206652286	6
0	6601	1209.100760662228	5
0	6609	1210.551352136459	6
0	6612	1213.927083690485	5
0	6616	1214.562780113314	6
0	6618	1214.811215327502	7
0	6623	1216.502200813982	6
0	6631	1218.945268067511	7
0	6633	1219.292953308063	8
0	6634	1219.326463027122	7
0	6638	1220.194139130896	8
0	6641	1220.421068741492	7
0	6646	1222.019696602871	6
0	6650	1222.347476618211	7
0	6653	1222.554118616094	6
0	6658	1222.767860388635	5
0	6663	1223.649814389602	4
0	6667	1224.640041254654	5
0	6670	1226.396856261184	4
0	6675	1226.875581675684	3
0	6680	1229.528549062824	2
0	6685	1230.978721895827	1
0	6690	1231.312944631158	0
0	6694	1231.941714716636	1
0	6698	1232.308551033379	0
0	6712	1233.428440367129	1
0	6714	1234.321200821155	2
0	6716	1235.130547058772	3
0	6718	1238.066603174062	4
0	6719	1239.321712757594	3
0	6725	1239.355182211668	4
0	6726	1239.655515429384	3
0	6731	1239.980941580136	2
0	6737	1240.974336635636	1
0	6742	1241.622265717936	0
0	6748	1244.246858586051	1
0	6750	1244.43511362193	0
0	6774	1250.822149152467	1
0	6776	1252.582747548551	0
0	6813	1258.061935562414	1
0	6815	1258.746629242803	2
0	6816	1258.846018243853	1
0	6821	1259.061586037861	0
0	6827	1259.339263410007	1
0	6829	1259.891356628355	0
0	6841	1260.601753104821	1
0	6846	1262.09861440836	0
0	6866	1262.942175380674	1
0	6867	1262.994234637145	0
0	6887	1268.335868267284	1
0	6889	1268.779574557905	2
0	6890	1268.834761994285	1
0	6896	1268.99756572353	2
0	6898	1269.636521987283	1
0	6904	1269.902331553928	0
0	6918	1270.408340846656	1
0	6921	1271.181470204174	0
0	6927	1271.565279781785	1
0	6928	1271.678365564239	0
0	6941	1272.753865478173	1
0	6943	1273.446209015987	0
0	6949	1273.545018441324	1
0	6952	1274.663814861761	0
0	6958	1274.798486361384	1
0	6959	1275.176975103706	0
0	6973	1276.212545802383	1
0	6979	1279.855670479997	2
0	6981	1279.95673943315	3
0	6987	1280.380444107284	4
0	6989	1280.479659367824	5
0	6990	1280.713793181109	4
0	6998	1282.34790438941	3
0	7003	1282.960325979262	2
0	7010	1283.968307899379	1
0	7017	1284.017820924072	2
0	7018	1284.796684001131	1
0	7025	1286.010961128764	2
0	7032	1287.727745109555	1
0	7039	1288.370108334266	0
0	7043	1288.484887797864	1
0	7045	1289.199033719282	2
0	7048	1290.363850911334	1
0	7053	1291.452354214387	0
0	7080	1293.874283426493	1
0	7084	1295.637974396733	0
0	7128	1304.787248073288	1
0	7131	1305.163623670576	0
0	7145	1307.361704793352	1
0	7150	1308.567855059244	0
0	7157	1309.729716255634	1
0	7158	1309.745400537395	0
0	7170	1310.309055250815	1
0	7171	1310.430874847528	0
0	7180	1311.551001315239	1
0	7183	1312.358956516043	2
0	7186	1314.291337034875	3
0	7188	1315.140307491287	2
0	7194	1315.19953369705	3
0	7195	1315.47002787236	2
0	7200	1315.74093298673	1
0	7206	1317.486428790029	2
0	7209	1318.390989503019	1
0	7213	1318.8906171284	2
0	7216	1320.015358681129	1
0	7222	1320.563977056527	0
0	7239	1322.651882255939	1
0	7241	1322.850372453846	0
0	7247	1322.935114925597	1
0	7248	1323.318748049083	0
0	7272	1327.610304774701	1
0	7273	1327.646988094982	0
0	7292	1331.143022237285	1
0	7294	1331.510265622329	2
0	7298	1332.059993264515	3
0	7300	1332.188136080651	4
0	7301	1332.244928021127	3
0	7309	1334.57723647525	2
0	7315	1334.910703631121	3
0	7316	1334.984891769164	2
0	7321	1335.402914284578	1
0	7327	1335.508979445574	2
0	7328	1335.595940189026	1
0	7332	1336.284182608735	2
0	7336	1336.70933944922	3
0	7338	1336.715006802933	4
0	7340	1337.122760479263	5
0	7344	1337.786711198803	4
0	7353	1340.275173782661	3
0	7357	1342.714016165574	4
0	7359	1342.962436137003	5
0	7362	1343.137742686062	4
0	7369	1343.776212363226	3
0	7374	1344.276145355959	2
0	7379	1345.325956589531	1
0	7383	1346.07518150899	2
0	7386	1347.96268972382	1
0	7394	1351.131029010811	2
0	7397	1352.642790333327	1
0	7401	1352.982477899528	2
0	7406	1357.087517006067	1
0	7412	1358.975917823839	2
0	7414	1359.917523527729	3
0	7416	1359.934664045962	4
0	7418	1360.793714925018	5
0	7419	1360.81733287042	4
0	7424	1361.480909943533	3
0	7428	1361.511815748811	4
0	7430	1363.636574943038	5
0	7434	1364.531369885319	4
0	7440	1364.593815914745	5
0	7441	1365.361541216057	4
0	7446	1366.631215679516	3
0	7452	1367.956642003166	4
0	7455	1369.391220658494	3
0	7459	1370.813859678026	4
0	7463	1372.365110056257	3
0	7469	1373.120987070799	4
0	7470	1374.060212232079	3
0	7476	1375.659001981178	4
0	7478	1376.084432029898	5
0	7482	1376.883198060683	6
0	7484	1377.164562201461	7
0	7488	1378.024219979197	6
0	7493	1378.033798320242	5
0	7505	1381.445957556727	4
0	7511	1382.17084884043	3
0	7516	1382.533358173995	2
0	7520	1382.729711738607	3
0	7522	1382.774854038134	4
0	7525	1384.348978441371	3
0	7533	1385.725358350435	4
0	7534	1386.157263266194	3
0	7538	1386.413780012434	4
0	7541	1389.94511194773	3
0	7546	1390.192466947407	2
0	7551	1392.723415309458	1
0	7555	1393.999950119533	2
0	7557	1394.374756432987	3
0	7560	1397.311557984325	2
0	7564	1398.473647344763	3
0	7566	1398.981540358196	4
0	7568	1399.073397556819	5
0	7572	1399.371920175531	6
0	7576	1400.279459293951	7
0	7579	1400.88255406747	6
0	7584	1401.094989434649	5
0	7589	1401.474654706733	4
0	7593	1402.128124295694	5
0	7598	1403.113264656262	6
0	7599	1403.39098511517	5
0	7605	1403.555608363917	6
0	7608	1404.195252053363	7
0	7609	1404.78743643575	6
0	7614	1405.669394341217	5
0	7621	1407.298498819166	6
0	7622	1408.245831933369	5
0	7627	1408.729269354646	4
0	7634	1409.935900882261	5
0	7636	1410.290844579064	6
0	7637	1412.546548361625	5
0	7643	1412.955449184351	4
0	7648	1413.51151153778	3
0	7654	1414.553695528558	2
0	7659	1414.875751731182	1
0	7663	1414.950471742046	2
0	7665	1415.680110919912	3
0	7670	1416.866983306045	4
0	7671	1417.041822844728	3
0	7677	1417.178221249354	2
0	7683	1417.373207189373	3
0	7684	1417.434211351528	2
0	7691	1421.291604668934	1
0	7696	1424.058642812208	0
0	7700	1424.086324043146	1
0	7702	1425.584291111423	2
0	7704	1425.881382988693	3
0	7708	1427.268476436958	2
0	7714	1428.724837932804	3
0	7715	1428.847520157037	2
0	7725	1431.062839417317	1
0	7730	1431.145820315454	0
0	7739	1431.3606287164	1
0	7741	1432.817358544932	0
0	7749	1433.788824513976	1
0	7751	1434.214375496879	2
0	7753	1435.003618060372	1
0	7760	1435.310881210598	2
0	7762	1435.391512480363	3
0	7771	1437.93511357801	2
0	7776	1438.292605423423	1
0	7781	1438.397821168172	0
0	7787	1438.679695357101	1
0	7792	1439.756865699149	0
0	7810	1442.847892619623	1
0	7811	1443.763741416975	0
0	7817	1444.318775078011	1
0	7818	1446.096149064752	0
0	7822	1446.772202593739	1
0	7825	1447.96475327569	0
0	7852	1452.618345177088	1
0	7856	1453.94289302361	2
0	7859	1454.128814010456	1
0	7864	1454.622390176565	0
0	7877	1456.697905239666	1
0	7883	1459.67309626473	0
0	7920	1466.438743174884	1
0	7929	1467.466717613272	2
0	7932	1469.030917117078	3
0	7933	1469.243043852814	2
0	7938	1469.767772193625	1
0	7943	1469.948332425936	0
0	7947	1470.062253562115	1
0	7951	1470.282646719064	2
0	7952	1470.297427286655	1
0	7957	1470.612491995161	0
0	7993	1474.798876879444	1
0	7994	1474.832521020175	0
0	8010	1475.572874012286	1
0	8012	1475.650531851423	2
0	8017	1477.16025783201	1
0	8022	1477.305517954817	0
0	8057	1480.694697257732	1
0	8059	1480.827605095222	2
0	8063	1482.090259513153	3
0	8065	1482.825747620868	2
0	8071	1484.095538909426	3
0	8072	1484.143040301788	2
0	8079	1484.709438648578	3
0	8080	1485.056093677707	2
0	8085	1485.318614153896	1
0	8090	1485.349438765668	0
0	8110	1487.09768318159	1
0	8114	1487.838989271821	2
0	8116	1488.942379295749	3
0	8118	1489.093363780261	2
0	8124	1489.494037548371	1
0	8129	1489.953866650572	0
0	8133	1490.508116291697	1
0	8138	1491.052213609878	0
0	8145	1491.658887920345	1
0	8147	1492.301610444627	0
0	8161	1494.737316474284	1
0	8162	1494.986426686846	0
0	8168	1495.426735589251	1
0	8170	1495.945256448645	0
0	8184	1496.948516342711	1
0	8185	1498.014756027761	0
0	8199	1498.709353213122	1
0	8200	1498.71330877095	0
0	8216	1499.477873926508	1
0	8217	1499.689169455139	0
0	8225	1500.406799141488	1
0	8227	1501.949797451539	0
0	8240	1504.328966796352	1
0	8243	1505.512046471866	0
0	8262	1508.800265388335	1
0	8265	1510.364602074519	0
0	8276	1512.937316188321	1
0	8280	1513.715593032441	0
0	8293	1514.713653559148	1
0	8296	1515.459629575853	2
0	8299	1515.96818590589	1
0	8304	1516.002657083228	0
0	8308	1516.774138349494	1
0	8314	1519.488376710539	0
0	8320	1520.173694813941	1
0	8322	1520.468487332528	0
0	8339	1522.1511208202	1
0	8340	1522.424787248059	0
0	8357	1523.070125855216	1
0	8359	1523.683306240894	0
0	8377	1527.09357922054	1
0	8378	1528.194868225756	0
0	8394	1530.270302250309	1
0	8396	1531.096635893284	2
0	8401	1532.992727524478	3
0	8404	1533.729001689485	4
0	8408	1533.923150043533	5
0	8415	1535.720372014122	4
0	8420	1536.11007272236	3
0	8425	1536.316298444791	2
0	8431	1536.600124248943	1
0	8437	1537.553372961012	0
0	8476	1543.08624655117	1
0	8477	1543.484615974499	0
0	8560	1561.03765119327	1
0	8563	1561.586772226183	0
0	8581	1565.231402704528	1
0	8583	1565.287006077212	2
0	8584	1566.381565812136	1
0	8590	1566.390225831592	2
0	8593	1567.559534785678	1
0	8598	1568.376138317913	0
0	8604	1568.443620635174	1
0	8606	1568.5404625757	2
0	8607	1569.185827569136	1
0	8613	1569.269531388647	2
0	8619	1571.744410690751	1
0	8625	1572.153771374632	0
0	8668	1584.750149117557	1
0	8670	1585.415652233531	0
0	8678	1585.564476498815	1
0	8679	1585.804551309147	0
0	8688	1587.145226205289	1
0	8689	1587.510239062846	0
0	8700	1587.589405272119	1
0	8701	1588.129199390843	0
0	8733	1596.783718116267	1
0	8735	1598.639284154792	0
0	8742	1598.815992913644	1
0	8743	1599.504959559162	0
0	8802	1610.976285154349	1
0	8803	1611.667457664543	0
0	8816	1613.810686208109	1
0	8821	1615.021698562568	0
0	8827	1617.904397379787	1
0	8829	1618.24175605445	0
0	8842	1618.899185401488	1
0	8844	1619.162178832549	2
0	8845	1619.368579281887	1
0	8850	1621.134423156946	0
0	8867	1626.415767895867	1
0	8868	1626.57503217839	0
0	8886	1627.475722536348	1
0	8887	1627.858435448175	0
0	8891	1627.977429221469	1
0	8894	1628.563299589857	0
0	8918	1633.899961502096	1
0	8920	1634.9555240439	2
0	8921	1635.758515726995	1
0	8928	1636.572471896068	0
0	8949	1638.529071877164	1
0	8950	1638.984026627148	0
0	9008	1652.175851675234	1
0	9011	1652.44062963197	0
0	9095	1676.91987479878	1
0	9096	1676.922446380279	0
0	9121	1679.688403581976	1
0	9123	1680.735910330054	2
0	9124	1680.826837505847	1
0	9131	1681.340446265432	0
0	9140	1682.062879501539	1
0	9141	1682.191742521956	0
0	9158	1684.69197343136	1
0	9159	1685.053057890191	0
0	9236	1710.392811118012	1
0	9238	1710.569496744984	0
0	9291	1720.621563442304	1
0	9301	1722.823915239317	2
0	9305	1723.398535583937	3
0	9306	1724.290627374635	2
0	9311	1724.31849036537	1
0	9316	1724.387454328472	0
0	9334	1726.172017904896	1
0	9335	1726.463836395946	0
0	9346	1727.294125618363	1
0	9351	1729.298439280489	2
0	9353	1731.23782045524	3
0	9354	1732.740803290356	2
0	9361	1733.381929547035	1
0	9366	1733.656724931979	0
0	9395	1738.626726438969	1
0	9398	1740.326376242448	0
0	9411	1741.264397397473	1
0	9413	1741.72984269464	0
0	9434	1743.934855044063	1
0	9440	1745.651521447394	2
0	9443	1745.897145192006	1
0	9449	1745.937566760194	2
0	9450	1746.017352729597	1
0	9455	1746.097253208336	0
0	9481	1751.367378169263	1
0	9483	1752.180406509043	2
0	9485	1752.760074960297	3
0	9488	1753.373285870276	2
0	9494	1754.6096266384	1
0	9499	1754.630006168774	0
0	9503	1755.294848286306	1
0	9506	1756.697199137605	0
0	9524	1759.206469544189	1
0	9528	1760.773834068543	0
0	9541	1761.792331278693	1
0	9544	1764.71484218984	2
0	9546	1765.280208498148	3
0	9548	1766.410797419499	4
0	9549	1766.738870463981	3
0	9554	1767.154133954046	2
0	9560	1767.454015220913	1
0	9565	1767.628025578011	0
0	9569	1769.523023812417	1
0	9571	1770.436330104588	2
0	9574	1771.835814195329	1
0	9578	1771.912560521687	2
0	9586	1773.348281910387	1
0	9592	1773.700551169127	2
0	9595	1774.336767904262	1
0	9602	1774.819674441449	0
0	9608	1775.099212013542	1
0	9609	1775.579759838172	0
0	9621	1776.151851464764	1
0	9624	1776.819352054705	0
0	9635	1777.659258240443	1
0	9637	1778.383161835206	0
0	9648	1778.791808642799	1
0	9649	1778.957875824454	0
0	9670	1783.610969842402	1
0	9673	1784.803050746605	0
0	9692	1786.471043168903	1
0	9694	1787.112783584219	2
0	9695	1787.46041096397	1
0	9701	1787.752352549683	0
0	9783	1805.234505438088	1
0	9785	1806.082991454679	2
0	9787	1806.4227961455	3
0	9790	1807.146394376566	2
0	9795	1807.198527246725	1
0	9805	1807.975511809694	2
0	9806	1808.255354710441	1
0	9811	1808.677621324447	0
0	9832	1811.153289996175	1
0	9835	1811.775167397511	2
0	9836	1811.891699410845	1
0	9840	1813.514817810072	2
0	9842	1814.423536040763	3
0	9845	1814.982004944569	2
0	9850	1815.513578984826	1
0	9854	1815.617952062693	2
0	9857	1819.816899884947	1
0	9865	1821.42719500385	2
0	9867	1821.790984626952	3
0	9869	1822.178937139889	2
0	9876	1822.895787884616	3
0	9878	1823.768454999218	2
0	9883	1824.663250896321	1
0	9887	1824.91615652596	2
0	9890	1826.315803588888	1
0	9894	1826.980785179701	2
0	9896	1827.003596806509	3
0	9903	1829.827011529492	2
0	9908	1830.727822761751	1
0	9913	1832.896132336453	0
0	9919	1833.107138943609	1
0	9925	1834.772927705793	2
0	9926	1834.968128366757	1
0	9931	1835.845279963098	0
0	9935	1836.36074891828	1
0	9937	1836.768084841199	2
0	9941	1837.650013781823	1
0	9947	1840.816446500515	0
0	9974	1843.472915605795	1
0	9980	1845.292268719737	2
0	9982	1845.3579862953	1
0	9988	1845.408330203929	0
0	10021	1850.289891700405	1
0	10022	1851.107129146258	0
0	10087	1863.976329119086	1
0	10088	1864.236419384959	0
0	10103	1864.705583027767	1
0	10104	1864.7208582192	0
0	10157	1878.655935111243	1
0	10158	1878.832332384415	0
0	10166	1879.905888626946	1
0	10168	1879.950472986165	2
0	10169	1879.974123658114	1
0	10175	1880.067687355304	2
0	10176	1880.091856366163	1
0	10183	1880.467081355272	2
0	10184	1881.080445006296	1
0	10191	1881.369036636558	0
0	10224	1886.08858409718	1
0	10225	1886.398228225927	0
0	10231	1886.805322363078	1
0	10232	1886.940296670403	0
0	10251	1888.165589018431	1
0	10252	1888.542680739336	0
0	10256	1888.572508856677	1
0	10262	1890.626419588164	2
0	10263	1890.998819821083	1
0	10268	1891.344094877841	0
0	10274	1892.03579171564	1
0	10277	1893.782585962787	0
0	10312	1900.656986176933	1
0	10314	1900.755416046952	2
0	10317	1901.127699511499	3
0	10319	1901.386768890933	4
0	10320	1901.402816176265	3
0	10327	1901.684403527557	2
0	10334	1902.354231810754	1
0	10338	1902.379112516722	2
0	10340	1903.298603790658	3
0	10342	1905.569059039731	4
0	10344	1905.977513819024	5
0	10349	1906.720637205692	4
0	10354	1907.739811134824	3
0	10358	1908.186655966374	4
0	10363	1909.519784605543	3
0	10368	1911.917748342806	2
0	10374	1913.023949977937	3
0	10376	1913.837562827328	4
0	10377	1914.66974791149	3
0	10387	1916.86488151074	4
0	10388	1917.391952553443	3
0	10393	1917.467302946628	2
0	10398	1917.496560212622	1
0	10404	1918.319136490606	2
0	10406	1918.376815051979	3
0	10407	1918.404889019915	2
0	10411	1918.904178179575	3
0	10414	1920.119005164753	2
0	10419	1921.015150337444	1
0	10423	1921.551207742509	2
0	10425	1922.508015257291	3
0	10427	1922.650709589533	4
0	10429	1922.99102232659	5
0	10431	1924.70431956562	6
0	10438	1926.772640764632	5
0	10442	1926.962097880992	6
0	10450	1928.220988439842	7
0	10452	1928.317159431861	8
0	10453	1928.57646844234	7
0	10458	1929.186332999588	6
0	10464	1931.245242073666	7
0	10465	1931.246209539404	6
0	10474	1932.716349054466	5
0	10479	1933.498857677733	4
0	10485	1934.23056150815	5
0	10486	1934.635952654261	4
0	10493	1936.154895705779	5
0	10494	1936.17412897675	4
0	10499	1936.789806012888	3
0	10506	1939.977506150152	2
0	10511	1940.653388538282	1
0	10516	1941.081938975674	0
0	10534	1944.700876045076	1
0	10537	1945.520354963707	0
0	10543	1945.53365979691	1
0	10544	1945.783614571338	0
0	10584	1950.32859645917	1
0	10587	1951.90700200304	0
0	10591	1953.420429177058	1
0	10596	1953.752109203633	0
0	10600	1953.949136091639	1
0	10605	1955.829937439784	2
0	10606	1956.342479129172	1
0	10611	1957.160461041593	0
0	10617	1958.53266730177	1
0	10618	1958.934013210562	0
0	10622	1959.199856342467	1
0	10624	1959.214126065936	2
0	10629	1962.696398033693	1
0	10633	1962.874372667499	2
0	10635	1963.03939663028	3
0	10638	1963.705995986853	2
0	10644	1964.225191969613	3
0	10645	1966.436198066836	2
0	10649	1967.481966956521	3
0	10653	1967.991981204863	4
0	10655	1968.323061625506	5
0	10657	1968.631293855289	6
0	10658	1968.700696180395	5
0	10664	1969.567922424268	4
0	10669	1969.644878154855	3
0	10673	1970.364073746734	4
0	10675	1970.647165599662	5
0	10677	1970.907657847086	6
0	10679	1971.139251034007	7
0	10682	1971.644067748871	6
0	10687	1971.735487703382	5
0	10691	1971.81950371906	6
0	10695	1972.348083986869	7
0	10697	1972.404604098359	8
0	10700	1972.53456418216	9
0	10701	1972.565390188328	8
0	10707	1972.711936956576	9
0	10710	1973.212039191943	10
0	10711	1973.308889974916	9
0	10716	1973.461269740978	8
0	10722	1976.498690965614	9
0	10725	1976.68336213355	10
0	10727	1976.697212087169	11
0	10728	1976.755052904751	10
0	10734	1977.183003416766	11
0	10735	1977.730918498622	10
0	10741	1981.145173013818	11
0	10745	1981.743263864718	12
0	10746	1981.796244612039	11
0	10750	1982.436300799389	12
0	10752	1982.570431494778	13
0	10754	1982.884989655487	14
0	10756	1984.197284870925	15
0	10759	1984.508213383215	14
0	10765	1986.421782317468	15
0	10768	1987.162804889001	14
0	10774	1988.434595042393	15
0	10775	1989.903126697044	14
0	10779	1990.015112580758	15
0	10781	1990.692955797214	16
0	10784	1991.545069656168	15
0	10788	1991.753069486212	16
0	10792	1993.160542356713	17
0	10797	1994.91401604216	18
0	10799	1995.812673040235	19
0	10801	1995.855854923732	20
0	10802	1996.615477964445	19
0	10807	1997.074268336647	18
0	10813	1999.111366669937	17
0	10818	1999.207876716096	16
0	10823	2000.447099007663	15
0	10829	2001.333510660109	14
0	10837	2001.631055170222	13
0	10842	2001.688537851975	12
0	10846	2001.729531083403	13
0	10854	2004.020228810021	14
0	10856	2004.526890862345	15
0	10858	2004.69618805886	16
0	10859	2005.035832314155	15
0	10863	2006.537871610442	16
0	10872	2008.629878569553	15
0	10876	2009.312972683015	16
0	10879	2010.105199729586	15
0	10883	2010.915500079706	16
0	10885	2011.369531318842	17
0	10889	2012.911764806143	16
0	10894	2013.065172466621	15
0	10898	2013.306291824758	16
0	10900	2013.309774123001	17
0	10904	2014.978277719051	18
0	10905	2015.67831341524	17
0	10909	2016.650559439631	18
0	10913	2017.390323766805	19
0	10914	2017.68767786098	18
0	10918	2018.214674861576	19
0	10922	2019.215036352372	18
0	10927	2019.288856160345	17
0	10931	2019.532717618732	18
0	10933	2022.149729028015	19
0	10937	2023.811934261907	20
0	10938	2024.027062193663	19
0	10947	2029.640101465466	18
0	10953	2029.97679232567	19
0	10955	2030.41700015242	18
0	10960	2030.517013133766	17
0	10967	2032.108338979654	16
0	10972	2032.587695519435	15
0	10978	2032.833071580511	16
0	10979	2032.885791869159	15
0	10985	2033.631440719921	16
0	10986	2033.865496196757	15
0	10991	2034.462785794173	14
0	10995	2034.913366637522	15
0	11000	2037.257511710839	14
0	11005	2037.47876054277	13
0	11010	2038.204771271343	12
0	11014	2038.766260475594	13
0	11016	2039.539162368263	14
0	11018	2040.167146851179	15
0	11020	2042.019144734728	16
0	11024	2044.968633131027	17
0	11026	2045.011902934582	18
0	11029	2046.346370958209	17
0	11037	2046.721081725418	16
0	11043	2047.478010465598	15
0	11050	2048.323602899083	14
0	11057	2049.450394902659	13
0	11062	2049.514777996419	12
0	11068	2050.284865587412	13
0	11071	2051.031199831173	12
0	11076	2051.362443392074	11
0	11081	2051.940363678853	10
0	11086	2052.376132502177	9
0	11098	2053.686156066307	10
0	11100	2054.689184616975	11
0	11103	2055.212092656857	12
0	11104	2055.606083862832	11
0	11109	2056.158331861058	10
0	11114	2057.967899973397	9
0	11120	2058.529629815273	10
0	11125	2060.977922874111	11
0	11126	2061.19968584849	10
0	11131	2061.254750700239	9
0	11135	2061.712940699588	10
0	11139	2062.069465817164	11
0	11143	2064.578181635913	10
0	11148	2065.073492655971	9
0	11152	2066.207757357825	10
0	11156	2066.604300700679	11
0	11157	2069.438145606618	10
0	11163	2070.760054184662	9
0	11168	2070.939165540555	8
0	11176	2073.563076016321	7
0	11181	2073.698615629969	6
0	11186	2073.727218216187	5
0	11191	2074.578540721644	4
0	11195	2074.670299690298	5
0	11204	2076.533448805764	6
0	11205	2076.677599060148	5
0	11213	2077.338373678552	6
0	11216	2078.297758195293	5
0	11224	2080.124975106332	6
0	11226	2080.223959028096	7
0	11230	2080.797827295235	8
0	11232	2081.000274103499	9
0	11233	2081.033362844141	8
0	11238	2082.538091127211	7
0	11243	2082.953432310515	6
0	11250	2084.975767874603	7
0	11254	2086.132705792472	8
0	11255	2086.135647018802	7
0	11261	2087.230160560997	6
0	11266	2087.249579706566	5
0	11270	2087.449588922928	6
0	11274	2088.712740472963	5
0	11280	2088.824795605317	6
0	11281	2088.945665774577	5
0	11287	2091.33937993011	6
0	11288	2091.506176438524	5
0	11292	2091.789544188553	6
0	11295	2095.682849759073	5
0	11299	2095.812658506257	6
0	11304	2097.206703568897	5
0	11309	2097.509536593317	4
0	11314	2097.835777302321	3
0	11319	2099.13993131533	2
0	11323	2100.09494700639	3
0	11325	2100.746087792155	4
0	11327	2102.442523277163	5
0	11329	2104.431127166369	6
0	11334	2106.115252958375	5
0	11343	2108.433590054583	4
0	11351	2109.346929144457	5
0	11352	2109.64902188466	4
0	11357	2110.58803728917	3
0	11364	2111.291286344709	2
0	11368	2111.521409351879	3
0	11372	2111.707189465252	4
0	11377	2114.254646856941	3
0	11384	2114.47882751083	2
0	11389	2114.79340586704	1
0	11395	2116.399287445858	2
0	11400	2117.702321560787	3
0	11402	2117.708246523413	4
0	11403	2118.269273064513	3
0	11408	2118.604846926341	2
0	11412	2118.88783918401	3
0	11414	2119.235966548739	4
0	11416	2119.372729739256	5
0	11418	2119.951669413826	6
0	11420	2120.681432785635	7
0	11426	2122.78886578563	6
0	11432	2123.323182922463	7
0	11435	2123.599539400311	6
0	11439	2124.535105013751	7
0	11444	2126.772452768166	6
0	11448	2127.623541146694	7
0	11452	2128.269773457449	8
0	11453	2128.671748368316	7
0	11459	2129.266275630299	8
0	11465	2132.078589054904	9
0	11469	2133.864570131562	10
0	11470	2134.103036299637	9
0	11474	2134.964682204199	10
0	11478	2136.227521402324	11
0	11481	2137.389336009139	10
0	11487	2139.337284871208	11
0	11489	2139.474880408267	12
0	11491	2140.451427477849	11
0	11497	2141.128091136928	12
0	11498	2141.404191721823	11
0	11505	2142.595261724472	10
0	11510	2143.384741713207	9
0	11516	2143.686964822452	8
0	11522	2144.044550179847	9
0	11524	2144.068912827127	10
0	11525	2145.007827365759	9
0	11533	2146.974263261986	10
0	11534	2147.38090578991	9
0	11538	2147.51411798705	10
0	11545	2148.667799824507	11
0	11546	2148.819511954335	10
0	11551	2149.00292058117	9
0	11555	2149.567965721173	10
0	11557	2150.146860613392	11
0	11559	2150.439172983857	12
0	11563	2151.808143689906	13
0	11564	2151.831041125153	12
0	11570	2152.678996842871	11
0	11575	2155.055766501337	10
0	11579	2155.569563768424	11
0	11581	2157.394035565994	12
0	11587	2158.112270381583	13
0	11588	2158.159068154466	12
0	11593	2160.877819284823	11
0	11597	2161.051291504978	12
0	11601	2161.437939063747	13
0	11605	2163.70145366154	14
0	11607	2164.413835792986	15
0	11611	2165.337051381801	16
0	11612	2165.988472107574	15
0	11621	2167.076818387025	14
0	11627	2168.141043683542	13
0	11633	2169.658230339677	14
0	11634	2170.992925623714	13
0	11640	2171.018609463492	12
0	11645	2171.877596772285	11
0	11650	2172.472065337107	10
0	11656	2174.64395536124	11
0	11657	2175.389160716439	10
0	11664	2178.215887962076	9
0	11669	2180.512413946563	8
0	11673	2181.597279276709	9
0	11675	2182.082952925341	10
0	11677	2182.587265612671	11
0	11682	2184.176306469216	10
0	11686	2184.607950094547	11
0	11690	2185.799124995481	12
0	11692	2186.452103831522	13
0	11694	2186.960330600808	14
0	11695	2187.972100271119	13
0	11700	2189.290657149044	12
0	11704	2190.325421421322	13
0	11708	2191.965200030113	14
0	11712	2192.467626544663	15
0	11717	2193.901952204295	14
0	11722	2195.33213722693	13
0	11727	2196.004767126964	12
0	11734	2196.734536100208	11
0	11738	2197.705242555779	12
0	11740	2200.185708847185	13
0	11744	2203.787694588431	14
0	11747	2204.657457781285	13
0	11751	2205.096232095249	14
0	11757	2206.613480096215	15
0	11758	2206.694613338897	14
0	11763	2207.149986117324	13
0	11770	2207.758903817346	12
0	11774	2208.666782612869	13
0	11779	2210.501081536325	14
0	11780	2210.689631330788	13
0	11786	2211.069613400281	12
0	11791	2211.565373605078	11
0	11795	2211.580463853155	12
0	11798	2211.701454125017	11
0	11803	2212.786844295916	10
0	11807	2212.877598200879	11
0	11811	2214.322627441717	12
0	11815	2215.714703131593	13
0	11818	2216.061076517074	12
0	11823	2216.613394269638	11
0	11827	2216.634003155156	12
0	11829	2216.796243450506	13
0	11836	2218.340338257148	12
0	11840	2218.476183720998	13
0	11842	2219.105954714958	14
0	11849	2220.002913615409	13
0	11854	2221.109268009089	12
0	11859	2222.316527828592	11
0	11864	2222.463042957859	10
0	11871	2224.093411876318	11
0	11873	2224.421590040096	10
0	11879	2225.182692320927	9
0	11885	2225.410290822949	10
0	11886	2225.468739055495	9
0	11891	2225.867546567741	8
0	11897	2227.593068224147	9
0	11900	2229.299864149096	10
0	11902	2229.416309754726	11
0	11903	2229.750215239062	10
0	11908	2229.831541685985	9
0	11917	2231.565147454697	8
0	11921	2231.897793837563	9
0	11923	2232.749977424947	10
0	11925	2234.267399791611	11
0	11927	2234.915664200208	12
0	11933	2235.590956966724	13
0	11934	2235.597459061514	12
0	11938	2236.01450894409	13
0	11944	2237.774932490664	12
0	11953	2239.921305403709	11
0	11958	2240.063782230331	10
0	11963	2240.471911617384	9
0	11972	2244.217871574481	8
0	11979	2245.269434675695	9
0	11980	2245.61016573188	8
0	11985	2245.858422977125	7
0	11990	2246.736113454742	6
0	11996	2248.789718755583	5
0	12001	2248.822904148058	4
0	12008	2249.798408116129	3
0	12018	2253.195498896993	4
0	12019	2254.181831886575	3
0	12024	2255.116472010431	2
0	12028	2255.235695590168	3
0	12033	2257.031143628932	2
0	12037	2257.939660451596	3
0	12042	2260.818252863908	2
0	12049	2261.401601335917	1
0	12053	2261.854710705254	2
0	12056	2262.282676180286	1
0	12062	2266.715924961582	2
0	12063	2268.811317171559	1
0	12069	2270.971062868895	0
0	12077	2272.348819889407	1
0	12079	2272.709656789113	2
0	12081	2273.376138244851	3
0	12082	2275.192535087352	2
0	12088	2275.734307182331	1
0	12095	2277.464153299714	0
0	12124	2280.439323004589	1
0	12125	2281.054747393815	0
0	12131	2281.248057307581	1
0	12136	2282.42547147232	2
0	12138	2283.654734152495	1
0	12143	2283.692105770592	0
0	12184	2290.898079856724	1
0	12185	2291.451894323116	0
0	12191	2291.469437856464	1
0	12192	2291.54098175177	0
0	12208	2293.853637100564	1
0	12210	2294.078867559866	2
0	12212	2294.645111960369	3
0	12218	2295.030008987513	4
0	12220	2295.692380461923	3
0	12229	2296.802128457571	4
0	12233	2298.888316612481	5
0	12234	2299.292856598907	4
0	12240	2299.428602900119	5
0	12242	2299.917495207593	4
0	12248	2299.993683481936	5
0	12249	2300.605418332638	4
0	12254	2300.935400444778	3
0	12260	2300.960441971076	4
0	12261	2301.285303312987	3
0	12272	2305.576509448096	4
0	12274	2306.012838310339	5
0	12275	2306.177626943185	4
0	12280	2308.260139839357	3
0	12286	2309.315909855284	4
0	12289	2310.106657400747	5
0	12291	2310.155886075822	6
0	12294	2310.688761078209	7
0	12295	2310.873707946116	6
0	12300	2312.89927904629	5
0	12305	2313.149139320209	4
0	12310	2314.69730191169	3
0	12316	2314.98744327648	4
0	12319	2315.712952770205	3
0	12325	2317.529003386315	4
0	12330	2319.285476322065	5
0	12331	2319.443981284059	4
0	12336	2319.527578015852	3
0	12341	2321.329334392239	2
0	12348	2321.787128959054	3
0	12349	2322.057832101832	2
0	12354	2322.264734284425	1
0	12359	2323.221973163186	0
0	12370	2324.527769228326	1
0	12375	2325.91881825258	2
0	12383	2332.122847046428	3
0	12384	2332.312630783633	2
0	12392	2332.446903198555	3
0	12393	2332.708545543472	2
0	12398	2332.879725686188	1
0	12402	2333.21110802999	2
0	12405	2333.466017734967	1
0	12410	2334.261904054223	0
0	12452	2339.002846754077	1
0	12454	2339.308958396396	2
0	12456	2339.855485264103	1
0	12464	2340.347833413239	0
0	12480	2341.99241557629	1
0	12482	2342.227311878353	2
0	12485	2342.775997584978	3
0	12486	2342.915632163032	2
0	12494	2343.488613596453	1
0	12501	2346.270229118208	0
0	12516	2350.964826476022	1
0	12517	2351.649717438101	0
0	12528	2352.626434786108	1
0	12531	2353.679923662868	0
0	12554	2355.545072895907	1
0	12557	2356.764682576652	0
0	12561	2356.77547179379	1
0	12564	2356.856816554374	0
0	12568	2356.92853988148	1
0	12571	2357.505813893237	0
0	12579	2358.901015275544	1
0	12580	2358.935696590087	0
0	12590	2360.498285449774	1
0	12591	2360.530759068688	0
0	12595	2361.54248191104	1
0	12597	2361.606071371565	2
0	12600	2362.700346741079	1
0	12605	2363.903105871464	0
0	12628	2366.104950037154	1
0	12630	2366.386540565773	0
0	12653	2369.057915692818	1
0	12655	2369.395024703979	2
0	12659	2370.406341734157	1
0	12663	2370.593510194551	2
0	12667	2371.262570843322	3
0	12670	2371.322731309474	2
0	12674	2372.174021476238	3
0	12676	2372.494286780404	4
0	12678	2372.896468415152	5
0	12680	2374.73079206448	6
0	12682	2374.963026018136	7
0	12684	2375.074559551314	8
0	12686	2376.789840731016	9
0	12693	2379.413611420511	10
0	12694	2379.425619539401	9
0	12699	2380.325305994879	8
0	12703	2380.634470513168	9
0	12707	2381.538196658881	8
0	12714	2381.903933002601	7
0	12718	2383.509535689596	8
0	12721	2384.418765096083	7
0	12731	2385.429048398002	6
0	12737	2385.647586612028	7
0	12739	2387.06694319988	6
0	12746	2387.732903278547	5
0	12750	2388.508187405645	6
0	12753	2389.510704620244	5
0	12757	2390.591078271814	6
0	12759	2391.402232350226	7
0	12762	2392.758845895104	6
0	12766	2392.764149061878	7
0	12768	2393.323912394591	8
0	12775	2394.633262525278	7
0	12780	2395.444555372158	6
0	12785	2395.452461881372	5
0	12791	2396.553816733555	4
0	12796	2396.583861128306	3
0	12800	2396.788473382946	4
0	12803	2398.277476468215	3
0	12813	2401.24940546506	2
0	12818	2402.863169490831	1
0	12824	2403.718609263156	0
0	12836	2405.476674970308	1
0	12837	2406.171443275085	0
0	12841	2407.536952287496	1
0	12847	2408.161604944413	2
0	12849	2408.326373368738	3
0	12851	2408.818282691252	4
0	12852	2408.905495214808	3
0	12856	2409.032931049381	4
0	12861	2411.635867502234	3
0	12866	2412.292270610579	2
0	12871	2413.393248324078	1
0	12876	2415.110395971647	0
0	12880	2416.555515612435	1
0	12884	2418.474597450269	2
0	12888	2419.260974029437	3
0	12890	2419.434334687311	2
0	12895	2419.824950890759	1
0	12900	2419.881016208995	0
0	12916	2422.258448038959	1
0	12917	2422.268567261139	0
0	12921	2425.450032272631	1
0	12926	2425.974417605013	0
0	12932	2426.593652471057	1
0	12934	2427.834476435247	2
0	12935	2427.923573699754	1
0	12939	2428.570230397024	2
0	12946	2429.759747281234	1
0	12952	2430.835747474903	0
0	12980	2438.768871098371	1
0	12983	2440.069100938022	0
0	13002	2442.762850164369	1
0	13005	2444.205876307988	0
0	13014	2444.558276487094	1
0	13019	2444.997299821089	2
0	13021	2446.007538765167	3
0	13023	2446.590327110836	4
0	13027	2448.2328168244	5
0	13029	2448.533174988799	6
0	13030	2448.88911057637	5
0	13039	2450.178315141372	4
0	13045	2450.71031165648	5
0	13047	2450.739551400832	6
0	13049	2450.996961620014	7
0	13051	2452.687869227273	6
0	13057	2453.136069602278	7
0	13058	2454.356753501201	6
0	13064	2454.365390655608	7
0	13065	2454.628404011507	6
0	13071	2454.758473426136	7
0	13073	2455.077029050721	8
0	13077	2455.972542763889	9
0	13079	2456.703726675387	10
0	13080	2456.998969035079	9
0	13086	2457.021602469095	10
0	13090	2457.778255720378	9
0	13096	2458.053053452182	10
0	13098	2458.244515386713	11
0	13104	2458.954603844825	10
0	13110	2459.45584398509	9
0	13116	2459.721785366467	8
0	13124	2460.235365108852	9
0	13125	2460.820038337028	8
0	13130	2461.13365247664	7
0	13134	2462.091206344381	8
0	13140	2465.23761754188	7
0	13145	2465.713346793903	6
0	13151	2466.336490271556	7
0	13152	2466.965227729678	6
0	13158	2467.274089368797	7
0	13161	2467.782591523928	6
0	13165	2467.984184648234	7
0	13167	2468.827809027247	8
0	13169	2469.353131893943	9
0	13172	2469.744213456908	8
0	13179	2471.678446887319	9
0	13181	2471.919444765553	10
0	13185	2474.861430977824	9
0	13191	2475.043688118441	10
0	13193	2475.295828621934	9
0	13198	2475.383822693809	8
0	13203	2475.797539672293	7
0	13209	2476.873585744433	8
0	13210	2477.233543174473	7
0	13218	2479.156245361596	8
0	13221	2479.687883245013	7
0	13228	2480.915742276224	8
0	13229	2481.409735128803	7
0	13234	2481.603340729433	6
0	13238	2481.63857882234	7
0	13244	2487.342925795219	8
0	13246	2487.397176928638	9
0	13250	2488.27700764278	10
0	13253	2489.738116395691	9
0	13258	2492.323846474471	8
0	13262	2493.553549115205	9
0	13265	2494.281943306076	8
0	13272	2495.319382295621	9
0	13277	2498.613751841976	8
0	13284	2499.26976018197	7
0	13289	2499.694496795374	6
0	13294	2501.063565275171	5
0	13302	2501.955881644532	4
0	13308	2502.286583352692	5
0	13310	2502.939895180553	4
0	13315	2502.990404088503	3
0	13320	2504.716439705598	2
0	13324	2505.662545394558	3
0	13326	2506.534246047239	4
0	13328	2506.939368422	5
0	13332	2508.750421407578	6
0	13334	2508.904988820975	7
0	13336	2509.140605272642	8
0	13337	2509.217316596508	7
0	13343	2509.755146069875	6
0	13349	2511.107623871719	7
0	13350	2511.968670172587	6
0	13354	2512.680716984688	7
0	13357	2514.437430557548	6
0	13361	2514.595235839752	7
0	13365	2515.604280191528	8
0	13368	2518.309527853709	7
0	13373	2518.319801067252	6
0	13377	2518.551998209591	7
0	13384	2519.837173831447	6
0	13389	2520.720567312915	5
0	13394	2521.355203307897	4
0	13398	2521.629566913521	5
0	13401	2522.393136710573	4
0	13407	2523.907586869618	5
0	13408	2524.224563912075	4
0	13417	2527.790024414096	5
0	13419	2527.817865094692	6
0	13421	2528.185319449124	7
0	13422	2528.531410197953	6
0	13429	2529.204887103745	5
0	13436	2530.811850955432	4
0	13442	2530.952552617784	5
0	13444	2531.420781921379	6
0	13446	2531.568629140714	7
0	13448	2531.679552086221	8
0	13449	2531.975593245908	7
0	13453	2531.981854858987	8
0	13457	2533.155052591569	9
0	13459	2533.902512546755	10
0	13460	2534.016848375865	9
0	13464	2534.140859517375	10
0	13468	2535.147467153544	11
0	13469	2535.180051671515	10
0	13475	2536.025249464503	11
0	13476	2536.24085449051	10
0	13482	2537.02760495234	11
0	13484	2537.368435927624	12
0	13487	2538.534866309312	11
0	13492	2538.585944292641	10
0	13496	2539.339511804896	11
0	13498	2539.932473816785	12
0	13500	2540.323167359626	13
0	13502	2540.627036196049	14
0	13505	2540.696281894303	13
0	13509	2540.948557224853	14
0	13511	2541.086189189972	15
0	13515	2541.48945655947	16
0	13516	2541.571289347	15
0	13520	2543.712583286162	16
0	13525	2544.576652187054	15
0	13529	2545.469149224082	16
0	13532	2545.652340548401	15
0	13539	2547.216771658484	14
0	13544	2547.30209065352	13
0	13551	2548.071484350581	12
0	13558	2549.055920298029	11
0	13564	2549.336507342639	12
0	13569	2550.652244610146	13
0	13570	2551.355202004174	12
0	13578	2553.53720254978	13
0	13581	2555.798276125384	12
0	13588	2556.376327915666	11
0	13593	2557.049993006452	10
0	13598	2557.732337961237	9
0	13602	2558.471864534077	10
0	13604	2558.865813544382	11
0	13608	2560.739408409883	12
0	13609	2561.276682155032	11
0	13617	2564.071914010722	12
0	13618	2564.089878473541	11
0	13623	2564.25279751873	10
0	13628	2564.632738232154	9
0	13635	2566.873594711697	8
0	13639	2567.760598345434	9
0	13643	2569.242611940266	10
0	13649	2569.772608975264	9
0	13657	2569.817851749399	10
0	13658	2569.909149483451	9
0	13665	2570.841025640893	8
0	13670	2572.043125498841	7
0	13674	2572.383792602044	8
0	13677	2572.583310795613	7
0	13683	2573.482525001973	8
0	13685	2574.117988325709	9
0	13686	2574.322259670139	8
0	13694	2575.226817414496	9
0	13695	2575.305434422467	8
0	13701	2576.993908940141	9
0	13702	2577.223032149528	8
0	13708	2578.517351779043	9
0	13710	2579.475195869518	10
0	13711	2579.573003013935	9
0	13715	2579.90795112753	10
0	13721	2582.281131305261	9
0	13726	2583.68266739792	8
0	13733	2585.93603910818	7
0	13737	2586.337383322162	8
0	13740	2586.750289383146	7
0	13746	2587.409500162171	8
0	13747	2588.139277300168	7
0	13753	2589.916415834092	6
0	13759	2590.820306627646	7
0	13761	2591.428110645488	8
0	13762	2591.499999361502	7
0	13766	2591.771352289399	8
0	13771	2594.05130410592	7
0	13778	2596.801245921739	6
0	13783	2596.936301241623	5
0	13789	2597.224270038775	4
0	13796	2598.087133176186	3
0	13803	2599.122917095132	4
0	13804	2599.783514273527	3
0	13812	2600.229073458719	4
0	13814	2600.571553090004	5
0	13817	2602.175015071723	4
0	13824	2603.474392778074	3
0	13828	2604.071513741784	4
0	13832	2604.395168914495	5
0	13833	2604.775799234356	4
0	13837	2605.915047603998	5
0	13840	2606.155220838603	4
0	13844	2606.472627264951	5
0	13849	2608.684353996688	4
0	13855	2610.9795552085	5
0	13857	2611.034345600243	6
0	13858	2611.238950621571	5
0	13863	2611.736983653773	4
0	13870	2614.658621458002	3
0	13875	2614.948720868445	2
0	13881	2615.206412470149	3
0	13882	2615.36438302939	2
0	13886	2615.441088647651	3
0	13890	2617.587138226638	4
0	13891	2618.222760077198	3
0	13901	2619.536386416962	4
0	13903	2619.660429569709	5
0	13905	2620.522855695302	4
0	13910	2621.243217603561	3
0	13917	2623.153829688741	2
0	13921	2624.422405090723	3
0	13924	2624.601542324798	2
0	13929	2625.308921603775	1
0	13935	2626.965681006164	0
0	13971	2631.866719435546	1
0	13973	2633.750104706583	2
0	13975	2634.73398486565	3
0	13977	2634.803123319225	4
0	13980	2635.852131983176	3
0	13986	2636.626757276446	2
0	13993	2637.264956298247	3
0	13994	2638.163718372132	2
0	13999	2638.614262912434	1
0	14005	2638.747735167536	2
0	14007	2639.017580705473	1
0	14013	2639.974534837292	2
0	14014	2640.169153090561	1
0	14021	2641.333099155803	0
0	14043	2643.931596033033	1
0	14046	2644.703436140778	2
0	14048	2645.18628286975	3
0	14050	2645.546517336583	4
0	14051	2645.616340337484	3
0	14058	2646.36881910113	2
0	14067	2647.932905482712	3
0	14068	2648.189159886725	2
0	14074	2648.838677146126	3
0	14075	2648.90647210249	2
0	14079	2649.301986070994	3
0	14083	2650.40081140924	4
0	14085	2651.036658193505	3
0	14090	2651.119338669217	2
0	14095	2651.936420612011	1
0	14102	2652.529359665922	0
0	14108	2653.820779489973	1
0	14111	2653.887475478787	0
0	14117	2655.139432754264	1
0	14122	2656.00050440671	0
0	14137	2658.237888280046	1
0	14138	2658.572764078028	0
0	14153	2660.328395297325	1
0	14155	2660.331379153619	2
0	14156	2660.366348765352	1
0	14163	2661.877147843669	0
0	14178	2662.873658548182	1
0	14180	2663.456687248047	2
0	14182	2664.192850136783	3
0	14184	2664.235483051526	4
0	14186	2664.300476912366	5
0	14188	2664.41988134022	6
0	14190	2664.477557895782	7
0	14191	2664.84607482717	6
0	14196	2665.135569060809	5
0	14204	2665.772750157331	4
0	14209	2665.819442813072	3
0	14217	2667.130143869967	2
0	14222	2667.242129646665	1
0	14227	2669.098229075993	0
0	14243	2670.675562786543	1
0	14247	2672.223816688614	0
0	14253	2672.36719740073	1
0	14256	2672.701650030666	0
0	14293	2676.930547172247	1
0	14295	2677.143466902694	2
0	14298	2677.750767081453	1
0	14303	2678.806078525589	0
0	14328	2681.721563978636	1
0	14329	2682.843043545986	0
0	14346	2684.244902014448	1
0	14347	2686.872366748085	0
0	14353	2687.227096972293	1
0	14355	2687.395258129313	2
0	14357	2687.395865275675	3
0	14358	2687.669486947969	2
0	14363	2688.202408657848	1
0	14369	2688.894662671461	0
0	14404	2694.230529341438	1
0	14409	2695.085498868634	0
0	14417	2696.078291930949	1
0	14419	2696.249254389106	2
0	14421	2696.343740345942	1
0	14426	2696.465113921143	0
0	14441	2697.448025569716	1
0	14443	2698.165160854697	2
0	14445	2698.209159004019	3
0	14447	2698.80326301888	4
0	14452	2700.626423673421	3
0	14457	2700.900128583921	2
0	14463	2702.616124914124	1
0	14469	2703.657192672601	0
0	14490	2713.533932110156	1
0	14491	2714.733447441736	0
0	14500	2715.182608473114	1
0	14502	2716.424450848473	2
0	14504	2716.630553688903	3
0	14508	2717.972348825121	4
0	14512	2719.655173235776	5
0	14514	2720.065324811222	4
0	14522	2721.951906754489	3
0	14528	2722.330158708306	2
0	14533	2722.413904676592	1
0	14540	2723.268391348156	0
0	14544	2723.557472654434	1
0	14549	2725.370342060537	0
0	14581	2731.450832126437	1
0	14584	2731.596860654528	2
0	14586	2732.270754711241	1
0	14594	2733.56009430192	2
0	14596	2733.589307589151	3
0	14598	2735.693367706836	4
0	14599	2736.511668032062	3
0	14605	2736.691764375797	4
0	14610	2737.525066580015	5
0	14611	2738.597973814457	4
0	14618	2739.709645473872	3
0	14624	2739.878439488959	4
0	14625	2739.892507242323	3
0	14630	2740.477682297362	2
0	14636	2740.529392539807	3
0	14638	2740.686463355917	4
0	14640	2742.539962755222	3
0	14646	2743.133728808809	4
0	14647	2743.912696068666	3
0	14652	2744.521589633304	2
0	14657	2744.928081312109	1
0	14664	2746.380683644094	0
0	14690	2751.41987206112	1
0	14694	2753.021549635063	2
0	14697	2753.567644555836	3
0	14698	2754.307527928988	2
0	14703	2754.419509228702	1
0	14709	2754.996108943589	2
0	14711	2755.054545424873	3
0	14712	2755.234745743537	2
0	14717	2755.905241750635	1
0	14722	2756.704355510693	0
0	14747	2762.484201421387	1
0	14748	2762.71871962767	0
0	14754	2762.997285485833	1
0	14756	2764.14329604373	2
0	14759	2765.041813042681	1
0	14763	2765.156964470165	2
0	14765	2765.778564674482	3
0	14769	2767.346457324128	4
0	14775	2767.958811836687	3
0	14781	2768.094597130712	4
0	14782	2769.108345685585	3
0	14786	2770.236768632675	4
0	14789	2770.863568352145	3
0	14793	2770.911460447231	4
0	14795	2771.237457176286	5
0	14797	2771.433608974804	6
0	14799	2772.133589092094	7
0	14802	2773.440056551533	6
0	14808	2774.302585175684	7
0	14809	2774.402215386365	6
0	14814	2775.447597353362	5
0	14818	2776.560141365857	6
0	14821	2777.419996908405	5
0	14826	2778.387468992366	4
0	14830	2779.369664401199	5
0	14833	2779.572183575065	4
0	14837	2779.945198948761	5
0	14840	2780.919473314048	4
0	14844	2781.136129481392	5
0	14848	2783.565875426096	6
0	14851	2783.865978296805	5
0	14856	2783.973798371869	4
0	14861	2785.07437646064	3
0	14866	2786.568499716746	2
0	14871	2787.746554824188	1
0	14875	2788.975007032035	2
0	14879	2789.298629120479	3
0	14885	2791.851791359809	2
0	14891	2792.617322588788	3
0	14892	2792.783875619265	2
0	14897	2793.480190863567	1
0	14904	2795.504497214803	2
0	14905	2795.866623500905	1
0	14911	2796.399939608053	0
0	14961	2803.586336906774	1
0	14965	2804.052721609295	2
0	14969	2804.458905338564	3
0	14971	2804.648937293643	4
0	14972	2806.841399394366	3
0	14977	2807.950396169492	2
0	14983	2808.41703972349	1
0	14991	2809.489560020007	2
0	14992	2809.609475063624	1
0	14998	2809.768341325706	2
0	14999	2810.086760953706	1
0	15005	2810.252525509861	0
0	15016	2810.785478195265	1
0	15017	2810.846564073339	0
0	15021	2811.050786988055	1
0	15023	2812.668904716595	2
0	15025	2812.862881938253	3
0	15027	2812.98155263086	4
0	15032	2814.672772896853	5
0	15034	2815.190678566113	4
0	15038	2815.423893239525	5
0	15041	2817.632896469431	4
0	15046	2818.664597684296	3
0	15050	2818.713881794002	4
0	15057	2821.729705580278	3
0	15063	2822.867546528125	4
0	15070	2824.437529414768	5
0	15071	2824.707141366272	4
0	15077	2824.875678832331	5
0	15080	2824.987810608062	6
0	15082	2825.258423805204	7
0	15083	2826.621266421008	6
0	15088	2826.707344339005	5
0	15093	2826.73135071444	4
0	15099	2826.936463625316	5
0	15101	2827.034432028553	4
0	15107	2827.52874758253	5
0	15108	2827.532355886849	4
0	15113	2828.0563416054	3
0	15119	2828.771975416748	2
0	15125	2829.755148056682	1
0	15129	2829.822764643477	2
0	15132	2831.270927811237	1
0	15136	2831.438477875722	2
0	15138	2832.851554133088	3
0	15140	2833.621835429982	4
0	15142	2834.341962370008	5
0	15144	2836.596252140002	6
0	15146	2837.111021114449	7
0	15150	2837.674263446543	8
0	15152	2837.940744920868	9
0	15154	2838.166861225879	10
0	15155	2838.847393984704	9
0	15162	2840.290018711682	10
0	15163	2840.532713139197	9
0	15168	2840.95055885115	8
0	15173	2841.441631514696	7
0	15177	2842.386746126305	8
0	15180	2844.090666961179	7
0	15186	2844.579039337832	8
0	15188	2844.582871891241	9
0	15192	2845.542686905794	8
0	15203	2847.181566871047	7
0	15208	2847.434465191519	6
0	15213	2847.605373098438	5
0	15218	2847.857059129871	4
0	15223	2848.798178359368	3
0	15227	2849.349923122395	4
0	15231	2851.638537079009	3
0	15236	2851.975952803399	2
0	15243	2853.946342945708	1
0	15248	2854.861390918707	0
0	15272	2856.431208297875	1
0	15274	2856.958014672017	2
0	15281	2859.314379533824	3
0	15284	2860.085749247176	2
0	15289	2860.099679998472	1
0	15296	2860.702173975017	0
0	15310	2862.445389938994	1
0	15318	2865.230841314718	2
0	15319	2866.482199368549	1
0	15327	2867.615231678424	0
0	15349	2869.577758753468	1
0	15350	2870.196732742691	0
0	15361	2871.337779086802	1
0	15362	2871.554360489666	0
0	15372	2873.053522044603	1
0	15374	2873.810449711176	2
0	15376	2874.986183715293	3
0	15381	2877.201207027101	2
0	15389	2881.108292069982	3
0	15391	2881.437179629901	4
0	15394	2881.833319347866	5
0	15396	2883.409021623866	6
0	15397	2883.594895523177	5
0	15403	2883.900664998122	6
0	15405	2883.932758591675	7
0	15406	2884.308507728539	6
0	15411	2884.420366967451	5
0	15415	2885.711991480577	6
0	15422	2887.582890538919	7
0	15423	2888.189036072311	6
0	15432	2888.462360031259	7
0	15435	2889.094825381884	8
0	15437	2889.216575951677	9
0	15438	2889.388844666539	8
0	15444	2889.730721923819	7
0	15449	2890.332861081622	6
0	15454	2890.501195159385	5
0	15458	2891.32830583169	6
0	15464	2892.71687917251	5
0	15471	2894.405224084521	4
0	15478	2895.362040914279	3
0	15484	2896.308581209026	4
0	15486	2896.392791776491	5
0	15487	2896.615481221454	4
0	15493	2898.500839907678	5
0	15494	2898.626506861973	4
0	15501	2900.075101665333	3
0	15507	2902.387431666592	4
0	15508	2902.474359026709	3
0	15513	2902.624979268292	2
0	15517	2903.263059316013	3
0	15525	2905.854667759145	4
0	15527	2906.930931787757	5
0	15528	2907.530754095686	4
0	15534	2909.575389551833	3
0	15539	2909.659896550668	2
0	15544	2910.698767087971	1
0	15551	2913.139077489544	0
0	15563	2916.918463228879	1
0	15564	2917.110983392878	0
0	15583	2919.13882823423	1
0	15592	2922.37330266289	2
0	15595	2923.106939555993	1
0	15603	2923.760211809085	2
0	15604	2923.77713963959	1
0	15610	2924.428244087151	0
0	15625	2926.264623275164	1
0	15630	2927.657693907253	0
0	15652	2932.283084452793	1
0	15655	2933.037253076816	0
0	15680	2936.723682795903	1
0	15681	2937.477322150798	0
0	15697	2938.901097625418	1
0	15699	2938.990934592965	2
0	15700	2941.488476893926	1
0	15706	2941.567884009171	0
0	15718	2943.115235262569	1
0	15722	2943.703467358137	2
0	15726	2946.723646628176	1
0	15734	2947.505201034972	2
0	15736	2948.016866265458	3
0	15737	2948.729800396611	2
0	15743	2949.151735529863	1
0	15748	2949.49539307928	0
0	15779	2957.427012124349	1
0	15780	2957.439950428254	0
0	15786	2957.659399064627	1
0	15793	2958.84921185143	0
0	15812	2960.227292407489	1
0	15816	2961.108284599884	2
0	15819	2962.709028911417	1
0	15825	2963.63510405349	0
0	15847	2966.497099899223	1
0	15848	2967.448893075814	0
0	15859	2967.614057582455	1
0	15861	2968.315123326869	0
0	15890	2972.667947023701	1
0	15893	2973.386215116222	0
0	15904	2974.573588125208	1
0	15906	2974.614379255807	2
0	15910	2975.850088704626	3
0	15914	2976.349679031781	2
0	15921	2977.190337882231	3
0	15927	2978.822671395708	2
0	15932	2978.86744683732	1
0	15939	2979.312625062059	2
0	15941	2980.122460391342	1
0	15946	2980.201143472316	0
0	15957	2981.80492906401	1
0	15959	2982.976024405249	2
0	15960	2982.987230684785	1
0	15965	2983.895087284086	0
0	15969	2984.13852017827	1
0	15973	2984.452569989353	0
0	16006	2988.78492744232	1
0	16008	2988.985662345659	2
0	16010	2989.171649589034	3
0	16012	2989.399603460733	4
0	16014	2992.716827447368	5
0	16016	2992.891287567429	6
0	16021	2995.267608459291	5
0	16026	2995.309551505017	4
0	16031	2995.691642553851	3
0	16036	2995.867239684353	2
0	16040	2996.488735014921	3
0	16044	2997.793071568432	4
0	16046	2999.125416770107	5
0	16047	2999.456335581508	4
0	16056	2999.843637182397	3
0	16060	3001.030979024444	4
0	16062	3001.812737411194	5
0	16069	3002.600930852658	6
0	16070	3003.427394851256	5
0	16074	3003.998934642782	6
0	16076	3006.3094789494	7
0	16078	3008.291757263707	8
0	16080	3008.505816334298	9
0	16084	3008.809114015841	10
0	16087	3010.066850605162	9
0	16096	3012.599438414304	8
0	16101	3013.078746529179	7
0	16110	3016.111770548598	6
0	16114	3016.613798553083	7
0	16116	3017.806935317355	8
0	16118	3018.065982486802	9
0	16122	3019.463093267464	10
0	16123	3019.970993251024	9
0	16127	3020.144527882513	10
0	16131	3021.394391632742	11
0	16132	3021.485865453591	10
0	16138	3023.413017402883	11
0	16139	3023.554525815606	10
0	16144	3025.323593467236	9
0	16149	3026.156755011741	8
0	16155	3027.247212662311	9
0	16156	3027.450809396139	8
0	16163	3028.668393499236	7
0	16167	3030.055617183255	8
0	16170	3031.056245251007	7
0	16174	3032.727035349598	8
0	16178	3033.523611444374	9
0	16179	3033.533832050605	8
0	16183	3034.001584170225	9
0	16185	3034.053647414962	10
0	16191	3035.88651264542	9
0	16199	3036.947604334288	10
0	16200	3037.610628668497	9
0	16205	3038.131156636083	8
0	16210	3038.232117173338	7
0	16218	3039.982374146857	8
0	16223	3041.415966230503	7
0	16229	3042.306116683056	8
0	16232	3043.230192533347	7
0	16236	3043.807511913811	8
0	16240	3045.20348595271	7
0	16247	3045.835112563917	6
[...]
4	152014	27367.10556637069	2449.4954523823
4	152024	27368.546604812132	2450.3254181875
4	152037	27371.287808911603	2452.5341262192
4	152053	27372.651784180095	2451.3933720698
4	152067	27373.270302186803	2446.7164341709
4	152084	27375.328082566494	2446.4671117808
4	152353	27430.804878778495	2499.8902740306
4	152359	27432.601449070335	2497.6170068426
4	152364	27432.726628029243	2497.5018081079
4	152372	27433.542352106181	2492.6491832993
4	152383	27435.820574390264	2493.1291283441
4	152388	27436.196677827808	2488.9395408601
4	152393	27437.965804044506	2487.870717888
4	152401	27439.515276500224	2486.4459048176
4	152406	27440.262082302701	2485.9610706285
4	152413	27441.433078535521	2483.3142014702
4	152430	27445.928575835911	2485.4656326789
4	152450	27447.461588957651	2483.7763111362
4	152462	27451.183561977039	2474.0302614984
4	152484	27453.658230221771	2466.06714292
4	152489	27453.876034364462	2459.0373686608
4	152495	27453.940683179894	2455.5888244996
4	152501	27454.899179690346	2454.1154423165
4	152506	27455.224927009328	2450.1730378585
4	152514	27456.194776416779	2450.0711554453
4	152525	27457.30464394419	2446.246917243
4	152536	27458.219729447061	2444.6026700063
4	152543	27461.553358977287	2447.4082673513
4	152548	27462.169078941425	2442.5332960585
4	152554	27464.052500580205	2443.5022953961
4	152561	27465.388866010457	2444.4904005686
4	152583	27468.578855158401	2439.2663496639
4	152594	27470.31642359307	2437.8174586957
4	152608	27471.905763798931	2439.2702657653
4	152614	27472.169609761041	2438.8492178609
4	152620	27473.872169301792	2436.0846772907
4	152625	27474.20716197176	2434.109956438
4	152630	27478.114394187038	2432.8919639588
4	152637	27479.442693499365	2425.3355474911
4	152649	27481.348838012731	2424.9808016718
4	152655	27483.525191304373	2423.9937703591
4	152660	27484.033190470408	2412.500323311
4	152667	27486.855809137288	2411.6692162483
4	152684	27489.288134882616	2411.4105790317
4	152695	27492.064604899175	2410.5285239381
4	152708	27495.584558290924	2412.6738151105
4	152753	27503.874607400726	2417.118967881
4	152878	27527.439550070377	2439.0769779805
4	152889	27528.829738928409	2440.4496380566
4	152904	27531.480482532184	2436.0334649246
4	152924	27534.303881964508	2438.1675431736
4	152934	27535.675359034842	2431.3283118435
4	152952	27537.670120741269	2423.0542627403
4	153082	27560.800881499121	2446.0542370162
4	153089	27562.211632030673	2441.9294762829
4	153094	27562.424050036089	2442.1231059038
4	153102	27562.904871641731	2438.3958617858
4	153110	27563.195503657653	2437.6400631345
4	153123	27564.1487065518	2437.6387164462
4	153136	27567.907235490178	2439.8999225558
4	153149	27570.295710617612	2442.2075715194
4	153162	27572.794531998199	2442.279597081
4	153183	27576.159359696464	2444.3241706416
4	153190	27576.728646741294	2435.9377338166
4	153206	27581.78630656386	2440.6145079171
4	153244	27587.886498827505	2446.040355002
4	153266	27590.040311479475	2446.5796678841
4	153271	27590.354971365534	2446.8131632012
4	153276	27590.50780178108	2443.1017627441
4	153294	27595.111497401828	2438.3220172986
4	153359	27602.173105371036	2444.3616693161
4	153374	27604.953534260103	2440.3128271543
4	153397	27608.299075388091	2438.1673178439
4	153404	27608.917081584779	2437.5120843229
4	153418	27611.510944439217	2436.6193735021
4	153447	27621.997425983498	2446.3859313455
4	153932	27719.654796122582	2542.5579424694
4	153992	27730.291857797151	2548.9697604527
4	154002	27730.973250854757	2546.3125346289
4	154008	27731.436952715531	2545.8066344631
4	154016	27732.128088830969	2537.0428461158
4	154034	27735.684311482765	2539.0654504537
4	154051	27737.842093963835	2522.7712136817
4	154064	27741.586825871782	2515.8373994615
4	154075	27742.301045992229	2514.3376758481
4	154085	27742.69506175903	2507.885218219
4	154091	27742.996668772483	2495.6935825951
4	154099	27744.721524001546	2497.1709693273
4	154115	27747.021395514315	2498.5661450656
4	154125	27747.377704171875	2492.8195154868
4	154133	27748.743123947849	2491.603087546
4	154142	27750.145554693651	2490.7541870773
4	154159	27752.218551385517	2491.7965708415
4	154174	27755.247170070196	2491.9857622702
4	154193	27759.124044280838	2486.7089907753
4	154211	27760.844371388725	2485.975655042
4	154269	27767.897979189349	2492.5949002009
4	154274	27768.314398821139	2490.9762447337
4	154281	27769.354743850753	2485.3190802084
4	154288	27771.299087977711	2484.4279301305
4	154298	27774.594508487558	2483.5467505174
4	154307	27776.081489877459	2481.438061798
4	154316	27776.504645236997	2473.0083876357
4	154337	27779.848765116844	2467.6058669232
4	154375	27786.199685544112	2471.5602846643
4	154380	27786.579540364709	2470.6451202774
4	154388	27787.0744777612	2469.6155450463
4	154421	27794.804083528331	2473.2415778312
4	154426	27795.67839138773	2469.4028973018
4	154431	27795.958254280528	2469.2675234637
4	154438	27798.433447033174	2469.9603315816
4	154443	27799.155055183981	2469.9054107885
4	154448	27800.573012121333	2469.4350342253
4	154462	27805.232449851848	2467.7947501999
4	154737	27860.53473576565	2519.9291920145
4	155694	28068.23995633802	2715.8920010796
4	155699	28068.353624377398	2714.8088882179
4	155704	28068.906014576448	2704.1225460033
4	155713	28070.253731557475	2705.33311609
4	155734	28073.143382479216	2700.1748589794
4	155741	28074.177375122452	2690.7893022634
4	155757	28078.257547786947	2693.6122789046
4	155772	28080.923995887487	2693.4406840064
4	155787	28082.32230788183	2693.8716020481
4	155796	28082.563815357515	2693.2516744458
4	155813	28085.583291336688	2693.8544537501
4	155832	28087.758109246791	2692.692113139
4	155841	28088.257024254934	2687.3707394358
4	155865	28092.492146250144	2689.0008976067
4	155892	28096.289352794499	2691.5581116779
4	156788	28308.637404467768	2902.3998157066
4	156833	28316.837527708228	2907.2043992266
4	156871	28322.160236516256	2908.6860607176
4	156884	28323.242115231637	2909.2785577317
4	156898	28324.112166222851	2909.0786417327
4	156908	28324.902341281013	2909.6479227798
4	156913	28325.129422360494	2908.1005353978
4	156920	28326.813630742797	2908.0923010658
4	156928	28328.982810161223	2907.7556823523
4	156943	28330.205988312172	2896.9008852257
4	156963	28332.948246176378	2898.5965647489
4	156985	28334.453041240187	2897.8937406739
4	157016	28338.770815095392	2893.2376548246
4	157022	28339.350764694017	2889.9195006786
4	157032	28340.691918303083	2883.6551326723
4	157042	28342.547942011121	2884.9343736646
4	157047	28342.656786591618	2880.8265033537
4	157057	28345.823457040478	2873.7199385995
4	157072	28347.300828206885	2863.7748866343
4	157079	28347.640559062105	2863.2315516685
4	157096	28350.556153590117	2864.5213119413
4	157103	28351.482758844296	2863.8436818665
4	157125	28354.839948181468	2859.9286084303
4	157292	28383.5154823858	2882.8501424781
4	157311	28385.477223578856	2870.1319886139
4	157318	28387.285573475	2870.8367228294
4	157336	28390.729818974483	2872.2093074051
4	157361	28395.007221873874	2875.0128936275
4	157384	28398.119530589808	2876.5711612097
4	157414	28401.294896106695	2878.2080813505
4	157431	28403.326496950922	2873.9815740548
4	157439	28404.906431011759	2873.8197636527
4	157444	28405.526183019602	2869.8653345095
4	157449	28405.535250819808	2856.764749489
4	157459	28406.745638479441	2847.5702662564
4	157474	28408.161216701407	2837.2318855263
4	157485	28412.835700437	2839.8337643735
4	157495	28416.12838220396	2841.1152533213
4	157529	28421.665505520023	2833.0543404467
4	157543	28427.139612487525	2835.1010095885
4	157678	28449.163720971964	2842.7554714841
4	157710	28453.779728556468	2840.9941035363
4	157715	28454.414077288154	2839.3546802122
4	157720	28454.420342093305	2827.9324457899
4	157728	28456.061744769982	2823.4813266927
4	157739	28456.442265709204	2821.8648839752
4	157747	28459.346007622209	2823.854396468
4	157760	28460.322066498095	2822.7411560916
4	157772	28461.792870293826	2819.4983629658
4	157791	28462.870499625074	2819.2888238734
4	157799	28464.103963000326	2818.338246222
4	157807	28466.044083187133	2815.1419264946
4	157817	28466.325803888505	2814.1177755473
4	157822	28466.896154426749	2813.5776792216
4	157828	28467.428688121495	2804.938675809
4	157835	28468.815089589385	2801.9955225347
4	157846	28470.415724327685	2799.6315202718
4	157909	28477.503359348779	2801.9659829487
4	157918	28477.693108702508	2800.4679518538
4	157929	28478.156922461542	2800.6262125364
4	157936	28479.218427645376	2799.244339734
4	157947	28486.505617968691	2803.5626359156
4	158078	28510.911303934052	2826.637561716
4	158086	28512.191140066338	2825.1067107384
4	158091	28512.784249088187	2825.4080136988
4	158104	28514.503574300686	2825.6126388431
4	158127	28517.677937088318	2827.7543787146
4	158144	28521.773915526216	2823.6230117203
4	158163	28524.371883775404	2825.3034912494
4	158175	28525.070041160628	2823.2276462707
4	158185	28525.91627404861	2823.7059648359
4	158190	28526.264669699239	2823.968943372
4	158195	28528.359427559719	2822.3908450639
4	158211	28535.133183645559	2828.5260099264
4	159054	28728.988611832214	3017.3606665207
4	159059	28729.205170673246	3013.7773119842
4	159064	28729.554813945964	3011.4359192041
4	159076	28730.930553044424	3012.3590022843
4	159086	28731.295017768332	3012.6742472676
4	159093	28732.161563499172	3010.6562099669
4	159105	28734.580924781697	3010.9335978798
4	159116	28735.460198085595	3011.3412855706
4	159142	28737.546977251959	3011.0667571485
4	159515	28814.955632794224	3074.3683776371
4	159520	28815.423298030757	3061.7060314678
4	159525	28815.458953405105	3061.1109576413
4	159534	28816.983373503424	3055.5892088066
4	159632	28835.061849480799	3070.9551038966
4	159654	28841.19343090379	3074.5569774705
4	159925	28898.91129899099	3129.9493869025
4	159930	28898.968629292444	3119.4553887684
4	159936	28900.954401742912	3111.2166156315
4	159941	28901.120590198075	3108.9613619477
4	159947	28902.081397360157	3106.5263278796
4	159955	28903.371398902648	3105.5114080327
4	159967	28904.375002368106	3098.4965330658
4	159979	28905.270925452033	3093.07342121
4	159984	28907.565218287248	3093.0764401712
4	159989	28907.919285024957	3086.1766459431
4	159996	28909.227874390713	3077.3091092561
4	160006	28911.49315487998	3061.8291135915
4	160029	28913.441361412348	3055.5757332081
4	160249	28955.571897233902	3092.4631376575
4	160262	28958.013346088964	3094.3562528994
4	160293	28961.651880968302	3097.4246284785
4	160298	28961.733154040724	3094.4207431109
4	160303	28961.795599555098	3091.3523851276
4	160310	28962.974597040687	3092.0454288411
4	160321	28964.132788455288	3088.6700140235
4	160326	28964.261690960991	3076.2570025656
4	160334	28965.576340909033	3075.7688532085
4	160341	28966.272414697521	3074.7361464773
4	160352	28967.911258954402	3074.6274086149
4	160396	28975.317056530755	3080.8395536443
4	160413	28976.252598470959	3078.0286689108
4	160421	28977.292334189546	3078.9544297466
4	160428	28978.424900194649	3069.4681242203
4	160434	28979.741713281577	3066.1532795866
4	160445	28981.275459874791	3066.9960428451
4	160464	28984.935230285864	3057.8452762422
4	160508	28991.570365121956	3063.3757616276
4	160514	28991.971243914103	3063.4866869232
4	160519	28992.116219753178	3062.6537391116
4	160524	28992.237006914656	3059.9893940143
4	160530	28994.10096054008	3052.3996490822
4	160538	28994.403851713704	3047.8678912856
4	160543	28995.811779847912	3046.8714742762
4	160553	28999.419882307107	3049.8407014829
4	160565	29000.28264481695	3050.1394773653
4	160574	29001.93245802633	3051.2117204039
4	160580	29002.264768752736	3045.9269484541
4	160585	29004.717618794617	3046.0797441529
4	160590	29005.295158792171	3044.1630092945
4	160615	29014.22402417751	3050.3427789673
4	160751	29026.312321164073	3059.9536832418
4	160799	29033.80381432251	3065.888709475
4	160820	29036.543932244507	3066.6088109459
4	161262	29117.480387411467	3145.3924593883
4	161274	29118.47182201602	3146.0135993568
4	161286	29120.343829942936	3146.4393815484
4	161325	29128.742141201881	3154.7097708141
4	161337	29129.483684034362	3152.1943673829
4	161348	29130.85784055099	3149.9589478486
4	161394	29136.006909046541	3148.5987665101
4	161401	29138.003752511163	3148.9564208911
4	161413	29138.998421702559	3149.6022826117
4	161427	29142.78562840609	3153.0069134771
4	161449	29143.300307286848	3145.1339539937
4	161454	29143.47857250474	3144.4493319567
4	161461	29143.950600982112	3143.0365292846
4	161479	29146.432591610153	3144.8723136653
4	161488	29148.599273353303	3142.6068595299
4	161502	29152.469866877961	3145.542978958
4	161594	29169.142785337109	3157.6957130218
4	161601	29169.659843103497	3155.9732142868
4	161615	29173.297378162394	3158.0022998304
4	161649	29176.709428909631	3158.3369296378
4	161654	29177.394213225857	3158.7709376884
4	161665	29182.827008483715	3160.9080238754
4	161694	29186.850229268989	3163.2097635004
4	161711	29188.407767192754	3162.0380291995
4	161717	29189.138058386433	3148.7736677223
4	161724	29190.062008199834	3148.2217578602
4	161733	29190.966643849673	3142.671164695
4	161739	29192.054386621172	3142.8567754261
4	161746	29192.87707935141	3142.2827544089
4	161762	29196.285876578796	3140.1457851018
4	161767	29196.3745446607	3138.7412379263
4	161772	29197.31034388493	3138.3123641044
4	161777	29198.350887557974	3133.6111573911
4	161787	29203.214862888792	3123.1651115832
4	161798	29206.321468106005	3124.9786105337
4	161807	29209.745219234143	3123.2934013923
4	161828	29212.713643330434	3123.1427790805
4	161945	29233.423689378352	3139.9300820456
4	161971	29237.641534161474	3142.4341652351
4	161978	29237.871733089729	3140.5291431237
4	161991	29239.123688013096	3137.6039447241
4	162002	29240.011824279562	3136.5398777275
4	162012	29240.354997081495	3134.3592882677
4	162022	29241.711804258681	3130.9046534468
4	162547	29354.042145952946	3237.9954558434
4	162614	29369.818677121531	3247.9838663755
4	162619	29370.235374014124	3243.2861669044
4	162626	29371.106620736584	3237.3865474306
4	162640	29374.416732420945	3231.3530670525
4	162658	29378.733330432924	3232.9386752593
4	162663	29379.473418440714	3230.3041140108
4	162672	29380.717627311932	3228.2959543983
4	162695	29385.746875564053	3230.2561150815
4	162747	29393.905761614346	3237.5508443496
4	162765	29397.143688929502	3240.5328074702
4	162842	29406.846730294855	3230.6464758212
4	163172	29486.476885552618	3310.1980640743
4	163182	29488.557576222638	3311.7163607467
4	163192	29490.70857788443	3313.1721859666
4	163214	29496.995258521775	3318.9173884876
4	163233	29500.529406954475	3312.0462091237
4	163264	29508.235233893161	3312.5676692971
4	163274	29508.308872031415	3296.06311905
4	163280	29508.673103312846	3290.1067467585
4	163286	29510.132923904371	3290.4710681595
4	163291	29510.268032948779	3286.6408315924
4	163301	29517.2163620382	3293.1239361409
4	163324	29520.031585222028	3294.932664565
4	163351	29524.31738606323	3297.8753011422
4	163587	29579.005203724717	3349.7281471837
4	163594	29579.683023924837	3348.2299790708
4	163609	29581.489050652604	3345.5106765563
4	163633	29585.523642521831	3345.7069504693
4	163647	29586.943450769575	3345.1452217526
4	163660	29588.904280919826	3346.5810734467
4	163671	29590.42501432127	3342.0884765804
4	163696	29594.14663266433	3345.6824239718
4	163704	29595.802391627653	3346.4682420142
4	163714	29596.964761408529	3342.4428076855
4	163726	29598.119700065254	3343.4687840513
4	163753	29599.269332100147	3341.3891165187
4	163760	29599.74742651631	3334.6749026271
4	163781	29601.793698662609	3328.3020443659
4	163788	29601.9525299518	3323.1986469689
4	163803	29605.392718285164	3324.3989435027
4	163823	29609.659670139415	3326.9140866337
4	163834	29613.429435616331	3324.6868197589
4	163861	29616.150677479452	3316.8795136035
4	163866	29616.655729507234	3314.2969457509
4	163871	29617.195269187778	3307.6799504846
4	163882	29618.703478665441	3302.2777985787
4	163912	29622.415534906064	3293.5669538011
4	163943	29628.321731036469	3298.4143952051
4	163949	29629.008301718368	3295.4370933423
4	163962	29633.170420707684	3292.856870441
4	164031	29642.062382357706	3288.8121390788
4	164038	29642.251707088269	3288.3541990976
4	164048	29644.633352327207	3285.8617922669
4	164054	29646.027185772271	3286.2836908115
4	164059	29646.28421352649	3285.1300681482
4	164069	29647.419828356988	3277.0841490202
4	164083	29649.246361850517	3271.073048328
4	164113	29654.063162134984	3262.2884534466
4	164140	29660.495331685258	3267.3261845047
4	164164	29666.120876806083	3269.1491930131
4	164173	29667.381756767424	3269.4638934317
4	164187	29669.494200387999	3270.791863225
4	164192	29670.554663076583	3269.9461483589
4	164201	29671.935098497524	3270.457594263
4	164210	29674.654689138571	3271.2274014063
4	164222	29677.477137078784	3272.4409198655
4	164239	29681.021401824128	3275.62658574
4	164254	29682.424961641696	3276.0167856977
4	164325	29702.06705647426	3291.0326695754
4	164349	29704.505676478109	3293.2506535335
4	164354	29704.739514149707	3292.7996902683
4	164364	29706.30440035946	3274.4574260961
4	164417	29714.559197103843	3281.5094838642
4	164427	29715.078686798992	3267.6204850091
4	164445	29720.967980339963	3272.9937280978
4	164563	29746.219970730585	3291.5036458763
4	164570	29746.26742660366	3291.2661179674
4	164577	29746.477005474424	3290.2568793472
4	164798	29786.790298755702	3321.8797280342
4	164806	29789.267962111434	3321.2518281965
4	164818	29790.744860084298	3320.4810864892
4	164834	29794.074984521316	3322.1390315248
4	164880	29803.17652257713	3328.5424005321
4	164893	29804.49574016752	3322.9257367704
4	164906	29805.122253264398	3313.4368376276
4	164916	29805.268057566959	3312.2679343813
4	164926	29807.438669578858	3310.5470308847
4	164952	29812.630898807546	3309.1156388139
4	164957	29813.191182114922	3305.1539183523
4	164969	29815.885695478743	3307.5835199252
4	164988	29817.948310634589	3307.5384618689
4	164993	29818.175841564239	3305.8022420774
4	165002	29819.559971900483	3298.9568482904
4	165019	29823.359546569248	3286.2627951597
4	165038	29825.29030386886	3271.5930234299
4	165043	29825.435297395173	3269.6215916354
4	165048	29826.291938302128	3268.7772961022
4	165065	29830.309271181955	3270.3324768538
4	165088	29833.919607396726	3269.7878641204
4	165093	29834.802477893628	3266.2339153823
4	165101	29836.798169427657	3264.8407732537
4	165113	29838.592562208822	3257.735611363
4	165127	29840.085403596587	3255.4389847556
4	165132	29840.356861495535	3248.032893029
4	165143	29843.231129092749	3249.8808209617
4	165268	29869.382504927453	3274.208688042
4	165275	29870.476630839318	3270.2099640902
4	165282	29871.311905356048	3270.7880482094
4	165287	29872.183023904812	3269.1609151958
4	165306	29875.498060606803	3272.4420680991
4	165313	29876.700534684633	3272.378941208
4	165322	29878.822555811079	3272.2628664653
4	165354	29881.371364489465	3273.9129307779
4	165361	29882.578224775661	3271.9799530639
4	165377	29886.033145749269	3275.2113253359
4	165383	29886.502665577003	3275.242802678
4	165388	29887.278187598071	3272.8499072252
4	165397	29889.079034061113	3274.4118705511
4	165410	29891.061981140587	3268.698152978
4	165415	29891.078273659779	3265.7265508906
4	165423	29892.386130135807	3262.1996105468
4	165428	29893.596394484273	3260.820822557
4	165436	29896.04107018045	3259.9133036616
4	165442	29896.750792146166	3258.9172860625
4	165448	29897.586969737422	3257.8836551934
4	165453	29897.796095722058	3254.8965444065
4	165458	29898.471631309353	3254.5490438887
4	165469	29899.338472463266	3253.8883702785
4	165489	29902.461628996673	3249.8818357352
4	165510	29903.735113457951	3246.0728507184
4	165528	29905.876100960398	3241.5464403062
4	165537	29908.056961205442	3241.3623294588
4	165552	29909.616517002467	3236.4544615771
4	165562	29910.534455802083	3236.5095043951
4	165569	29911.022832214108	3236.1650318113
4	165656	29929.401889443496	3253.8166611657
4	165688	29934.607085569492	3255.4842897098
4	165706	29937.382769631691	3257.0898099585
4	165723	29938.350181818713	3250.4167848036
4	165728	29938.465587935943	3246.7610108921
4	165735	29939.371434755584	3240.9535575475
4	165750	29947.583052392702	3243.1630475394
4	165974	29994.525110265783	3289.6735843283
4	165986	29994.925773245076	3284.0858265449

