version 2
run First-n5-14-20191016-17:03:52-1212
attr configname First-n5
attr datetime 20191016-17:03:52
attr experiment First-n5
attr inifile omnetpp.ini
attr iterationvars ""
attr iterationvarsf ""
attr measurement ""
attr network org.omnetpp.queueing.Pizza
attr processid 1212
attr repetition 14
attr replication ""
attr resultdir results
attr runnumber 14
attr seedset 14
param **.PS.maxInventoriedPS 5
param **.U1.interArrivalTime exponential(2s)
param **.U2.interArrivalTime exponential(4s)
param **.PS.serviceTimeForInventoryU1 exponential(0.8s)
param **.PS.serviceTimeForInventoryU2 exponential(1.0s)
param **.PS.serviceTimeDirectU1 exponential(1.2s)
param **.PS.serviceTimeDirectU2 exponential(1.4s)
param **.PS.probabilityProducing 0.5
param **.CS.serviceTimeU1 exponential(0.8s)
param **.CS.serviceTimeU2 exponential(1.0s)

vector 0 Pizza.EntryQueueU1 queueLength:vector ETV
attr interpolationmode sample-hold
attr title "queue length, vector"
vector 1 Pizza.CS queueLength:vector ETV
attr interpolationmode sample-hold
attr title "queue length, vector"
vector 2 Pizza.EntryQueueU2 queueLength:vector ETV
attr interpolationmode sample-hold
attr title "queue length, vector"
vector 3 Pizza.sink lifeTime:vector ETV
attr interpolationmode none
attr title "lifetime of arrived jobs, vector"
attr unit s
vector 4 Pizza.sink lifeTimeU1:vector ETV
attr interpolationmode none
attr title "lifetime of arrived jobs, vector"
attr unit s
vector 5 Pizza.sink lifeTimeU2:vector ETV
attr interpolationmode none
attr title "lifetime of arrived jobs, vector"
attr unit s
0	0	0	0
0	36	7.626999046764	1
0	38	8.121256100938	2
0	40	8.592762200753	3
0	43	9.015562409945	2
0	47	9.290477850807	3
0	53	12.082512191556	4
0	56	14.807052354365	3
0	61	15.550341021095	2
0	68	18.662060041799	1
0	72	19.533082634406	2
0	74	19.783352831826	3
0	79	21.125440150436	2
0	89	21.923402854585	3
0	90	22.223555706012	2
0	96	23.178123964034	1
0	101	23.346580836548	0
0	122	24.636962172741	1
0	124	25.316049656925	2
0	125	25.66949243822	1
0	131	26.732722597439	0
0	153	28.541120584351	1
0	155	29.88324860689	0
0	174	31.193327856406	1
0	176	32.389651279579	2
0	178	32.578047182824	3
0	180	33.699032736389	4
0	183	34.362025287344	3
0	193	35.247446043162	2
0	199	35.480822734369	3
0	201	35.95095534835	4
0	202	36.061679513684	3
0	207	36.275887387052	2
0	212	36.345266017002	1
0	216	36.432617714555	2
0	219	36.989474935104	1
0	224	37.33250529324	0
0	233	38.121827624036	1
0	241	39.051720331575	2
0	245	39.617952809793	3
0	248	41.309624465348	2
0	254	43.22338801666	1
0	259	44.015963744994	0
0	284	50.234808548404	1
0	288	50.844470518017	0
0	294	50.977615240935	1
0	295	51.029013479231	0
0	380	66.302461522438	1
0	381	66.980210750187	0
0	387	67.15857894343	1
0	388	67.241699943081	0
0	425	75.158965069293	1
0	426	75.224290275211	0
0	432	75.677129448295	1
0	434	76.963845648478	2
0	435	76.997925173206	1
0	441	77.161613882078	2
0	442	77.233846306864	1
0	448	77.900508073975	2
0	450	78.03122647498	3
0	451	78.16702777439	2
0	459	78.55974116863	3
0	460	78.79277342491	2
0	467	79.788388030944	1
0	471	79.898931084438	2
0	473	80.163323886721	3
0	477	81.652676605765	4
0	478	82.168150851533	3
0	485	83.20732999375	4
0	486	83.405266837339	3
0	492	83.856912719164	2
0	497	84.282926983433	1
0	501	84.37796550537	2
0	506	86.0845078051	1
0	513	86.867336980176	0
0	538	90.510357712542	1
0	543	90.652155667053	2
0	545	90.794563973235	3
0	550	93.146068782252	2
0	557	93.392002219536	1
0	563	94.310366866144	0
0	577	98.41228173508	1
0	578	98.640217432179	0
0	596	100.298387793092	1
0	597	100.425227294196	0
0	618	101.684251938142	1
0	620	101.963200109596	2
0	621	102.773373086367	1
0	626	103.444945940002	0
0	682	114.609520200043	1
0	683	114.750812571312	0
0	696	115.731310990292	1
0	697	116.709893531734	0
0	734	124.596739536033	1
0	737	128.853229411782	0
0	749	130.384838447592	1
0	750	130.426514184035	0
0	785	138.289996582181	1
0	794	141.142425454057	0
0	800	141.298969375529	1
0	803	142.565996659535	0
0	847	148.925911910079	1
0	849	149.795277114997	2
0	853	150.079134693916	1
0	858	150.488569110829	0
0	866	150.607281140525	1
0	867	151.128282042898	0
0	873	153.408719357088	1
0	878	154.238069553053	0
0	882	154.46408548869	1
0	887	155.313783550033	0
0	891	157.409544030045	1
0	893	159.748958936546	2
0	897	160.12260786614	1
0	903	161.058404855783	2
0	905	161.754862173429	1
0	912	161.994117989063	2
0	915	163.270100971565	1
0	922	163.7276482206	0
0	928	164.492681869771	1
0	931	165.78300268846	2
0	932	167.087160191981	1
0	940	167.9763039438	2
0	944	169.483284685468	3
0	945	171.187384261399	2
0	950	172.635236002582	1
0	956	173.858578037456	0
0	976	177.701218345142	1
0	977	178.855037121385	0
0	988	179.616217729574	1
0	995	180.970907606882	2
0	997	183.219261684498	3
0	998	183.486755523128	2
0	1003	184.160280723982	1
0	1008	185.071165443168	0
0	1014	185.401339394248	1
0	1015	185.628102659068	0
0	1046	189.959377888539	1
0	1048	190.215967832622	2
0	1049	190.354352409282	1
0	1057	190.959256624213	0
0	1069	192.795413442911	1
0	1076	194.839170784764	0
0	1132	206.529438834717	1
0	1133	207.637073002503	0
0	1142	208.683180981307	1
0	1144	208.99585617708	0
0	1158	209.623578515445	1
0	1159	209.996892424477	0
0	1165	210.062506547571	1
0	1167	210.558435008224	2
0	1169	210.676283277384	3
0	1175	212.97884767082	2
0	1180	213.13652526191	1
0	1185	213.144205587867	0
0	1202	215.121362566411	1
0	1204	218.506798071029	2
0	1205	219.625300910354	1
0	1210	219.75213590563	0
0	1216	219.89909875903	1
0	1221	222.077313192813	2
0	1223	224.529484277812	3
0	1225	224.61605584037	4
0	1226	225.661516497308	3
0	1231	226.021499500499	2
0	1239	226.644786145578	3
0	1242	227.354620184646	2
0	1249	227.746470381075	3
0	1252	228.297865332755	4
0	1253	228.598496876525	3
0	1259	228.62663638434	4
0	1261	229.490919714266	5
0	1264	229.533332906053	4
0	1270	229.551180593558	5
0	1272	229.67148256258	6
0	1274	230.131498023034	5
0	1280	231.015937603421	6
0	1282	231.016586374343	7
0	1285	231.375251089242	6
0	1291	231.622213539012	7
0	1292	232.026138462242	6
0	1297	232.434854223902	5
0	1301	234.353507712178	6
0	1303	235.460354725453	7
0	1305	236.212876767707	8
0	1307	237.758693734877	9
0	1309	237.944383575858	10
0	1313	238.52354730848	11
0	1314	239.030694693368	10
0	1319	239.615813199107	9
0	1323	240.419636107236	10
0	1326	242.821362137516	9
0	1330	243.488737977713	10
0	1333	243.778069837291	9
0	1341	244.958706384783	10
0	1342	246.34212248085	9
0	1346	247.106606458911	10
0	1350	247.333839591337	11
0	1354	247.944498274152	12
0	1355	248.346842096669	11
0	1359	248.992059315618	12
0	1364	249.548949974967	11
0	1368	249.724427049722	12
0	1371	250.116412677841	11
0	1376	253.741713098493	10
0	1380	254.062248374331	11
0	1383	256.138943885501	10
0	1389	256.237989655005	11
0	1390	256.431716698266	10
0	1394	256.612922414545	11
0	1396	256.783949964973	12
0	1399	258.087591315354	11
0	1403	258.711472861316	12
0	1405	259.437709752288	13
0	1410	259.479061880967	12
0	1414	259.586016669251	13
0	1420	261.353553052654	12
0	1425	261.829461733464	11
0	1430	262.162892356063	10
0	1442	264.779482013758	11
0	1443	264.963850932576	10
0	1449	265.635604522265	9
0	1454	266.424037196752	8
0	1465	268.745564731909	7
0	1472	269.358653727329	8
0	1473	270.195448770731	7
0	1478	272.001136241273	6
0	1483	272.701912689878	5
0	1489	273.953207529351	4
0	1497	274.907644472939	5
0	1499	275.278248200345	6
0	1500	275.336934619143	5
0	1507	276.467161470062	4
0	1515	282.101545068732	5
0	1516	282.525939211599	4
0	1522	283.446099219984	5
0	1523	283.621337265294	4
0	1528	285.103855056467	3
0	1533	286.023325917502	2
0	1538	286.201202983259	1
0	1546	286.522768028595	2
0	1548	286.573257625487	3
0	1549	287.692481305779	2
0	1554	288.195735528748	1
0	1559	288.800753632678	0
0	1563	289.00474364295	1
0	1568	291.143681989594	0
0	1576	292.966808012828	1
0	1580	294.671353215341	2
0	1587	295.439926859742	3
0	1588	295.77855707846	2
0	1594	296.250923990276	3
0	1596	296.258285422693	4
0	1597	296.421815313506	3
0	1601	298.121171360057	4
0	1603	298.219174042933	5
0	1607	298.389022329538	6
0	1612	300.94003301722	5
0	1620	305.576036495251	4
0	1625	306.071723171089	3
0	1630	307.410961311546	2
0	1640	308.97792733783	1
0	1647	309.859441225725	2
0	1648	310.974397801317	1
0	1654	311.417415134494	2
0	1655	312.619322249684	1
0	1661	313.491202488415	0
0	1720	324.657022405879	1
0	1722	324.719829346616	2
0	1724	326.227815467252	3
0	1731	328.217290597667	2
0	1738	328.582802096801	3
0	1740	328.703867667784	4
0	1743	329.067709006498	5
0	1745	330.091548974189	4
0	1750	330.106248728291	3
0	1755	330.230181968283	2
0	1761	330.742002439536	1
0	1767	330.808864087487	2
0	1768	330.864798029747	1
0	1774	331.070112501693	2
0	1778	333.007307146749	1
0	1785	334.179106707468	2
0	1790	336.458249388768	1
0	1795	336.71290728249	0
0	1813	340.299880599577	1
0	1814	340.479248865909	0
0	1860	343.44919682625	1
0	1866	344.517862211434	2
0	1867	344.81680228022	1
0	1873	345.01624532369	2
0	1874	345.312032800426	1
0	1881	345.712605025104	2
0	1882	346.240354313305	1
0	1887	347.191492862616	0
0	1894	348.223039680079	1
0	1895	349.106444487239	0
0	1919	350.555154624631	1
0	1922	351.886459676211	0
0	1937	353.264185821933	1
0	1940	354.917125940825	0
0	1963	357.958960506437	1
0	1964	358.156465161027	0
0	1980	359.250258225045	1
0	1988	363.734958237378	0
0	2000	364.299849639473	1
0	2005	366.161116605718	2
0	2007	366.552109258177	1
0	2012	366.631566305346	0
0	2037	369.213127733066	1
0	2041	369.649742353455	2
0	2043	370.396046327308	3
0	2044	370.475938689882	2
0	2049	371.341777318565	1
0	2056	372.020745412745	0
0	2073	374.57650663201	1
0	2074	374.968349015834	0
0	2086	376.313919104469	1
0	2088	376.792151388267	0
0	2095	377.225235670747	1
0	2098	377.396013474275	2
0	2102	377.839431774652	3
0	2104	378.129837606821	2
0	2109	378.965250502647	1
0	2118	381.198384607316	0
0	2131	382.601448302433	1
0	2132	382.791468599913	0
0	2151	384.998387481671	1
0	2152	385.055111997243	0
0	2158	385.256789877101	1
0	2162	386.257972490288	0
0	2183	390.568644165305	1
0	2186	391.885330069365	0
0	2202	396.327355253371	1
0	2206	396.745435217044	0
0	2235	403.031696597323	1
0	2236	403.489510277873	0
0	2261	407.825833810166	1
0	2265	408.047573496027	0
0	2271	408.460000569589	1
0	2272	408.585145212907	0
0	2289	410.753319076005	1
0	2292	410.813416920432	0
0	2301	411.755045209673	1
0	2303	413.039824751803	2
0	2305	413.329917103882	3
0	2307	413.338808150491	4
0	2312	414.999552923299	3
0	2318	416.540401202382	2
0	2324	416.691296417172	3
0	2326	416.865286470651	4
0	2328	417.691855479745	3
0	2336	419.305711486317	2
0	2341	419.858873732972	1
0	2345	420.535060126142	2
0	2348	420.809792458128	1
0	2357	421.65534184899	2
0	2360	422.224020340718	3
0	2362	422.531784813443	4
0	2363	422.854468156933	3
0	2371	424.527892573355	2
0	2378	425.224487641094	3
0	2380	425.771955546199	2
0	2385	427.044424731166	1
0	2390	427.532587762794	0
0	2401	429.750888623511	1
0	2402	429.87008191444	0
0	2409	431.630400145317	1
0	2411	431.931532339564	2
0	2413	432.508633047998	1
0	2421	433.409163946613	2
0	2423	434.433427063563	3
0	2424	434.963611360712	2
0	2429	436.043220812964	1
0	2437	436.654891211092	2
0	2438	437.005242165307	1
0	2443	438.75095375239	0
0	2461	440.89106489907	1
0	2462	441.33898482232	0
0	2466	442.747394115299	1
0	2475	445.147287927536	2
0	2477	445.154558616287	3
0	2480	445.391901859452	2
0	2485	445.943396595762	1
0	2489	445.957116831182	2
0	2491	446.345964749935	3
0	2496	447.656905339413	2
0	2503	451.505945189581	1
0	2508	452.057551437917	0
0	2512	452.064212988077	1
0	2514	452.60479753169	2
0	2521	454.200866584168	1
0	2525	455.014909693962	2
0	2531	457.276382356729	3
0	2533	457.66912829387	4
0	2534	457.984480418959	3
0	2539	458.811543928656	2
0	2543	458.832780839954	3
0	2551	460.689978133111	2
0	2557	460.822810959365	3
0	2560	463.441054055411	2
0	2565	463.818021439457	1
0	2570	463.973025281903	0
0	2600	466.207769888877	1
0	2602	466.372404366719	2
0	2603	467.363575550541	1
0	2612	468.271506708376	0
0	2623	469.125747250963	1
0	2629	470.710269750605	2
0	2630	471.6229365503	1
0	2635	471.952803948304	0
0	2693	478.452281623571	1
0	2699	478.884845778187	0
0	2705	479.19984110701	1
0	2706	479.667341135574	0
0	2716	480.412035178237	1
0	2720	480.91062970979	2
0	2721	481.064002015883	1
0	2729	481.93397133167	2
0	2730	482.028058352908	1
0	2736	482.335790820109	2
0	2742	482.82753472476	3
0	2743	483.187952516323	2
0	2750	483.914051497218	3
0	2755	485.050347472789	2
0	2762	485.104408121492	1
0	2768	485.277700993919	2
0	2769	485.349693791891	1
0	2776	487.775806736258	2
0	2777	488.394735563271	1
0	2783	488.617083559397	2
0	2784	488.883195276508	1
0	2790	490.845204480009	0
0	2806	491.325125118744	1
0	2810	491.926903649557	2
0	2814	492.686057903479	3
0	2817	493.420483027514	2
0	2826	494.500168104402	1
0	2833	494.677704915316	0
0	2859	497.494574920894	1
0	2860	497.495997329775	0
0	2867	497.687313029826	1
0	2871	500.146295834778	0
0	2883	500.698356868837	1
0	2887	500.866458508568	2
0	2889	501.350726623915	3
0	2891	501.741528078282	4
0	2893	501.776996880091	5
0	2897	502.357641695694	4
0	2903	502.580632616841	3
0	2908	502.592687748567	2
0	2913	502.780686336413	1
0	2920	504.985384110118	0
0	2932	505.93788957477	1
0	2933	505.959239127973	0
0	2940	506.508485854487	1
0	2945	506.893673702024	2
0	2946	507.083085210989	1
0	2952	507.159140034601	0
0	2973	508.428535973901	1
0	2976	509.935874796748	0
0	2992	511.438917850459	1
0	2994	511.656179127663	2
0	2999	512.966849037843	1
0	3005	513.550622907424	0
0	3015	514.443118196747	1
0	3018	515.644799008166	2
0	3019	515.659972292849	1
0	3024	515.873903648913	0
0	3036	516.758480597629	1
0	3040	517.167969485879	0
0	3069	520.513634861328	1
0	3073	521.781551699888	2
0	3077	521.893495875207	3
0	3079	522.170846256078	4
0	3083	524.256232451524	5
0	3085	525.255800564052	6
0	3087	525.450788665195	7
0	3090	525.675759980366	6
0	3095	526.026973917623	5
0	3100	526.313478743059	4
0	3104	526.60340354177	5
0	3107	527.734985131296	4
0	3111	527.946784607758	5
0	3113	529.795336045672	6
0	3115	529.926584748826	7
0	3122	531.477519229955	8
0	3124	531.6562063532	9
0	3126	531.716120218544	10
0	3127	531.723970561928	9
0	3132	531.962307064747	8
0	3136	532.157266699612	9
0	3138	532.485044151358	10
0	3141	533.012674395288	9
0	3150	535.164954146248	10
0	3152	535.451125253177	11
0	3153	535.897272933966	10
0	3158	537.142718819045	9
0	3167	540.529504026636	8
0	3171	540.600483670886	9
0	3178	543.7594067221	8
0	3183	544.571624095327	7
0	3188	545.296425451587	6
0	3194	546.616876910359	5
0	3200	547.52837527385	4
0	3206	548.462319458502	5
0	3208	548.496178911963	6
0	3209	548.526548419829	5
0	3213	549.80560157453	6
0	3215	550.200627182828	7
0	3217	550.975746668598	8
0	3220	551.635861128097	7
0	3225	551.922991207	6
0	3234	554.372792321656	5
0	3238	554.486341536695	6
0	3242	558.337832367311	5
0	3250	561.113707154346	4
0	3255	561.642201635893	3
0	3262	562.172855193991	4
0	3263	562.688176685545	3
0	3267	563.666390333646	4
0	3271	564.438119993324	5
0	3272	564.476814307332	4
0	3276	564.730336535622	5
0	3281	565.626945824821	4
0	3285	566.48740050014	5
0	3291	567.700136852201	4
0	3298	568.03090121127	5
0	3299	568.066329937827	4
0	3304	568.097202416183	3
0	3309	568.656144168488	2
0	3314	569.320585967171	1
0	3321	570.244915216189	0
0	3327	571.208641255625	1
0	3330	571.761159321193	0
0	3360	574.730494688249	1
0	3362	574.740230354873	2
0	3365	576.202676576007	1
0	3370	576.830154510867	0
0	3384	577.903844067393	1
0	3387	581.323658744953	2
0	3389	581.414290863106	3
0	3391	581.4696559983	2
0	3398	582.260660171697	3
0	3400	582.559462555771	4
0	3403	583.496870346429	5
0	3404	583.505157780271	4
0	3411	584.086948642664	5
0	3413	584.144589591452	6
0	3415	584.226857108484	7
0	3416	584.523120591297	6
0	3426	585.293522305979	7
0	3427	586.614764800945	6
0	3432	587.590423457626	5
0	3437	589.161709364541	4
0	3444	589.646161685939	3
0	3448	589.708215296833	4
0	3457	591.782039060387	3
0	3464	592.584071165151	4
0	3465	593.31496265974	3
0	3472	597.514906113828	2
0	3478	599.357934857694	1
0	3484	599.503962078253	2
0	3485	600.3470123289	1
0	3489	600.439579188533	2
0	3491	600.55738820985	3
0	3493	600.753622547855	4
0	3496	601.06361611817	3
0	3504	602.486614176487	4
0	3505	602.894881064255	3
0	3510	605.049607427585	2
0	3515	606.431371475239	1
0	3524	609.099005491608	0
0	3535	611.504210049967	1
0	3536	611.595157633312	0
0	3540	611.835495742059	1
0	3542	611.838769111527	2
0	3544	612.271815951498	3
0	3546	612.445814540173	4
0	3556	617.532582672346	3
0	3562	618.866920471275	2
0	3569	619.005753028315	3
0	3570	619.384556979342	2
0	3575	619.749040121942	1
0	3580	619.805929125811	0
0	3584	620.855292894933	1
0	3589	622.345475283262	2
0	3591	622.741587302295	1
0	3596	622.97179602843	0
0	3602	623.000565634044	1
0	3603	623.135725393648	0
0	3609	625.348371621354	1
0	3613	627.558301500556	2
0	3614	627.840844062192	1
0	3620	628.037775330424	2
0	3621	628.120704332786	1
0	3625	629.737412176124	2
0	3630	630.76955374076	1
0	3638	634.521221397934	2
0	3639	634.775888792145	1
0	3647	635.193980880046	2
0	3648	635.227566237288	1
0	3653	635.478622864885	0
0	3666	636.40745837291	1
0	3667	636.656477541112	0
0	3675	637.262791925377	1
0	3676	637.419360971653	0
0	3692	639.576348106378	1
0	3694	640.051289380596	2
0	3702	642.126961198486	1
0	3707	642.24943495906	0
0	3731	646.357200938659	1
0	3736	647.309680940694	0
0	3744	647.651244404421	1
0	3746	647.677718998157	2
0	3747	647.769839706537	1
0	3753	650.291371984694	0
0	3759	653.618699024862	1
0	3760	653.661589742939	0
0	3764	653.82812661414	1
0	3766	654.575577305691	2
0	3769	654.959699698452	1
0	3774	655.690564057876	0
0	3780	655.835164598189	1
0	3781	657.488258644903	0
0	3795	659.673129227414	1
0	3800	660.179357212551	0
0	3808	662.510553600939	1
0	3809	663.407066791152	0
0	3823	664.466447261463	1
0	3824	664.577745989995	0
0	3853	666.576688513057	1
0	3855	668.044694163155	2
0	3857	668.392417714524	3
0	3859	668.840885194002	4
0	3865	669.672192560161	5
0	3866	670.322064726943	4
0	3872	670.781176638271	5
0	3878	675.076102307745	4
0	3884	675.93434461203	3
0	3890	676.507475145357	4
0	3892	676.681474886657	5
0	3894	676.862784789733	6
0	3897	678.530066369392	5
0	3902	678.583428099623	4
0	3912	682.136802027129	5
0	3916	683.830430186955	6
0	3917	684.188465082463	5
0	3925	685.754949243012	4
0	3930	685.879439669422	3
0	3937	686.965153022541	2
0	3941	687.059918839122	3
0	3946	688.854376566496	2
0	3951	690.366010461719	1
0	3955	691.976704852677	2
0	3957	693.226945361854	3
0	3964	697.169287989564	2
0	3970	697.84115754604	3
0	3971	697.944286570443	2
0	3978	700.532818045107	3
0	3979	701.13775140878	2
0	3984	701.310683727336	1
0	3990	702.962735280879	0
0	4012	707.320611604504	1
0	4013	707.584731419279	0
0	4029	708.763923985669	1
0	4031	709.261992451622	2
0	4032	709.643368429547	1
0	4039	710.249219087453	0
0	4043	710.290348741505	1
0	4049	711.998544322878	2
0	4051	712.25935721551	3
0	4053	712.599922516562	4
0	4055	712.784677439611	3
0	4063	713.918401630576	2
0	4068	714.5592935164	1
0	4075	715.696094088497	0
0	4081	715.947994924393	1
0	4083	717.201735543787	2
0	4085	717.958980951561	3
0	4087	718.719434744083	4
0	4089	719.262200614894	5
0	4091	719.585349301813	6
0	4097	720.461265429178	7
0	4098	720.495238268669	6
0	4103	722.836272364015	5
0	4107	723.120354669891	6
0	4113	725.532556737863	5
0	4123	726.927269531962	6
0	4125	727.13737557247	5
0	4129	730.900450035263	6
0	4138	733.860477092813	7
0	4139	735.211157171221	6
0	4144	735.792623112638	5
0	4148	737.154087152882	6
0	4150	737.441833820069	7
0	4153	739.291696863636	6
0	4158	740.039538423657	5
0	4165	740.819825940902	6
0	4166	741.054286691185	5
0	4172	742.919441522257	4
0	4178	743.572898517442	3
0	4183	743.75238080759	2
0	4187	744.181510452873	3
0	4190	747.317635188267	2
0	4196	749.053980837115	3
0	4197	750.396076925864	2
0	4204	751.990838002392	1
0	4208	752.339874934587	2
0	4212	754.071542271169	1
0	4217	754.13774867388	0
0	4243	755.982325563476	1
0	4245	757.118325206034	0
0	4251	757.208086582937	1
0	4253	757.582995391328	0
0	4273	759.306784016244	1
0	4275	759.664099736856	2
0	4280	761.408221901542	3
0	4281	761.440726896119	2
0	4286	761.814789484683	1
0	4291	762.061427670204	0
0	4321	763.420380633364	1
0	4322	764.212207830135	0
0	4349	769.571481074116	1
0	4350	770.525202282699	0
0	4359	771.700029822465	1
0	4361	772.101790598747	2
0	4363	773.44515175015	3
0	4368	774.285483241253	2
0	4373	775.052475135215	1
0	4382	776.020548939209	0
0	4388	777.04137186701	1
0	4389	777.433504828584	0
0	4396	777.885604192071	1
0	4397	777.957348520547	0
0	4405	778.611983038625	1
0	4407	778.983201861633	2
0	4411	779.751011087488	1
0	4417	780.394084203867	2
0	4422	781.608836059587	3
0	4424	782.096015122628	4
0	4425	782.211444731435	3
0	4431	782.285079107499	4
0	4432	782.561455328605	3
0	4437	782.754629656977	2
0	4443	784.734627975474	3
0	4447	787.46712272554	4
0	4450	787.69405263591	3
0	4459	788.771648768707	2
0	4464	789.238151926513	1
0	4469	789.749627314575	0
0	4473	789.837513163756	1
0	4481	794.113476801163	0
0	4487	794.791662631307	1
0	4488	795.15527391923	0
0	4492	795.869478684521	1
0	4494	795.953166902457	2
0	4496	796.358517200857	3
0	4498	796.612588812096	4
0	4501	797.202300026275	3
0	4505	797.481726793275	4
0	4511	798.40769282147	5
0	4513	799.602761502749	4
0	4519	801.768151857384	3
0	4526	802.538873419582	2
0	4531	802.764216580248	1
0	4539	802.841990959748	2
0	4541	802.856922703612	3
0	4543	802.943414231739	4
0	4544	803.062498326541	3
0	4548	803.39849810329	4
0	4550	803.739098122211	5
0	4553	804.580661013269	4
0	4562	808.804080327477	3
0	4568	809.319216032597	4
0	4569	810.152742164679	3
0	4574	812.022314132367	2
0	4578	812.129025370071	3
0	4580	814.19931442526	4
0	4583	814.546592854278	3
0	4588	815.526013491081	2
0	4592	818.161109838885	3
0	4595	818.777664852706	2
0	4603	820.654561694706	3
0	4604	820.969634669355	2
0	4609	822.10941207421	1
0	4613	822.705836601521	2
0	4617	824.509310033144	3
0	4619	824.511488908812	4
0	4625	825.195487911724	3
0	4630	825.356378951366	2
0	4637	827.803509691115	1
0	4641	828.853123828294	2
0	4645	829.357804729119	3
0	4646	829.58740808961	2
0	4652	830.063266381612	3
0	4656	830.541746926099	4
0	4657	831.4704741506	3
0	4662	832.010963290913	2
0	4668	832.277075882122	3
0	4670	832.619150676613	4
0	4672	832.814129196152	5
0	4674	833.099365548708	4
0	4679	834.262257694334	3
0	4689	835.539668864809	4
0	4691	835.686504519071	5
0	4692	835.805684724484	4
0	4696	836.003006177195	5
0	4698	836.437114658421	6
0	4705	838.22259786253	5
0	4710	840.068571430506	4
0	4714	840.750652918796	5
0	4716	840.786667900249	6
0	4721	842.845578903376	5
0	4729	843.352287223371	6
0	4731	844.047625766953	7
0	4735	844.165574018808	8
0	4736	844.219549179636	7
0	4740	845.412350166059	8
0	4742	845.780904077545	9
0	4746	848.418497804156	10
0	4748	848.454937438325	11
0	4753	849.283586297734	10
0	4758	850.989434830271	9
0	4762	851.301948747	10
0	4764	851.312190330647	11
0	4768	854.981898666691	10
0	4773	855.247607528472	9
0	4779	856.240406081353	10
0	4780	857.100679494168	9
0	4784	858.168414058446	10
0	4786	858.273192840544	11
0	4792	859.680701182817	12
0	4794	861.071414638125	13
0	4796	861.307062528731	14
0	4798	861.437936229448	15
0	4800	861.779968745289	16
0	4804	862.59955561946	17
0	4805	863.855754112703	16
0	4815	864.735974347896	17
0	4818	864.897248398737	18
0	4819	865.261878861433	17
0	4825	867.327321552327	16
0	4830	867.5739413402	15
0	4835	868.689850491556	14
0	4841	868.702434019504	15
0	4842	868.90993774718	14
0	4848	869.383978343536	15
0	4849	870.099596044785	14
0	4854	871.361483998713	13
0	4860	873.158139233966	14
0	4866	874.289542642893	15
0	4870	875.559864687592	16
0	4871	875.576373807225	15
0	4876	876.111313850412	14
0	4886	879.596378466537	13
0	4891	880.044209929127	12
0	4897	880.450794646906	13
0	4899	881.440706785616	12
0	4904	882.45291475942	11
0	4909	883.004562915283	10
0	4915	883.570279319657	11
0	4917	885.126347863485	12
0	4921	886.036292457649	13
0	4922	886.345875530215	12
0	4928	887.948558285987	13
0	4930	888.097398947348	14
0	4931	888.17224769959	13
0	4938	888.88125605949	14
0	4939	889.097219209365	13
0	4944	889.48480516738	12
0	4949	889.914265653611	11
0	4955	890.019880222071	12
0	4956	890.739053252587	11
0	4961	891.974269556807	10
0	4965	892.647357669141	11
0	4968	892.825942581463	10
0	4977	895.383060895408	9
0	4981	896.967811790004	10
0	4984	897.09628287113	9
0	4990	902.025435786257	10
0	4992	903.057422455786	11
0	4993	903.3421759826	10
0	5001	905.192896641008	11
0	5003	905.86808696431	12
0	5004	905.924436061197	11
0	5011	906.228858212709	10
0	5018	908.009821349313	9
0	5024	908.412611758329	10
0	5025	909.954527706924	9
0	5031	910.992199510517	10
0	5032	912.317323896364	9
0	5037	913.242123005627	8
0	5041	915.05014658263	9
0	5045	917.387683264048	8
0	5050	917.672178556073	7
0	5054	917.917604755092	8
0	5056	918.658565632565	9
0	5059	920.602980099642	8
0	5064	921.346468528106	7
0	5069	922.237885619607	6
0	5074	924.554044464032	5
0	5079	925.925843456514	4
0	5084	926.95472923403	3
0	5089	931.465114454608	2
0	5095	932.434232230819	1
0	5100	932.843135781281	0
0	5106	933.886273409546	1
0	5108	934.902151118735	2
0	5114	936.012940617387	3
0	5115	936.108821875539	2
0	5121	936.519518269918	3
0	5123	937.152025943797	4
0	5124	937.688136454407	3
0	5131	939.454983565462	2
0	5138	942.248932216711	1
0	5143	942.67713115868	0
0	5147	942.765713042959	1
0	5151	944.627371851148	2
0	5153	944.930878255265	3
0	5157	946.294384729882	4
0	5159	946.750110954764	5
0	5161	946.881866363543	6
0	5163	947.208527604837	7
0	5164	947.537632583561	6
0	5168	947.61669692088	7
0	5172	950.810584628539	8
0	5173	950.9256978768	7
0	5178	952.782018132903	6
0	5183	954.810299040596	5
0	5187	954.99246362851	6
0	5189	955.300910052039	7
0	5191	959.021363661072	8
0	5194	959.875536281757	7
0	5201	962.037605735314	6
0	5205	962.053138368034	7
0	5211	965.391232887233	6
0	5216	965.441144386231	5
0	5222	966.254163996118	6
0	5223	966.919565942155	5
0	5227	967.020909069862	6
0	5230	967.825668842676	5
0	5234	969.503118106118	6
0	5237	970.765016354227	5
0	5241	971.037880989424	6
0	5247	971.377591987491	7
0	5248	971.570249723105	6
0	5254	972.531993678874	7
0	5256	972.593033469558	8
0	5261	974.216400236238	7
0	5267	974.461533350398	6
0	5272	974.610632074913	5
0	5276	974.924895193469	6
0	5280	975.41116065528	7
0	5284	976.296305001173	6
0	5289	976.407188925705	5
0	5293	976.876740369185	6
0	5298	977.471137163294	7
0	5299	977.583954194721	6
0	5305	978.966277493569	7
0	5306	979.340913617569	6
0	5310	979.764807304329	7
0	5316	981.979006574536	8
0	5317	982.40563099139	7
0	5322	983.497680340989	6
0	5328	983.733056621753	7
0	5331	984.255592244816	6
0	5336	984.578830330397	5
0	5341	984.857828004666	4
0	5347	985.317925201394	5
0	5348	986.045307923534	4
0	5353	986.409624235073	3
0	5360	988.069604683537	2
0	5364	988.13703028444	3
0	5372	989.9818223016	2
0	5379	990.420006901633	3
0	5380	990.459903513361	2
0	5386	990.614701471297	3
0	5387	990.734782357608	2
0	5391	990.772966154256	3
0	5397	991.889816680538	4
0	5399	992.334978314723	5
0	5402	992.899620630671	4
0	5408	993.677133915182	5
0	5409	994.124459164372	4
0	5413	995.375728133659	5
0	5417	995.575297391004	6
0	5420	996.163624417001	5
0	5427	1000.442085544942	4
0	5431	1000.709717630284	5
0	5434	1001.326834061702	4
0	5438	1001.523304390427	5
0	5441	1002.413586792555	4
0	5445	1003.048820852538	5
0	5451	1004.355552769428	6
0	5452	1004.706465376057	5
0	5457	1005.053786429558	4
0	5462	1005.277027466083	3
0	5466	1006.70568004009	4
0	5468	1007.139632586354	5
0	5471	1007.641282150228	4
0	5475	1008.541458309104	5
0	5478	1008.741586460353	4
0	5484	1011.372589263488	5
0	5485	1011.406800755531	4
0	5491	1012.056404525918	5
0	5493	1013.971875091756	6
0	5495	1014.843427180913	7
0	5498	1016.674906423228	6
0	5504	1017.857480194084	5
0	5509	1018.05143951608	4
0	5513	1022.692721817932	5
0	5515	1023.129100549255	6
0	5517	1023.385486731548	7
0	5519	1023.395380324034	8
0	5521	1024.873989722039	9
0	5525	1026.435074619047	8
0	5530	1026.494129450533	7
0	5534	1027.032320405398	8
0	5537	1029.470453711322	7
0	5542	1030.147020440385	6
0	5551	1031.401098350153	7
0	5552	1031.550812988715	6
0	5559	1034.498914121102	5
0	5564	1036.707402064166	4
0	5569	1037.099413811785	3
0	5576	1040.121128419117	2
0	5581	1040.311584045564	1
0	5585	1040.73079676012	2
0	5588	1042.207913831433	1
0	5592	1044.16542587146	2
0	5596	1045.109535795866	3
0	5598	1046.891420504039	4
0	5600	1047.822798051266	5
0	5602	1048.157418227582	6
0	5603	1048.360948427489	5
0	5608	1049.183397359882	4
0	5612	1049.945296792023	5
0	5616	1051.551963840288	4
0	5621	1051.741577380699	3
0	5625	1051.951483857828	4
0	5629	1053.393157696049	5
0	5632	1054.269466488433	4
0	5636	1054.786108857558	5
0	5639	1055.74196953495	4
0	5643	1055.899809472038	5
0	5645	1056.921298948862	6
0	5648	1057.193215930137	5
0	5652	1058.028207189754	6
0	5655	1058.815878141569	5
0	5659	1059.350633421873	6
0	5663	1061.864233429649	5
0	5669	1062.183607706709	6
0	5670	1062.741326333404	5
0	5674	1063.069500638391	6
0	5678	1064.525017724991	5
0	5683	1065.122718382113	4
0	5689	1066.015796144902	3
0	5696	1066.056815546512	2
0	5702	1068.470137252895	3
0	5705	1069.254441724158	2
0	5710	1069.864755132271	1
0	5715	1071.094856823199	0
0	5728	1073.251844501941	1
0	5730	1073.383789023098	2
0	5734	1073.768923149301	1
0	5740	1074.563977031319	0
0	5764	1077.644316224386	1
0	5765	1078.044969837513	0
0	5781	1078.72009111302	1
0	5783	1078.971591138723	2
0	5789	1080.048874771694	3
0	5790	1080.182900985953	2
0	5797	1081.689237027023	3
0	5800	1083.086956818053	2
0	5805	1083.354794464282	1
0	5809	1083.74214340918	2
0	5814	1084.858206631903	1
0	5818	1085.293628833397	2
0	5821	1085.375494408246	1
0	5825	1086.043451261392	2
0	5828	1087.538602002002	1
0	5837	1089.230682671584	0
0	5841	1089.299925137631	1
0	5844	1091.862541050565	0
0	5848	1091.935695438701	1
0	5850	1092.765896800582	2
0	5856	1093.23719878457	3
0	5858	1093.624443460116	4
0	5860	1094.227865949414	5
0	5861	1094.563923928597	4
0	5867	1095.053943726313	5
0	5868	1095.562662566831	4
0	5873	1096.426963714254	3
0	5877	1096.812745943103	4
0	5881	1098.807481505884	5
0	5886	1100.444889456351	4
0	5890	1100.759285879906	5
0	5892	1100.994030786848	6
0	5894	1103.707546734672	7
0	5901	1104.780629129855	8
0	5903	1105.13062865757	9
0	5904	1105.350900705659	8
0	5909	1106.133469136107	7
0	5913	1106.842970631211	8
0	5915	1106.932021323201	9
0	5918	1107.778601125793	8
0	5927	1108.666134286451	9
0	5929	1108.863854011754	10
0	5931	1109.37373926666	9
0	5936	1110.120898294464	8
0	5941	1110.924898209668	7
0	5951	1113.109164334955	8
0	5953	1115.74575802489	9
0	5956	1116.283099663164	8
0	5960	1116.581239710726	9
0	5965	1118.186162702634	8
0	5971	1120.535852031508	9
0	5976	1122.537700684336	8
0	5981	1124.101921301869	7
0	5990	1125.185735172679	8
0	5991	1125.353971414264	7
0	5996	1125.588083004614	6
0	6000	1125.7041119785	7
0	6002	1127.230768607514	8
0	6006	1128.007113870775	9
0	6007	1128.585552236644	8
0	6014	1129.610005925679	9
0	6015	1130.730539288989	8
0	6020	1131.282245907629	7
0	6025	1131.681827109282	6
0	6033	1133.531440644996	5
0	6040	1133.910204304602	4
0	6044	1134.612701744672	5
0	6048	1135.518333722688	4
0	6053	1135.615372195754	3
0	6058	1137.541867929368	2
0	6067	1139.436631626993	1
0	6073	1139.710746666687	0
0	6089	1140.999290532403	1
0	6090	1141.737066482742	0
0	6117	1145.661338420219	1
0	6119	1145.970218597948	2
0	6120	1146.028396961814	1
0	6126	1146.143495671061	0
0	6133	1148.47414464037	1
0	6134	1148.672509053411	0
0	6168	1152.289802064296	1
0	6170	1152.47057662402	0
0	6182	1153.633687069839	1
0	6185	1154.530154993886	2
0	6186	1155.175795544653	1
0	6192	1155.527077442051	0
0	6204	1156.919757076847	1
0	6207	1157.349118554362	2
0	6208	1157.719580815332	1
0	6213	1158.082218975535	0
0	6244	1162.023845422082	1
0	6246	1162.45696067083	0
0	6270	1166.392330593804	1
0	6271	1167.582888732418	0
0	6278	1168.417601149598	1
0	6281	1168.621350856912	2
0	6283	1168.778411347414	1
0	6290	1169.86580510911	0
0	6316	1172.722960185539	1
0	6318	1173.138802982309	0
0	6342	1176.21563468689	1
0	6343	1176.244607546781	0
0	6354	1176.87289842385	1
0	6356	1177.758300968929	0
0	6367	1178.899955981393	1
0	6368	1179.383413221139	0
0	6378	1182.083341474001	1
0	6380	1182.105782985153	2
0	6386	1183.644228009217	3
0	6388	1183.776694010337	4
0	6392	1184.779028169388	3
0	6401	1185.294777938476	4
0	6402	1185.388525675632	3
0	6409	1186.02665910757	2
0	6415	1186.451573662576	1
0	6420	1187.365018534861	0
0	6426	1188.081195366373	1
0	6433	1190.05652247966	2
0	6435	1190.652043242361	1
0	6440	1192.061093836663	0
0	6444	1192.371175905752	1
0	6448	1193.178970830448	2
0	6452	1194.444397119462	1
0	6461	1194.882431644265	2
0	6462	1195.112499681146	1
0	6467	1195.170679237387	0
0	6491	1197.443819897692	1
0	6492	1197.88566255948	0
0	6498	1198.053150497797	1
0	6500	1198.916603101363	0
0	6514	1201.798220711338	1
0	6517	1202.587937540896	2
0	6519	1203.051698262507	3
0	6520	1203.150084370535	2
0	6525	1203.317187566304	1
0	6532	1203.912821779233	0
0	6536	1204.094102198001	1
0	6539	1206.052710921951	0
0	6576	1210.087181516663	1
0	6577	1211.0807740335	0
0	6583	1211.212538739878	1
0	6585	1212.026425436896	0
0	6593	1212.301384619971	1
0	6594	1212.541906848389	0
0	6610	1213.667834157544	1
0	6611	1213.861945111615	0
0	6633	1216.720485450534	1
0	6635	1216.726599467494	2
0	6638	1217.71200200723	1
0	6642	1218.077608420435	2
0	6644	1218.58468250387	3
0	6648	1220.023961041358	4
0	6652	1220.681633612358	5
0	6654	1220.767599025992	6
0	6661	1222.255166196889	5
0	6667	1223.911625592461	4
0	6674	1224.657780807954	3
0	6678	1225.036067867402	4
0	6681	1225.991775085737	3
0	6686	1227.266311569444	2
0	6693	1228.896425167047	3
0	6697	1229.740545803471	2
0	6702	1229.760832765568	1
0	6707	1231.49029635613	0
0	6713	1233.24337284978	1
0	6714	1233.314476536288	0
0	6734	1237.431232470901	1
0	6740	1239.375126086633	0
0	6771	1242.493739681981	1
0	6775	1243.976085848331	0
0	6829	1250.499357348317	1
0	6830	1250.784022864464	0
0	6839	1252.598244866079	1
0	6842	1254.448240940375	0
0	6860	1256.574348042972	1
0	6861	1258.341657270379	0
0	6867	1258.408042352564	1
0	6870	1258.961371882084	2
0	6871	1259.454378757272	1
0	6880	1260.262563593737	0
0	6918	1263.077649474186	1
0	6925	1264.873532075346	2
0	6926	1265.73880470059	1
0	6931	1266.000830233038	0
0	6937	1266.024597654057	1
0	6942	1266.651752909972	0
0	6948	1266.76735301529	1
0	6950	1267.081218822251	2
0	6952	1267.165340687318	3
0	6953	1267.231516185818	2
0	6960	1267.440400969601	1
0	6965	1267.72448026019	0
0	6983	1271.560886413531	1
0	6985	1272.23582968047	2
0	6988	1272.4233803498	3
0	6990	1272.560347800105	4
0	6992	1272.867404717187	5
0	6993	1272.965974505901	4
0	6998	1273.705698454248	3
0	7004	1274.072461995547	2
0	7008	1274.385817280013	3
0	7012	1276.345762121016	2
0	7018	1276.385833397115	3
0	7020	1278.041678814031	2
0	7027	1278.568742763949	1
0	7033	1280.339243534656	2
0	7036	1280.444272553338	1
0	7040	1280.812572336235	2
0	7044	1281.03071075384	3
0	7046	1281.497951853663	4
0	7048	1282.585697004112	5
0	7049	1282.890344546587	4
0	7055	1284.222831800018	5
0	7056	1284.555066538026	4
0	7060	1284.734225864447	5
0	7064	1285.590521597282	6
0	7065	1285.687475502123	5
0	7071	1286.952266923913	6
0	7076	1289.319245704055	5
0	7081	1290.791198896887	4
0	7085	1292.403001503901	5
0	7087	1293.406722527895	6
0	7090	1293.925600157535	5
0	7095	1295.693619907869	4
0	7099	1295.859584026826	5
0	7104	1296.99605739127	4
0	7109	1297.86394140834	3
0	7117	1299.511942112538	4
0	7121	1301.992592185843	5
0	7123	1302.128204783043	6
0	7132	1304.112858864012	7
0	7133	1304.903360777186	6
0	7138	1305.219435273334	5
0	7143	1305.431187083141	4
0	7149	1305.812681015713	3
0	7155	1305.834115130825	4
0	7156	1305.952468532112	3
0	7163	1307.121480443742	4
0	7164	1307.56100821896	3
0	7169	1308.043253358748	2
0	7174	1308.556914948548	1
0	7181	1309.378453871647	0
0	7193	1311.466152482652	1
0	7194	1312.243785799041	0
0	7198	1312.99953748146	1
0	7203	1317.035440085941	2
0	7206	1318.128003250769	1
0	7211	1319.097140124004	0
0	7240	1321.996336737548	1
0	7243	1322.932234276108	0
0	7250	1323.05071626978	1
0	7251	1323.725311786081	0
0	7275	1325.317217037848	1
0	7277	1326.463695664549	0
0	7283	1327.842062864315	1
0	7285	1329.038477008983	0
0	7317	1333.934194706414	1
0	7322	1334.787183251684	0
0	7336	1336.3771709307	1
0	7337	1336.526958619998	0
0	7370	1341.262357126728	1
0	7372	1342.163019429362	2
0	7375	1342.311959553101	1
0	7380	1342.390941054307	0
0	7390	1344.558342516521	1
0	7396	1344.882201689129	2
0	7398	1345.189615537614	3
0	7402	1345.711726764805	2
0	7408	1346.706375587691	1
0	7414	1347.667288228752	2
0	7415	1348.735160351068	1
0	7423	1349.477040807532	0
0	7427	1350.012178046564	1
0	7431	1350.394147928115	2
0	7434	1350.839024652333	3
0	7435	1351.300059226689	2
0	7439	1351.749707673269	3
0	7441	1354.951465113995	4
0	7449	1356.299230818699	5
0	7450	1356.427576051988	4
0	7458	1357.877845425297	5
0	7462	1360.028673287253	4
0	7467	1360.090740179	3
0	7474	1361.459552334738	4
0	7477	1361.561699531446	3
0	7484	1362.005766001166	4
0	7485	1362.675402476955	3
0	7491	1364.255357830758	2
0	7496	1364.342540605848	1
0	7501	1364.3540772901	0
0	7518	1366.372469436063	1
0	7520	1366.747916809677	2
0	7522	1367.279186426503	1
0	7526	1367.844180843329	2
0	7529	1368.932526589055	1
0	7534	1369.17228371597	0
0	7560	1369.984258663414	1
0	7562	1370.685221200755	2
0	7563	1370.784868309463	1
0	7571	1371.277985432873	0
0	7589	1371.805144778081	1
0	7590	1372.074841620322	0
0	7594	1372.519020294455	1
0	7597	1373.542765748012	0
0	7615	1376.126864179092	1
0	7617	1376.625190311535	2
0	7619	1376.738711192235	3
0	7623	1377.971753068567	4
0	7624	1378.209394608699	3
0	7629	1378.346230312542	2
0	7637	1379.737338905001	3
0	7646	1381.457243788591	4
0	7647	1381.515952358388	3
0	7652	1381.565105003896	2
0	7659	1382.347258659044	3
0	7661	1382.931157956155	2
0	7667	1383.814415001082	1
0	7676	1385.097145943269	2
0	7677	1385.21461131611	1
0	7683	1385.812062069488	2
0	7684	1385.974933391115	1
0	7689	1386.565151373563	0
0	7699	1388.339457113825	1
0	7701	1388.451761255474	2
0	7702	1388.636416514896	1
0	7709	1390.887295758695	0
0	7726	1391.83014123375	1
0	7727	1391.845439270316	0
0	7733	1392.203851652498	1
0	7734	1392.627305249889	0
0	7738	1392.925826678169	1
0	7742	1393.245688762843	2
0	7744	1393.783888993123	3
0	7746	1395.845838170289	4
0	7750	1397.500980672101	5
0	7753	1398.98785758837	4
0	7760	1400.280326146719	3
0	7766	1401.855796829937	2
0	7771	1402.350562334703	1
0	7775	1402.944935847897	2
0	7777	1403.313706091371	3
0	7780	1403.599230990873	2
0	7784	1404.393461163201	3
0	7788	1405.656391960164	2
0	7794	1406.833814654344	1
0	7800	1408.206367697934	2
0	7801	1408.398677830003	1
0	7805	1408.596978118602	2
0	7808	1409.208629624244	1
0	7814	1410.588338569631	2
0	7815	1410.619595096394	1
0	7820	1411.811795622605	0
0	7841	1417.819142703186	1
0	7842	1419.336200337889	0
0	7849	1419.45098133487	1
0	7850	1419.62601413512	0
0	7872	1422.520859284984	1
0	7873	1422.904154862106	0
0	7896	1424.799991543219	1
0	7898	1424.804897462238	2
0	7902	1425.9359877828	3
0	7903	1426.548697941993	2
0	7908	1427.425341958135	1
0	7914	1427.91023312091	2
0	7915	1427.913138625704	1
0	7920	1429.357999922912	0
0	7924	1429.518091660793	1
0	7927	1430.086682043521	0
0	7942	1433.045701773308	1
0	7946	1433.798594772901	2
0	7949	1434.078067770577	3
0	7951	1434.138442291332	4
0	7954	1434.260838781771	3
0	7959	1434.539441583162	2
0	7969	1436.296447844323	3
0	7971	1436.740693362006	2
0	7978	1437.439015339717	1
0	7983	1437.999898165738	0
0	7990	1438.823126999111	1
0	7991	1440.168915555894	0
0	8031	1443.172945443532	1
0	8034	1443.822142730797	2
0	8038	1446.025750782378	3
0	8039	1446.039109055908	2
0	8045	1446.091188083601	3
0	8050	1447.109294390257	2
0	8056	1448.548396868644	1
0	8061	1448.649831013613	0
0	8072	1449.895139628582	1
0	8074	1450.137011887429	2
0	8078	1450.943528341813	3
0	8080	1451.09127473688	4
0	8081	1451.471818238839	3
0	8089	1452.5872363016	4
0	8090	1452.771819191582	3
0	8095	1453.448701871285	2
0	8100	1455.609351918152	1
0	8105	1456.203780773546	0
0	8109	1456.713751857025	1
0	8111	1457.565308758164	2
0	8113	1458.551544947882	3
0	8122	1460.288715108925	4
0	8123	1460.66086840183	3
0	8132	1463.21757967819	2
0	8137	1463.914003918937	1
0	8142	1465.748993636518	0
0	8162	1468.598450732999	1
0	8167	1470.107385553287	2
0	8168	1470.547405302609	1
0	8173	1472.399971501958	0
0	8190	1473.564464230671	1
0	8192	1474.172615480299	0
0	8198	1474.654418659662	1
0	8200	1475.082300774288	2
0	8202	1475.416241747779	1
0	8211	1477.308013690434	0
0	8264	1483.116679837377	1
0	8265	1484.288647813465	0
0	8274	1485.797717144418	1
0	8278	1487.986910753345	2
0	8283	1489.405132804115	3
0	8285	1489.433386182505	4
0	8287	1489.986763085765	3
0	8293	1490.032063678448	4
0	8296	1490.788587748331	3
0	8302	1490.917485426047	4
0	8303	1491.351166275852	3
0	8308	1491.48252694858	2
0	8313	1491.619050963228	1
0	8320	1491.988230790242	0
0	8329	1492.614535921967	1
0	8330	1493.020451140772	0
0	8336	1493.485363848701	1
0	8338	1493.739087484459	2
0	8339	1494.408891076968	1
0	8346	1495.696638760699	0
0	8352	1495.721616994399	1
0	8354	1496.041239555061	2
0	8355	1496.043600037267	1
0	8361	1496.881593318561	0
0	8378	1498.299995518811	1
0	8379	1498.622561010801	0
0	8392	1499.883473059002	1
0	8394	1501.747495371411	0
0	8400	1502.521180928223	1
0	8403	1503.728739279071	0
0	8407	1504.240294049194	1
0	8409	1504.752504895462	2
0	8413	1506.120763501117	3
0	8416	1506.99372715103	4
0	8420	1508.974673331687	5
0	8421	1509.378098571361	4
0	8430	1511.074678156484	3
0	8435	1511.169035200717	2
0	8441	1513.95152499949	3
0	8444	1514.839022468823	2
0	8450	1515.587613099944	3
0	8455	1516.753316573048	2
0	8460	1517.464258870387	1
0	8465	1518.267125115923	0
0	8469	1519.247019225352	1
0	8475	1520.144313285196	2
0	8477	1520.874817485876	3
0	8479	1521.581102178823	4
0	8481	1523.519139429293	5
0	8487	1523.819626099922	4
0	8492	1524.861211408027	3
0	8497	1525.05625396107	2
0	8506	1525.806122088899	3
0	8507	1526.097816424258	2
0	8512	1526.177362217865	1
0	8519	1526.932086599676	0
0	8525	1527.729573503944	1
0	8529	1528.260121868838	2
0	8533	1528.997989503731	3
0	8535	1529.577754985608	4
0	8539	1530.608930727811	5
0	8543	1531.713984769144	4
0	8548	1531.79500235326	3
0	8558	1534.227521037477	2
0	8563	1534.30921402827	1
0	8567	1534.629871948624	2
0	8569	1534.807385772929	3
0	8571	1536.026549314318	4
0	8576	1540.221820343972	3
0	8581	1540.959696071536	2
0	8587	1543.978290186287	3
0	8588	1544.039145176012	2
0	8592	1544.199630953343	3
0	8595	1544.992120680831	2
0	8601	1546.224724196473	3
0	8606	1547.793485443679	2
0	8611	1547.921471112406	1
0	8616	1548.01312382364	0
0	8620	1548.137321783647	1
0	8624	1553.224883606819	2
0	8626	1554.065945502361	3
0	8630	1555.061055985669	4
0	8632	1555.06929427477	5
0	8634	1555.221982553259	6
0	8647	1562.887688056905	5
0	8656	1564.142128196346	6
0	8658	1564.38137191675	7
0	8659	1565.061878552077	6
0	8664	1565.179587828473	5
0	8672	1565.895322826932	4
0	8678	1566.004096788534	5
0	8681	1566.164362316738	6
0	8682	1566.628777241573	5
0	8687	1566.749879767128	4
0	8691	1567.201664348677	5
0	8693	1567.294675367508	6
0	8697	1569.90544293876	7
0	8701	1570.501424788557	8
0	8703	1570.537704142143	9
0	8704	1570.701325997245	8
0	8708	1571.156463024116	9
0	8710	1571.828590196918	10
0	8714	1572.77594777902	11
0	8716	1573.055925475471	12
0	8717	1573.318404271293	11
0	8727	1575.667697098416	12
0	8730	1575.709678064904	11
0	8734	1575.941923377632	12
0	8741	1577.493553735486	13
0	8743	1578.162906244175	12
0	8748	1578.497103256274	11
0	8755	1578.739696431485	10
0	8761	1579.95236026065	11
0	8764	1580.395518353462	12
0	8767	1581.400811406126	11
0	8772	1581.411844358799	10
0	8777	1582.078982000273	9
0	8781	1583.458088223305	10
0	8783	1583.755495808644	11
0	8786	1585.076848518801	10
0	8790	1585.957747065481	11
0	8792	1587.590540626764	12
0	8797	1589.359017522052	11
0	8803	1590.65021901118	12
0	8805	1591.852513067591	11
0	8813	1592.034611809931	12
0	8814	1593.039792559765	11
0	8821	1594.0106521103	10
0	8827	1594.348839640761	11
0	8830	1595.582173148544	10
0	8836	1597.519016327877	9
0	8842	1597.79803938	8
0	8848	1598.282136128754	7
0	8855	1598.374259978823	6
0	8861	1601.170828412555	7
0	8864	1604.285723050169	6
0	8868	1604.709873687801	7
0	8872	1607.722521144424	6
0	8878	1607.758845993125	7
0	8879	1609.015133504125	6
0	8883	1609.219657324773	7
0	8887	1609.283794924866	8
0	8888	1609.89298554132	7
0	8894	1610.621931388202	8
0	8897	1611.047227217151	7
0	8904	1611.61669313629	6
0	8910	1615.319138388881	7
0	8911	1615.410612068088	6
0	8916	1615.827096326548	5
0	8921	1616.105233886448	4
0	8928	1617.95872358603	3
0	8935	1620.670087728564	4
0	8939	1621.627773036883	5
0	8940	1621.636568582963	4
0	8945	1621.640336051909	3
0	8949	1621.979634429782	4
0	8951	1621.985045623469	5
0	8953	1624.14687424977	6
0	8955	1624.582121385151	7
0	8957	1627.787615681222	8
0	8963	1629.341081623139	7
0	8968	1629.511390370466	6
0	8973	1631.569465361775	5
0	8979	1634.091112189863	6
0	8982	1634.332166205743	5
0	8989	1636.465508703114	4
0	8994	1637.326380450195	3
0	8999	1638.432018237734	2
0	9005	1640.611871543153	3
0	9007	1640.952862981744	4
0	9012	1642.44581536529	3
0	9018	1644.725113403418	2
0	9023	1645.005346123353	1
0	9028	1645.722917769624	0
0	9052	1649.932134002352	1
0	9055	1650.150178859198	2
0	9057	1650.66745302169	1
0	9062	1651.699185298169	0
0	9084	1653.70102550867	1
0	9086	1654.13949404546	2
0	9088	1656.225684772088	3
0	9089	1656.372979825048	2
0	9094	1656.5030396711	1
0	9103	1657.687371223421	0
0	9133	1659.53742703936	1
0	9138	1660.907720885201	2
0	9144	1664.169424778319	3
0	9146	1664.42201348378	2
0	9151	1664.432558400291	1
0	9158	1664.776960083126	2
0	9159	1664.805814986117	1
0	9164	1664.930987113587	0
0	9175	1665.135359564633	1
0	9178	1666.130094696851	2
0	9179	1666.493121426618	1
0	9186	1667.480312471582	0
0	9216	1669.488642692446	1
0	9224	1671.399064819922	2
0	9227	1671.464615461502	1
0	9233	1671.763268185261	2
0	9236	1672.814839716503	1
0	9241	1672.89611823982	0
0	9254	1674.298811014687	1
0	9255	1674.740112996594	0
0	9272	1678.421960635221	1
0	9276	1681.235663181477	0
0	9293	1681.914694200941	1
0	9297	1682.676511324858	0
0	9306	1683.498481857018	1
0	9308	1683.955110308756	0
0	9314	1684.476387958449	1
0	9315	1684.550958968695	0
0	9328	1684.952407901135	1
0	9329	1685.176011056479	0
0	9335	1685.733395621293	1
0	9336	1685.89328403025	0
0	9342	1685.928177958279	1
0	9345	1686.037424291444	0
0	9370	1689.734490788241	1
0	9372	1689.825888670196	2
0	9376	1692.28467184536	1
0	9381	1692.389544261743	0
0	9387	1693.937337342948	1
0	9393	1695.275328316048	0
0	9400	1695.353191667714	1
0	9403	1695.416438357445	2
0	9405	1696.132367596682	3
0	9406	1696.173042551896	2
0	9412	1698.375925122266	3
0	9414	1698.649410935669	4
0	9419	1699.816247179621	3
0	9424	1699.946987927131	2
0	9432	1701.223391642168	3
0	9435	1702.108444082152	4
0	9438	1703.078372770844	3
0	9444	1703.425192775948	4
0	9446	1704.281155624824	3
0	9453	1705.958098864018	2
0	9458	1706.068297556935	1
0	9464	1706.254067302449	2
0	9465	1706.285978780514	1
0	9471	1708.571270766507	0
0	9492	1712.252236077379	1
0	9495	1712.779413286278	2
0	9499	1713.996169360696	3
0	9502	1714.227463683573	4
0	9503	1714.395091378147	3
0	9508	1714.884823314432	2
0	9513	1715.187200656727	1
0	9517	1715.376655461784	2
0	9520	1717.494654464717	1
0	9526	1718.431383534514	0
0	9535	1719.395019005105	1
0	9537	1720.03825063679	2
0	9538	1720.604319523975	1
0	9544	1721.227845097983	2
0	9545	1721.263437574033	1
0	9549	1723.734949132283	2
0	9551	1725.08113398752	3
0	9553	1725.12890485405	4
0	9559	1727.368511979266	5
0	9560	1727.483163686107	4
0	9565	1727.530284455024	3
0	9571	1727.817798884614	4
0	9572	1727.884264335735	3
0	9577	1730.175083078148	2
0	9587	1732.78407675817	3
0	9588	1732.907040465391	2
0	9597	1734.129734584012	3
0	9601	1736.011056852491	2
0	9606	1736.7692497119	1
0	9611	1737.470795307461	0
0	9649	1741.474122191885	1
0	9651	1741.812558972448	2
0	9654	1742.613662629856	1
0	9659	1742.672570935576	0
0	9670	1743.688128132461	1
0	9674	1746.034463741743	2
0	9681	1748.065239244804	1
0	9687	1751.135257878768	0
0	9693	1752.652930139672	1
0	9694	1753.601023028916	0
0	9712	1756.059721671452	1
0	9713	1756.219646029618	0
0	9719	1756.911884145563	1
0	9720	1757.4299411141	0
0	9724	1757.451483012523	1
0	9729	1758.641027767729	2
0	9738	1760.930440902367	3
0	9740	1761.539761844272	2
0	9746	1761.714708303595	3
0	9750	1762.619863494923	4
0	9752	1763.135368580321	5
0	9753	1763.596616966675	4
0	9758	1764.251205635056	3
0	9763	1764.756604850437	2
0	9770	1765.578211638066	1
0	9774	1766.301884900914	2
0	9776	1766.790948886932	3
0	9779	1767.141628484642	2
0	9784	1768.331357136316	1
0	9791	1768.81181013998	0
0	9795	1769.973104762366	1
0	9798	1771.686908939625	0
0	9804	1774.150511557425	1
0	9806	1774.329079087479	2
0	9810	1776.327039920392	3
0	9811	1776.827084964252	2
0	9818	1777.439777764322	3
0	9821	1777.719251616651	4
0	9822	1778.31038796	3
0	9827	1778.400913779338	2
0	9832	1778.407291557017	1
0	9838	1779.41813771871	2
0	9839	1779.551832007636	1
0	9845	1779.996593341881	2
0	9849	1780.363386905667	3
0	9850	1780.833316053455	2
0	9855	1781.827916796569	1
0	9861	1782.662617250947	0
0	9877	1783.716477364667	1
0	9878	1784.075551323943	0
0	9884	1786.094210888815	1
0	9887	1789.080362622184	0
0	9906	1791.604117012139	1
0	9907	1791.612512479859	0
0	9926	1794.647018982609	1
0	9928	1795.081531255822	2
0	9935	1796.851665039103	1
0	9940	1797.655463832359	0
0	9951	1798.88048012809	1
0	9952	1799.094504733112	0
0	9961	1801.013806799475	1
0	9967	1803.522588104854	0
0	9983	1804.460453887491	1
0	9986	1805.776058186298	0
0	9997	1807.337010440085	1
0	10007	1809.093644245678	0
0	10013	1809.728624771437	1
0	10014	1810.4995578257	0
0	10033	1813.106694304452	1
0	10034	1813.180703011759	0
0	10047	1815.174811330957	1
0	10048	1815.475627916004	0
0	10093	1827.612060367582	1
0	10094	1828.075793455435	0
0	10115	1832.953783798783	1
0	10119	1833.8532340638	0
0	10128	1834.228099099835	1
0	10133	1835.131170892252	0
0	10142	1836.220021117296	1
0	10144	1836.668465279549	0
0	10159	1838.581008259896	1
0	10160	1838.768947579941	0
0	10194	1843.306565406287	1
0	10195	1843.479449782384	0
0	10206	1844.572233825142	1
0	10210	1845.867005004914	0
0	10218	1846.374830259214	1
0	10220	1847.1682503751	0
0	10237	1849.015075448073	1
0	10239	1850.241808698956	0
0	10252	1851.319317526997	1
0	10254	1851.632190756638	0
0	10262	1851.855357995081	1
0	10263	1851.890120400967	0
0	10285	1854.776446021549	1
0	10288	1854.948073362549	2
0	10290	1855.257103088846	1
0	10295	1855.402113015417	0
0	10314	1856.349840703468	1
0	10315	1857.091329095834	0
0	10337	1863.190837746465	1
0	10339	1863.316236058406	2
0	10341	1864.142216282952	3
0	10346	1865.870255165383	2
0	10352	1866.061123678956	3
0	10353	1867.017959281331	2
0	10361	1868.265155970556	3
0	10363	1868.805564437019	2
0	10372	1869.728531127108	1
0	10380	1870.123985965631	2
0	10381	1870.177049197632	1
0	10386	1870.183730332504	0
0	10390	1871.157967667668	1
0	10398	1872.192935679762	0
0	10428	1875.265053493618	1
0	10431	1875.760526284722	2
0	10433	1875.774017202351	1
0	10438	1876.509467327963	0
0	10455	1877.518926643765	1
0	10458	1878.418106030413	0
0	10487	1885.305185351368	1
0	10488	1886.482597191573	0
0	10499	1886.859239014429	1
0	10502	1887.86092093913	0
0	10521	1888.850852569578	1
0	10523	1890.100854765643	2
0	10525	1890.114718282628	3
0	10526	1890.849804073695	2
0	10531	1890.912092857493	1
0	10539	1891.194396002259	0
0	10545	1892.577573782709	1
0	10546	1892.630977729163	0
0	10553	1893.692283767567	1
0	10556	1894.541593636418	0
0	10572	1898.833075518944	1
0	10573	1899.210475038551	0
0	10590	1901.616239039585	1
0	10592	1901.795200767314	2
0	10593	1902.079798660777	1
0	10598	1902.869315206328	0
0	10606	1903.545221478294	1
0	10607	1903.564500397012	0
0	10618	1904.092245959277	1
0	10619	1907.169815714749	0
0	10623	1907.805734736687	1
0	10626	1908.161084477341	0
0	10633	1910.437616716317	1
0	10634	1910.834066396881	0
0	10669	1913.571216447185	1
0	10670	1913.715622902031	0
0	10694	1919.557893712145	1
0	10697	1920.743088227269	0
0	10704	1923.191427911679	1
0	10707	1923.911067019248	2
0	10708	1924.043804954344	1
0	10713	1924.300843093567	0
0	10719	1924.352704339628	1
0	10724	1925.927597491804	2
0	10725	1926.372905097318	1
0	10731	1927.269935687157	0
0	10735	1928.224367484682	1
0	10739	1928.356611299293	2
0	10740	1928.446066158784	1
0	10744	1929.446149274801	2
0	10749	1931.699381880174	1
0	10759	1933.398694925926	2
0	10761	1933.660027903026	3
0	10765	1935.73482928089	2
0	10770	1936.034826567862	1
0	10775	1936.333797679444	0
0	10820	1942.749529886309	1
0	10823	1943.1650779498	0
0	10843	1945.510685480171	1
0	10847	1946.721824672153	0
0	10854	1947.65345508257	1
0	10859	1950.077686145649	2
0	10860	1950.367398189234	1
0	10865	1950.694589304432	0
0	10876	1951.768065431079	1
0	10878	1952.069231763359	2
0	10879	1952.071451072099	1
0	10884	1952.128357957083	0
0	10890	1952.692712669555	1
0	10892	1952.915865623762	0
0	10900	1954.374161863529	1
0	10902	1954.916240675573	2
0	10905	1956.620059661914	1
0	10910	1960.101082268479	0
0	10914	1961.064864824084	1
0	10918	1962.042380998814	2
0	10919	1963.334914201477	1
0	10924	1963.902214018247	0
0	10945	1964.691775389769	1
0	10947	1965.884963520645	0
0	10977	1967.777946913868	1
0	10981	1969.251027773278	2
0	10983	1970.336540744913	1
0	10989	1971.459446530955	0
0	10998	1972.005126302233	1
0	11004	1973.140790376651	2
0	11010	1975.784492337081	3
0	11011	1976.311643080137	2
0	11016	1976.817010898615	1
0	11022	1977.479457699566	0
0	11058	1981.063116190963	1
0	11060	1981.194133405158	2
0	11062	1982.474152939547	3
0	11066	1983.996140362525	4
0	11067	1984.30332956513	3
0	11074	1984.862845773757	2
0	11079	1985.704736954308	1
0	11086	1985.841103486437	0
0	11095	1987.415459650797	1
0	11097	1988.819896586171	2
0	11099	1989.008901762247	3
0	11101	1990.064978894257	4
0	11105	1991.746047260423	5
0	11107	1992.519079644669	6
0	11112	1993.201911472208	5
0	11120	1993.734654893532	4
0	11126	1994.409199876299	3
0	11134	1995.566639119778	2
0	11141	1996.636240417477	1
0	11150	1999.228664761987	2
0	11151	1999.426008912825	1
0	11158	2000.312526715348	2
0	11160	2000.694104323169	3
0	11161	2001.761147172994	2
0	11166	2001.885955487292	1
0	11171	2002.368707025508	0
0	11196	2004.533727999888	1
0	11202	2007.446561479297	0
0	11231	2011.621356864842	1
0	11232	2011.644820461076	0
0	11246	2013.935308239336	1
0	11248	2014.042553733487	2
0	11250	2014.398903265764	3
0	11252	2014.775887119953	4
0	11253	2015.064113691865	3
0	11259	2015.699798622647	4
0	11261	2016.316986171992	5
0	11263	2016.685184321873	6
0	11266	2017.646459087189	7
0	11267	2017.655562998694	6
0	11274	2018.657070974132	7
0	11277	2020.692702147723	6
0	11282	2020.96804077575	5
0	11287	2021.051122627377	4
0	11293	2021.656355951646	5
0	11295	2022.142845995607	4
0	11300	2022.70990710762	3
0	11307	2023.443589170602	4
0	11309	2024.938730703591	5
0	11311	2025.006526644988	6
0	11312	2025.622723387399	5
0	11317	2026.517727101336	4
0	11322	2026.55907927129	3
0	11326	2026.87099453996	4
0	11329	2027.321623045141	3
0	11333	2027.322009853829	4
0	11335	2027.901654975103	5
0	11337	2028.155593944481	6
0	11342	2029.185299743665	5
0	11349	2030.872388286496	4
0	11355	2031.31905659471	5
0	11360	2034.115566767344	6
0	11361	2034.93723401587	5
0	11367	2035.084802233759	4
0	11372	2035.242019696959	3
0	11376	2035.409679442786	4
0	11380	2036.943309781673	5
0	11381	2037.104456788974	4
0	11386	2037.260287866605	3
0	11390	2037.725598915426	4
0	11392	2038.58934099667	5
0	11397	2041.286897782307	4
0	11402	2043.114816880377	3
0	11407	2043.375029605234	2
0	11413	2044.729739787406	3
0	11417	2045.474284270721	2
0	11423	2045.79095454474	1
0	11429	2046.178325764495	2
0	11430	2046.427378895825	1
0	11435	2047.381344789921	0
0	11439	2048.613994374855	1
0	11441	2048.656023521347	2
0	11444	2048.838525385016	1
0	11452	2049.739055676057	0
0	11499	2055.072716567044	1
0	11500	2055.077322489906	0
0	11519	2056.537012498212	1
0	11520	2056.944938504455	0
0	11529	2057.779863107303	1
0	11531	2057.865865197045	2
0	11533	2058.99380640582	3
0	11535	2059.005921827936	4
0	11537	2059.589981284628	5
0	11540	2060.464096167766	4
0	11547	2061.452673647649	3
0	11552	2061.64293402877	2
0	11558	2062.02479090071	3
0	11560	2062.219238076321	2
0	11567	2062.830499451619	1
0	11585	2066.306014659243	0
0	11597	2068.483919481486	1
0	11598	2068.729896391355	0
0	11620	2072.271448258732	1
0	11621	2072.332413471347	0
0	11635	2073.805574224492	1
0	11637	2074.745879458368	2
0	11638	2075.052171387592	1
0	11644	2075.069946639639	2
0	11646	2075.193245146546	3
0	11647	2075.418167694029	2
0	11652	2076.472862641826	1
0	11657	2076.835774497216	0
0	11663	2077.715468887676	1
0	11664	2078.561442493345	0
0	11687	2080.38965284468	1
0	11689	2080.411742520862	2
0	11692	2081.918465392783	1
0	11699	2082.094897515793	2
0	11701	2082.218589690021	3
0	11703	2082.553293577189	4
0	11704	2082.854594700116	3
0	11709	2082.992146942907	2
0	11715	2082.996624543752	3
0	11716	2083.807896972916	2
0	11721	2084.285227531735	1
0	11726	2084.469360083202	0
0	11739	2085.03572004348	1
0	11741	2085.228586369555	2
0	11745	2086.300834128365	3
0	11750	2087.006493961972	4
0	11753	2087.184064125864	5
0	11754	2087.672222885065	4
0	11759	2087.95421880294	3
0	11765	2087.994135761767	4
0	11767	2089.046788621458	5
0	11769	2089.420466314779	6
0	11770	2089.779497816245	5
0	11776	2090.00135024079	6
0	11778	2090.548078467517	7
0	11779	2090.606821332151	6
0	11785	2092.027214303976	5
0	11791	2092.210123336113	4
0	11797	2093.035019819383	3
0	11803	2093.801992355204	4
0	11804	2094.187208674038	3
0	11808	2094.716553074478	4
0	11815	2096.911996937826	3
0	11822	2099.493951308443	2
0	11829	2101.809710031387	1
0	11835	2102.109678292865	2
0	11837	2102.444936550981	1
0	11844	2103.839610597428	0
0	11851	2103.968230923575	1
0	11852	2104.354173748123	0
0	11873	2107.636911335783	1
0	11874	2107.93543784112	0
0	11901	2111.600559381306	1
0	11902	2111.771979234965	0
0	11919	2112.124186858261	1
0	11920	2112.573770237345	0
0	11951	2117.220282402485	1
0	11953	2117.391148226899	2
0	11956	2118.287858406949	1
0	11961	2118.325826351193	0
0	11967	2118.387420905538	1
0	11968	2118.469695461943	0
0	11974	2119.233119976154	1
0	11977	2119.465162195793	2
0	11979	2121.159530828059	1
0	11986	2122.445436669834	2
0	11990	2125.381756437404	1
0	11995	2126.807278346087	0
0	12029	2129.732961631677	1
0	12030	2129.759494049862	0
0	12037	2129.919017956884	1
0	12039	2131.610842613567	0
0	12068	2136.975459385712	1
0	12070	2137.971089452325	0
0	12096	2141.148430684005	1
0	12102	2142.041488861189	0
0	12108	2142.151874417185	1
0	12109	2142.239675678934	0
0	12121	2143.603902359398	1
0	12123	2144.667897580442	0
0	12129	2144.763786039838	1
0	12131	2145.097670546013	2
0	12134	2147.243838263105	1
0	12139	2147.490016542345	0
0	12160	2149.770875574423	1
0	12162	2150.075711747527	2
0	12167	2151.753544397417	3
0	12169	2152.142092466967	2
0	12174	2152.506619377562	1
0	12179	2153.450715836669	0
0	12191	2155.401598674429	1
0	12192	2155.455294265947	0
0	12200	2156.707931570013	1
0	12202	2156.835853512361	2
0	12207	2157.347460790994	3
0	12208	2157.410105289329	2
0	12214	2159.096713360451	1
0	12219	2159.618618744527	0
0	12232	2160.067597812435	1
0	12233	2160.148874864463	0
0	12239	2160.791175453941	1
0	12240	2161.443181686798	0
0	12246	2162.453925014237	1
0	12249	2163.470795995222	0
0	12255	2164.428308519476	1
0	12257	2165.033985706539	0
0	12309	2174.355641175306	1
0	12311	2176.172002113821	2
0	12315	2176.379386207927	3
0	12320	2179.136421662773	4
0	12323	2179.679667099877	5
0	12324	2179.788632071033	4
0	12329	2180.368708347835	3
0	12335	2180.473913158492	2
0	12341	2181.213844745062	3
0	12343	2181.593511740048	4
0	12347	2182.190403788516	3
0	12354	2182.796328377132	4
0	12357	2183.528383556578	3
0	12366	2184.226485167458	2
0	12371	2184.983397051116	1
0	12378	2185.91446292545	2
0	12381	2186.59413818534	3
0	12383	2186.634473306351	4
0	12385	2186.869313350902	5
0	12387	2187.32939216417	6
0	12388	2187.741083492082	5
0	12395	2187.94854744515	6
0	12398	2188.108347133902	5
0	12404	2188.276914242666	6
0	12406	2188.449766236465	7
0	12411	2189.291625433491	8
0	12413	2189.731271086477	9
0	12414	2189.771855665011	8
0	12420	2189.931928983857	9
0	12421	2190.150278862504	8
0	12426	2191.431393674589	7
0	12432	2194.29041157606	6
0	12437	2194.384322711774	5
0	12441	2195.838085768717	6
0	12445	2197.019541003529	7
0	12448	2200.766052148589	6
0	12453	2203.841495022636	5
0	12461	2205.680703159217	6
0	12466	2208.103430303925	5
0	12471	2208.267608292712	4
0	12476	2208.587063708363	3
0	12484	2209.614087724487	4
0	12485	2209.837251622528	3
0	12491	2210.515064611328	2
0	12497	2210.807963093475	3
0	12498	2211.343724071387	2
0	12502	2212.091882748039	3
0	12504	2212.194904287828	4
0	12507	2214.998739047556	3
0	12514	2215.959047446675	2
0	12518	2216.039490522356	3
0	12521	2216.875781102729	2
0	12527	2217.488334519711	1
0	12532	2217.566771300283	0
0	12550	2220.85242527779	1
0	12551	2220.985964110317	0
0	12557	2221.730913687346	1
0	12558	2222.431671451339	0
0	12562	2222.698731567499	1
0	12566	2225.790584667248	2
0	12568	2227.170631238086	3
0	12574	2229.440339445108	2
0	12583	2230.808059422961	3
0	12585	2231.10444707486	4
0	12589	2231.285945853574	5
0	12591	2232.895078239653	6
0	12592	2233.783289084121	5
0	12597	2234.873647334783	4
0	12604	2236.705848557042	3
0	12608	2237.299976135391	4
0	12613	2238.051878937749	5
0	12614	2238.194586714451	4
0	12619	2238.303366542675	3
0	12626	2238.846292626071	2
0	12630	2239.12397308261	3
0	12634	2243.24856475815	4
0	12637	2243.472829222704	3
0	12642	2244.165797536499	2
0	12647	2245.412624936906	1
0	12654	2246.812342330596	0
0	12665	2248.818552768342	1
0	12668	2248.970261217298	0
0	12679	2250.664621898397	1
0	12681	2250.984634245721	2
0	12684	2251.844058844758	3
0	12686	2252.059605466527	4
0	12687	2254.021511205785	3
0	12692	2254.023352288365	2
0	12697	2254.1944591675	1
0	12703	2255.426165802914	0
0	12707	2256.121339289764	1
0	12710	2257.195975809081	0
0	12741	2262.084279833077	1
0	12742	2262.575179083212	0
0	12756	2265.30719102867	1
0	12757	2265.652740895654	0
0	12764	2265.812712155196	1
0	12766	2266.477510879925	0
0	12782	2267.42113409147	1
0	12784	2267.42563067332	2
0	12787	2268.419639436955	1
0	12792	2268.460035943881	0
0	12798	2268.634870947153	1
0	12799	2268.753810359978	0
0	12813	2269.43733733376	1
0	12814	2269.527158239176	0
0	12880	2287.652414824854	1
0	12885	2289.39557847204	0
0	12900	2291.760946382849	1
0	12904	2292.251653067207	2
0	12906	2292.323948392108	3
0	12908	2293.614648985931	4
0	12910	2294.141531164058	5
0	12912	2294.354618521461	6
0	12921	2296.461615249218	5
0	12927	2297.878464823007	6
0	12928	2298.09838415181	5
0	12934	2298.13418200703	6
0	12936	2298.230247608645	5
0	12942	2299.21004797342	6
0	12950	2302.469409363495	5
0	12955	2302.531898646372	4
0	12960	2303.044620704576	3
0	12966	2303.271800959514	4
0	12967	2303.62364118952	3
0	12974	2303.871178569004	2
0	12978	2304.58337711379	3
0	12982	2305.576826482584	4
0	12985	2307.248072249318	3
0	12990	2308.520202264621	2
0	12996	2309.927253716819	1
0	13001	2310.283064079629	0
0	13022	2312.977804256661	1
0	13024	2313.398385064615	0
0	13032	2315.807350557878	1
0	13033	2316.033593653785	0
0	13039	2316.082999787432	1
0	13041	2316.238189003932	2
0	13042	2316.302757479959	1
0	13047	2316.400427269316	0
0	13051	2316.804076130786	1
0	13053	2318.76651918531	2
0	13056	2319.212149624573	1
0	13061	2319.964564386699	0
0	13094	2322.10022990991	1
0	13097	2323.138945085815	0
0	13112	2324.689045140703	1
0	13119	2326.922593395173	0
0	13133	2328.849776039082	1
0	13134	2329.219432791251	0
0	13145	2331.106754557206	1
0	13146	2331.168158744185	0
0	13165	2332.609952780896	1
0	13166	2333.697006259721	0
0	13180	2335.107441553183	1
0	13181	2335.504828734723	0
0	13189	2336.00930624503	1
0	13192	2337.177776687906	0
0	13227	2342.512877804325	1
0	13229	2342.773701374309	2
0	13233	2343.534574377002	3
0	13235	2343.741401579751	4
0	13240	2344.133218090812	5
0	13244	2346.780198021766	4
0	13250	2347.268959832193	3
0	13255	2347.837244028858	2
0	13260	2347.897974588372	1
0	13265	2347.962462934707	0
0	13281	2349.521389432337	1
0	13282	2349.744830849088	0
0	13304	2353.59820716144	1
0	13306	2354.335165216528	0
0	13329	2355.364886551255	1
0	13330	2356.037006727539	0
0	13336	2357.760171665475	1
0	13337	2357.937292910971	0
0	13345	2358.828965955836	1
0	13347	2358.895736323487	2
0	13348	2359.059192655909	1
0	13354	2359.50707893341	2
0	13355	2360.01526843228	1
0	13361	2360.848704340244	0
0	13372	2361.133592918844	1
0	13374	2361.138153312556	2
0	13376	2361.410414335833	3
0	13381	2362.785378756499	2
0	13389	2363.665599879332	3
0	13393	2364.736348624898	4
0	13394	2364.815913445135	3
0	13399	2365.462692277552	2
0	13410	2365.964196496292	1
0	13415	2366.213706688531	0
0	13421	2366.32822827609	1
0	13422	2366.400921175717	0
0	13426	2366.549499024082	1
0	13434	2370.712680365829	2
0	13435	2371.076580408689	1
0	13441	2371.144877011405	2
0	13442	2371.402024114896	1
0	13448	2371.446756096216	2
0	13450	2371.736895750778	3
0	13452	2372.329867305052	2
0	13458	2373.823770293614	3
0	13459	2373.982448038992	2
0	13467	2377.22732108183	1
0	13475	2378.252461894855	2
0	13476	2378.673901008682	1
0	13480	2378.758198334529	2
0	13484	2379.511173187489	1
0	13489	2380.163896987569	0
0	13506	2383.033188313426	1
0	13508	2383.267163549261	0
0	13514	2383.332935376651	1
0	13515	2383.37430284493	0
0	13523	2384.189760917341	1
0	13524	2384.341880554942	0
0	13545	2387.050420710464	1
0	13547	2387.151899258943	2
0	13548	2387.155978205484	1
0	13554	2387.516780838667	2
0	13557	2388.491647837273	1
0	13563	2388.942212330107	2
0	13564	2389.357128122092	1
0	13569	2390.139495290793	0
0	13575	2390.578878385152	1
0	13576	2390.769758317061	0
0	13582	2391.16064324174	1
0	13586	2391.424044994828	2
0	13588	2392.286409263351	3
0	13589	2392.565064478772	2
0	13594	2393.429835111885	1
0	13600	2393.863568844611	2
0	13603	2394.509874586839	1
0	13609	2395.479315883113	2
0	13611	2395.559763013795	3
0	13614	2396.241094150097	2
0	13620	2397.00022321698	3
0	13621	2397.255045463948	2
0	13627	2398.201479791765	3
0	13631	2398.80656947844	2
0	13636	2398.808220815757	1
0	13643	2399.58315189658	0
0	13647	2399.78638200691	1
0	13653	2401.108184370167	2
0	13659	2403.976362582069	1
0	13665	2404.432178846362	2
0	13666	2404.815858033765	1
0	13671	2406.275964213917	0
0	13677	2406.424460277789	1
0	13679	2406.805681400171	2
0	13680	2406.838926116406	1
0	13685	2407.961126883932	0
0	13689	2408.210599031522	1
0	13692	2408.559268854664	0
0	13696	2409.290355776417	1
0	13698	2409.824326152173	2
0	13700	2409.881404148908	3
0	13705	2410.772647470355	2
0	13709	2410.999723871602	3
0	13717	2412.972104802821	4
0	13718	2413.091702621686	3
0	13725	2414.531624659097	2
0	13730	2416.307117872919	1
0	13734	2417.699083103656	2
0	13738	2418.351290913568	3
0	13741	2418.837193988006	2
0	13750	2420.126097019303	3
0	13751	2421.364365551276	2
0	13757	2421.604684261073	1
0	13762	2421.67987107119	0
0	13768	2422.38347848122	1
0	13770	2422.439234048077	2
0	13771	2422.729970840357	1
0	13777	2424.788563759661	2
0	13780	2427.264700379784	1
0	13784	2427.457498442598	2
0	13796	2429.370684258697	3
0	13797	2430.291565969523	2
0	13801	2431.019957811537	3
0	13804	2431.31139548259	2
0	13808	2432.713375802185	3
0	13813	2433.539766415148	2
0	13818	2435.23001166636	1
0	13823	2437.88292783063	0
0	13827	2439.244673449725	1
0	13831	2439.930731915381	2
0	13835	2440.947674483056	3
0	13837	2440.995386092962	4
0	13838	2441.058397840158	3
0	13842	2441.156574091077	4
0	13845	2443.710657052852	3
0	13853	2446.839555545034	2
0	13858	2447.411484308734	1
0	13862	2447.898427183812	2
0	13873	2451.322764893661	3
0	13874	2451.603611580599	2
0	13881	2452.516238621118	1
0	13886	2452.755862422809	0
0	13893	2453.837411706939	1
0	13894	2453.915593748506	0
0	13906	2454.847162219408	1
0	13910	2455.181624356585	2
0	13913	2455.627986977978	3
0	13917	2455.730273115347	4
0	13918	2456.217089764602	3
0	13923	2456.472355532636	2
0	13929	2456.709672142283	1
0	13936	2457.972577955926	0
0	13962	2463.337507546226	1
0	13963	2463.45330174982	0
0	14012	2469.52525045208	1
0	14016	2470.650682801313	2
0	14021	2470.855423525617	1
0	14027	2470.870323561743	2
0	14030	2470.940801111633	3
0	14031	2471.109612105926	2
0	14037	2471.360005384558	1
0	14043	2472.028820680266	0
0	14068	2474.896041789522	1
0	14070	2475.691643610977	2
0	14072	2475.81943118676	3
0	14074	2476.212435939872	4
0	14076	2476.336625941982	5
0	14082	2477.535194962578	6
0	14083	2477.55345398423	5
0	14091	2478.92957912038	6
0	14092	2478.988091621106	5
0	14099	2479.530946239752	4
0	14105	2480.25053879464	5
0	14106	2480.843935778457	4
0	14115	2481.904255826673	3
0	14121	2481.952064759055	4
0	14123	2482.358393363684	3
0	14128	2482.472735699481	2
0	14133	2483.171318447094	1
0	14140	2484.223153166282	2
0	14141	2484.629291409533	1
0	14147	2484.805303414675	2
0	14149	2485.397516613062	3
0	14150	2486.424017093877	2
0	14156	2487.488789976174	3
0	14157	2487.700437584508	2
0	14164	2488.308162106547	1
0	14172	2489.040720010538	0
0	14198	2491.862341339027	1
0	14200	2492.736911724994	2
0	14203	2493.190944767558	1
0	14208	2493.386888902896	0
0	14215	2493.752366369046	1
0	14217	2494.567583955918	0
0	14221	2496.403343726122	1
0	14223	2496.822563770738	2
0	14225	2496.958997667184	3
0	14229	2498.54078480157	2
0	14234	2499.518583385243	1
0	14240	2500.628362509519	2
0	14241	2501.113657808885	1
0	14249	2501.823092987963	0
0	14269	2503.606606406767	1
0	14271	2503.840007234109	0
0	14277	2503.897942324343	1
0	14278	2504.279519272919	0
0	14284	2504.660123829304	1
0	14286	2505.819717793491	0
0	14304	2507.952510634408	1
0	14305	2508.224035678075	0
0	14317	2509.016554338264	1
0	14320	2510.025736995864	0
0	14350	2514.482673652634	1
0	14353	2515.469562741396	0
0	14359	2516.706492138203	1
0	14360	2517.019327298714	0
0	14374	2517.9356527992	1
0	14379	2518.651063533095	0
0	14386	2519.697055375993	1
0	14387	2520.492753577248	0
0	14410	2523.914938700183	1
0	14412	2524.154625937491	2
0	14413	2525.337509508138	1
0	14418	2525.863059970554	0
0	14424	2526.187799151437	1
0	14428	2527.270876344346	0
0	14435	2527.528622006422	1
0	14437	2529.093692917028	0
0	14444	2529.912314100915	1
0	14446	2529.965680762557	2
0	14447	2530.747005097594	1
0	14452	2530.774162099335	0
0	14466	2531.548113062018	1
0	14468	2531.775031263844	0
0	14474	2531.876302845193	1
0	14475	2531.976464635097	0
0	14486	2532.229205959084	1
0	14487	2532.958875368058	0
0	14512	2534.4305434574	1
0	14513	2534.446425118943	0
0	14519	2534.480092251923	1
0	14521	2534.921662785759	0
0	14570	2540.918400989767	1
0	14571	2541.122939508729	0
0	14580	2541.829395325355	1
0	14586	2544.444534647486	2
0	14588	2544.849109145782	3
0	14590	2545.152923275201	4
0	14592	2545.158765330566	5
0	14601	2547.758367998331	6
0	14602	2547.9039334026	5
0	14610	2548.43438398663	6
0	14611	2548.457785893164	5
0	14617	2549.002842827834	6
0	14618	2549.412406639316	5
0	14623	2549.712498150093	4
0	14631	2550.123928479583	3
0	14638	2550.623615878022	4
0	14640	2551.349792946655	5
0	14642	2551.460169997432	6
0	14645	2552.085230572918	5
0	14650	2552.38811608365	4
0	14660	2555.472624948315	3
0	14668	2555.909376889734	2
0	14675	2556.49551438358	1
0	14681	2556.850401303229	0
0	14701	2559.42591390838	1
0	14703	2559.846485003136	2
0	14707	2562.111419932986	1
0	14711	2562.154625056598	2
0	14713	2563.312930157041	3
0	14718	2566.595540975533	2
0	14725	2567.190348805013	3
0	14726	2567.530321802062	2
0	14731	2567.534286472041	1
0	14735	2567.787634403305	2
0	14738	2568.575791481674	1
0	14747	2570.091597567437	0
0	14801	2578.201863984921	1
0	14807	2582.282155366114	2
0	14808	2582.740235396868	1
0	14816	2583.492797475926	0
0	14822	2585.028097319669	1
0	14823	2585.314817879183	0
0	14830	2586.2981033655	1
0	14832	2588.021803414199	2
0	14834	2588.140296650714	3
0	14835	2588.442782353556	2
0	14840	2588.951606675839	1
0	14847	2589.525980763195	0
0	14885	2592.616295739927	1
0	14888	2593.874770020757	0
0	14896	2594.787507482301	1
0	14899	2595.224195740058	2
0	14900	2595.438316136478	1
0	14906	2595.698413934806	0
0	14936	2602.158358896073	1
0	14937	2602.332706226523	0
0	14946	2602.593292866898	1
0	14954	2604.516022350444	0
0	14972	2605.380609956121	1
0	14976	2606.397191567117	0
0	14993	2607.617384383031	1
0	14995	2607.752266380825	2
0	14998	2608.38097776876	3
0	14999	2609.352685400312	2
0	15005	2610.243423162689	1
0	15011	2610.789322170982	0
0	15035	2613.954030050375	1
0	15038	2614.287280289457	0
0	15047	2614.941637606948	1
0	15048	2615.286740403119	0
0	15068	2618.764214593711	1
0	15070	2618.772258671203	2
0	15072	2619.659107145792	3
0	15074	2619.906987282638	4
0	15076	2620.431890357655	5
0	15080	2622.972634542058	6
0	15082	2623.178791597976	7
0	15084	2623.555424773061	8
0	15087	2625.531284522045	7
0	15094	2626.340063096495	8
0	15097	2626.353527845984	9
0	15103	2627.518698630209	8
0	15110	2628.034645725717	7
0	15117	2628.681253208964	8
0	15118	2628.738906254887	7
0	15124	2629.223477972488	6
0	15130	2629.565002950078	5
0	15136	2629.688175558059	6
0	15137	2629.752057869633	5
0	15146	2634.253065488711	4
0	15153	2636.416959780668	5
0	15154	2636.524592286314	4
0	15159	2636.684735302123	3
0	15164	2637.818079133293	2
0	15169	2639.21334993677	1
0	15173	2639.567614043205	2
0	15175	2639.571607189713	3
0	15177	2639.754587142193	4
0	15180	2641.941677022196	3
0	15189	2643.90388269256	2
0	15195	2644.421758963676	1
0	15199	2644.83608237754	2
0	15202	2645.3387254332	1
0	15208	2647.437224204593	2
0	15211	2648.952992479371	1
0	15216	2649.097852554348	0
0	15220	2650.014757893726	1
0	15224	2650.614045971478	0
0	15235	2650.745607503954	1
0	15236	2651.529578706124	0
0	15240	2653.692175272158	1
0	15242	2655.065544956665	2
0	15247	2655.595980291578	1
0	15251	2656.229248834929	2
0	15255	2657.298901200149	3
0	15257	2657.451823687236	4
0	15258	2657.55022939602	3
0	15265	2658.321766472515	4
0	15266	2659.280067546807	3
0	15270	2661.345892608988	4
0	15272	2662.117371372314	5
0	15274	2663.090987030485	6
0	15279	2664.585653340873	5
0	15284	2666.163228270101	4
0	15292	2666.78166625454	5
0	15293	2666.991211135706	4
0	15299	2667.674772143533	5
0	15303	2668.446507791603	6
0	15305	2668.731608805187	5
0	15312	2669.604544498758	6
0	15313	2669.756726721275	5
0	15319	2669.953852409389	6
0	15320	2670.140980270441	5
0	15327	2671.548839797867	4
0	15331	2671.984337981369	5
0	15335	2674.413053263766	6
0	15336	2674.789716601875	5
0	15342	2675.391149913523	6
0	15346	2675.863973784673	7
0	15349	2676.501359028561	6
0	15354	2677.68571097396	5
0	15360	2678.895345969301	6
0	15361	2679.209986788883	5
0	15367	2680.721364685983	4
0	15372	2681.560925532154	3
0	15376	2683.226848176427	4
0	15380	2684.748539931171	3
0	15385	2685.122357872251	2
0	15390	2686.834043595082	1
0	15395	2687.218884884818	0
0	15418	2689.688720357021	1
0	15421	2690.418514823172	0
0	15437	2692.414621180638	1
0	15438	2693.252896133675	0
0	15464	2698.246413001369	1
0	15465	2698.590476650217	0
0	15483	2702.071429257134	1
0	15488	2702.756925246745	0
0	15494	2703.177557678482	1
0	15496	2703.185176648779	2
0	15498	2703.56442956357	1
0	15509	2704.863246857697	0
0	15521	2705.746069649777	1
0	15524	2707.885758597565	0
0	15532	2708.850350830826	1
0	15533	2708.864039324158	0
0	15576	2713.92144776226	1
0	15577	2714.314465638073	0
0	15598	2717.029186610852	1
0	15599	2717.80493729002	0
0	15608	2718.027992127713	1
0	15610	2719.166164931334	2
0	15613	2720.263539420704	1
0	15619	2720.322108829358	2
0	15622	2720.990279129575	3
0	15624	2721.100852496095	4
0	15627	2721.693209482034	5
0	15631	2722.74469555106	6
0	15633	2723.329086167956	7
0	15634	2723.906357969259	6
0	15639	2724.084435428963	5
0	15644	2724.159890079862	4
0	15653	2725.972384650097	3
0	15663	2727.899503986079	2
0	15669	2729.54436404911	1
0	15675	2729.757174315291	2
0	15678	2730.33679743805	1
0	15685	2731.771059049368	0
0	15734	2736.770028609786	1
0	15740	2737.954309335751	2
0	15742	2737.987849900947	3
0	15745	2738.009225954778	2
0	15753	2738.63013554266	3
0	15755	2738.976267218554	4
0	15757	2740.257133456443	5
0	15760	2742.002029952623	4
0	15766	2742.976802969577	3
0	15773	2743.951971124478	2
0	15778	2744.894670257661	1
0	15783	2745.627053883066	0
0	15796	2746.983476977501	1
0	15797	2747.014536741759	0
0	15803	2747.074152649824	1
0	15805	2747.409944055324	0
0	15833	2752.45529911918	1
0	15840	2754.968060106427	0
0	15846	2755.016887469348	1
0	15849	2755.932599467693	0
0	15871	2760.18725284432	1
0	15872	2760.261149811732	0
0	15879	2760.361716723855	1
0	15883	2761.053029252208	2
0	15884	2761.411954716259	1
0	15889	2761.653452772908	0
0	15929	2764.281688801056	1
0	15930	2764.404827790613	0
0	15945	2766.838277055405	1
0	15946	2767.009775353445	0
0	15954	2767.474186262643	1
0	15955	2768.127622447581	0
0	15974	2770.212764000478	1
0	15977	2770.416045296997	0
0	16002	2774.891146662635	1
0	16003	2775.739058158466	0
0	16019	2778.11650043244	1
0	16021	2778.124611852896	2
0	16022	2778.668216638629	1
0	16032	2779.572894630887	2
0	16035	2779.655901181552	1
0	16040	2779.773785359739	0
0	16059	2781.163313570251	1
0	16061	2781.212540422173	2
0	16062	2781.406074392097	1
0	16067	2781.536676420718	0
0	16089	2782.679024711069	1
0	16091	2783.299596743504	0
0	16110	2786.116034270804	1
0	16113	2787.39384684503	0
0	16126	2788.389469418572	1
0	16128	2789.01033184766	2
0	16129	2789.357660069601	1
0	16134	2789.39407864749	0
0	16147	2791.603943489135	1
0	16152	2792.442083486294	0
0	16177	2797.380432974177	1
0	16181	2798.945628079113	0
0	16187	2799.744973737278	1
0	16188	2800.355982891837	0
0	16199	2800.913420150079	1
0	16201	2801.625399107629	2
0	16204	2801.891327622074	3
0	16205	2801.973057570197	2
0	16211	2803.258025942013	3
0	16213	2803.894651745886	2
0	16221	2804.50664449092	1
0	16228	2805.063215032311	0
0	16234	2805.478830895317	1
0	16235	2806.75402110319	0
0	16242	2806.809909710473	1
0	16243	2807.979185321734	0
0	16254	2808.765324749241	1
0	16257	2810.160486025187	0
0	16273	2812.494254231324	1
0	16274	2812.543459767138	0
0	16294	2813.543500813093	1
0	16295	2814.066993361987	0
0	16302	2814.606624577262	1
0	16303	2815.427050362148	0
0	16315	2817.106326697685	1
0	16321	2817.681888529921	2
0	16322	2817.759077610403	1
0	16328	2817.866877090565	2
0	16330	2819.453524183383	1
0	16335	2819.622717198691	0
0	16341	2820.519033794831	1
0	16342	2822.965432592684	0
0	16346	2823.94930465479	1
0	16350	2824.404637766175	2
0	16351	2824.41455614957	1
0	16355	2825.137766209593	2
0	16358	2826.121222271699	1
0	16366	2829.422386421558	2
0	16367	2830.305275330642	1
0	16373	2834.113333720054	2
0	16377	2835.361060428831	3
0	16378	2836.032100063833	2
0	16383	2836.18641226991	1
0	16387	2836.744980161643	2
0	16389	2836.935778503937	3
0	16392	2836.996435152058	2
0	16397	2837.599493599214	1
0	16404	2840.024388851889	0
0	16417	2843.484540590724	1
0	16418	2843.699016680559	0
0	16500	2856.07742191813	1
0	16504	2858.385863389556	2
0	16506	2859.707835407317	1
0	16511	2859.931538338163	0
0	16517	2859.942200206335	1
0	16520	2860.618575578659	0
0	16534	2863.24465634462	1
0	16536	2863.363586466122	2
0	16540	2864.105890792233	3
0	16546	2865.226317826169	2
0	16554	2866.537273171246	3
0	16557	2868.054358433199	2
0	16562	2868.10128492644	1
0	16568	2868.966396199815	0
0	16574	2869.098821604384	1
0	16575	2869.622608270951	0
0	16579	2870.390888861313	1
0	16581	2871.032768998365	2
0	16586	2873.033151861499	3
0	16588	2873.163537350652	4
0	16589	2873.790315270268	3
0	16601	2875.922157718716	4
0	16602	2876.68127132744	3
0	16609	2879.6565061679	2
0	16615	2881.484746402145	1
0	16625	2882.215224888715	0
0	16631	2882.529778230132	1
0	16635	2883.781245942557	0
0	16649	2885.530164112082	1
0	16653	2887.720266525277	0
0	16684	2891.834942476169	1
0	16686	2892.379595440499	2
0	16689	2893.200162891123	1
0	16694	2893.521116492489	0
0	16739	2898.641526359232	1
0	16740	2898.751130407685	0
0	16746	2898.968713960967	1
0	16747	2899.08557652486	0
0	16758	2899.371076934618	1
0	16761	2900.022310449715	0
0	16767	2900.079425748206	1
0	16769	2900.210085192954	2
0	16771	2900.304307707186	3
0	16774	2901.245265044744	2
0	16779	2901.29934913686	1
0	16785	2901.450078450776	0
0	16813	2904.673855193283	1
0	16815	2906.47291746529	2
0	16824	2908.762547598352	3
0	16826	2909.187889955857	4
0	16827	2909.92533858408	3
0	16834	2910.109240877962	4
0	16835	2910.262303427772	3
0	16840	2910.956664859874	2
0	16845	2911.127461801281	1
0	16850	2911.886973838963	0
0	16864	2913.142638860871	1
[...]
5	161717	28102.862532942908	30.011387071755
5	161722	28103.104587733134	27.557684791313
5	161727	28103.369155009568	25.494176541126
5	161732	28103.549281704318	24.392539374846
5	161742	28104.38747702535	13.091499003987
5	161754	28105.792765649047	10.449906855052
5	161770	28107.918267212391	12.359001848407
5	161801	28113.184591999278	15.535625402764
5	161848	28118.911184136723	20.429642704873
5	161854	28119.255630662867	18.818543447878
5	161863	28122.246167729798	18.288915141806
5	161871	28122.947016938964	9.761964745297
5	161880	28124.167225225573	1.894483611491
5	161921	28128.513961015467	1.741427840026
5	162089	28176.602989332112	47.936859596152
5	162108	28178.705333444217	47.22879597579
5	162113	28179.201593166962	44.59469630519
5	162118	28179.228658685902	36.8277108218
5	162127	28181.121367176655	31.818207984329
5	162149	28183.695193776777	32.46965560389
5	162178	28186.880398577632	22.356270515262
5	162186	28187.946420516284	22.347929735716
5	162199	28189.832949060707	16.95002759569
5	162213	28190.738983264879	16.7156560196
5	162223	28191.004836238767	10.726452143073
5	162233	28191.997163706334	8.182187170167
5	162245	28192.980612423506	8.750048846436
5	162251	28194.793249856309	9.712379180326
5	162262	28197.554269424635	5.577132683897
5	162298	28206.881036628114	14.180234079243
5	162303	28206.9781936519	4.384899658286
5	162312	28210.925078291571	0.073395989893
5	162328	28213.639560688235	2.299986669938
5	162366	28219.147543123143	6.576876718719
5	162390	28221.61727619124	0.65721495437
5	162408	28223.932895916042	0.84372279914
5	162425	28228.477759438363	0.710631348172
5	162438	28232.995261670969	2.591341731982
5	162475	28236.979739605251	3.041352378013
5	162489	28238.340098435946	0.992576461054
5	162493	28238.514871190673	0.271564899964
5	162500	28239.383601075546	0.078048877868
5	162507	28240.952742713615	0.09134350481
5	162530	28243.421722916251	0.358638629069
5	162546	28247.870294967618	3.778529344245
5	162567	28250.224722918096	3.282941997459
5	162579	28252.202384544632	4.393376527837
5	162620	28257.833090166951	1.805675496563
5	162711	28275.200808256579	12.687889547563
5	162718	28275.91586964813	11.127749322709
5	162725	28277.154047415511	5.985944926272
5	162735	28279.117327798606	7.538051221978
5	162742	28281.359966149958	2.969628606017
5	162757	28285.619666762105	6.887955539205
5	162764	28286.518411530534	3.154782568376
5	162771	28287.351728455127	0.869747099875
5	162775	28287.785272519954	1.184875143986
5	162797	28288.815755175387	0.463934863718
5	162808	28290.515706884098	1.292953596521
5	162872	28300.508330962819	4.745687424634
5	162880	28302.963700333842	7.126182094554
5	163119	28345.058512048156	46.052739185936
5	163131	28347.810768759236	44.60856193871
5	163143	28349.478439703662	44.204671058643
5	163150	28349.604474307816	44.164596871455
5	163157	28350.151910294693	38.524285423123
5	163169	28353.223126747472	35.776047300687
5	163174	28353.343634081867	32.101983625511
5	163182	28354.502144670096	32.579769330898
5	163194	28355.522493138195	31.407356259643
5	163204	28360.746768609581	30.58533276931
5	163245	28365.25633534029	30.782700038799
5	163253	28368.852516026327	30.59974146524
5	163259	28369.080610861322	30.065856376772
5	163266	28370.911432669493	30.168571342449
5	163271	28371.068789656332	29.753022860253
5	163276	28371.092559558664	24.85446016752
5	163282	28373.414269561303	24.687205590698
5	163293	28375.40182395545	20.342376732841
5	163333	28378.660609876916	17.572257595031
5	163351	28384.263874694805	22.300335819429
5	163422	28397.493370008433	29.990458691972
5	163465	28402.963876542884	32.924679475146
5	163472	28403.901617852369	28.900325794874
5	163491	28408.597534079344	32.95295169856
5	163504	28410.011872513715	22.593888804934
5	163533	28412.245094865022	23.128333986774
5	163882	28473.709227693073	72.930400675575
5	163894	28475.623333179302	65.822801336349
5	163902	28477.621815442392	51.852994367078
5	163925	28483.828824673263	48.478852687161
5	164351	28575.047614137639	133.38613222056
5	164356	28575.570063770627	133.34156449784
5	164373	28579.146573931535	134.43789011838
5	164388	28580.208000771072	135.16876435701
5	164397	28581.681236429444	131.65673305505
5	164411	28584.605872013314	133.73483606038
5	164423	28586.500996413058	131.49083774057
5	164475	28595.860115486308	137.75176802949
5	164485	28596.40160666983	136.13088737115
5	164497	28598.098115055873	135.80568099204
5	164575	28610.269141247239	141.09561556823
5	164583	28610.907942198713	141.12661654749
5	164594	28611.699838118124	140.27018730706
5	164608	28614.679119517247	141.33087654046
5	164622	28617.113195037472	138.83101635887
5	164627	28617.530703215011	134.0079899931
5	164632	28617.797548285761	132.41843217084
5	164638	28618.925274251725	131.05994779866
5	164643	28619.018995149236	125.98807944845
5	164650	28620.891862262417	126.91486014175
5	164664	28624.912227552145	123.95586320946
5	164685	28629.191206088821	127.35860232768
5	164698	28631.342868028102	128.75933499235
5	164710	28634.752990016256	131.85406786243
5	164749	28639.334768465589	113.80355839984
5	164754	28639.52483356621	110.03918191643
5	164766	28641.983001069308	112.33859901276
5	164790	28644.751587777762	113.11078713067
5	164830	28651.089210455472	116.99879841627
5	164839	28653.604071058001	117.68743922481
5	164846	28654.15325290977	114.26495535575
5	164857	28654.917768628895	105.07594520577
5	164862	28654.979191002289	105.06983347418
5	164870	28656.987032887854	105.95174138322
5	164875	28657.863453371272	91.767764682445
5	164880	28657.985470924945	89.907644086641
5	164891	28665.777388004885	97.303129605045
5	164905	28666.477914360099	95.647645516168
5	164910	28666.74844541689	91.726189642455
5	164923	28670.122509768628	94.227536974564
5	164940	28672.899137621793	95.601076496805
5	164960	28677.225148887677	89.450215252456
5	164976	28680.268447611222	91.786606302167
5	165008	28683.223400868694	92.971705911267
5	165021	28684.109520219223	85.294390788349
5	165032	28687.341531390148	83.720658012682
5	165053	28691.194017355667	83.234197863612
5	165071	28696.316467423199	87.310465167969
5	165085	28697.451620995865	83.479066623791
5	165097	28699.286643943918	82.397143666274
5	165109	28700.633063742386	69.769307906293
5	165351	28750.072615752446	116.97218998766
5	165381	28756.769281191993	114.85190146784
5	165418	28765.302616832402	121.97990613941
5	165424	28766.466445330729	121.98404219447
5	165431	28766.680660415615	121.77294918365
5	165445	28768.720560002046	123.26805694391
5	165455	28769.051682661418	122.20900948363
5	165468	28770.839631455712	122.94167521849
5	165484	28771.527616806233	120.34713200886
5	165489	28771.568656039127	111.76395181541
5	165502	28777.384755755396	112.1873936108
5	165556	28789.484848261682	123.65351679594
5	165568	28791.013745179104	123.94112311004
5	165576	28792.827734333858	123.54402625988
5	165588	28794.902083029954	125.60883917778
5	165594	28795.275124842371	123.75298328436
5	165600	28796.317707405436	122.63431973778
5	165607	28796.781576888799	113.47451804815
5	165612	28796.995743982879	110.43665255379
5	165621	28798.869963607035	110.97760239422
5	165646	28802.154626843364	111.37050235124
5	165665	28803.293034641672	110.55229682364
5	165670	28803.622374431191	108.45002483483
5	165680	28805.074917341856	106.63802428216
5	165690	28806.02163942251	100.01597157835
5	165695	28806.0312526349	94.811001704524
5	165702	28807.585059765539	95.115433084401
5	165717	28810.136277162913	97.486256217135
5	165735	28811.993964282154	97.402188203772
5	165744	28815.86569195263	73.105328324456
5	165766	28818.805131648258	75.982239026401
5	165834	28833.290463033972	89.770424126846
5	165840	28833.470733003959	88.355534672394
5	165848	28834.043730424578	88.638442977724
5	165862	28835.293036127586	89.410522169005
5	165915	28844.795289390835	96.565203538052
5	165922	28846.637654779898	86.869642261635
5	165944	28849.822068728573	87.473317458822
5	166022	28858.361106353352	95.706430686895
5	166027	28858.571461573107	88.389951392702
5	166032	28860.527553041131	85.979639092811
5	166037	28860.712907112056	83.646669725109
5	166042	28861.585689535204	81.777477062923
5	166048	28862.587888424685	79.86096039059
5	166056	28863.9889527619	76.857853656585
5	166064	28864.504037659262	67.749360158231
5	166086	28867.463780723284	57.466373958501
5	166091	28867.50084708767	51.52131207333
5	166103	28873.199233122689	56.31282677233
5	166212	28893.474801520392	68.11340865556
5	166217	28893.731825393539	66.66153969738
5	166226	28894.928585998166	67.830109970473
5	166240	28896.885512771062	67.90773803051
5	166245	28897.23075791966	62.560285933727
5	166252	28898.537897632639	62.833046493666
5	166257	28900.809043683382	53.625234517948
5	166268	28901.866309396245	53.251078891917
5	166434	28924.571513221532	70.444366938177
5	166440	28924.739905732023	68.826165280687
5	166450	28925.821571798942	67.819619916601
5	166463	28926.947478375916	63.644404825262
5	166468	28927.027090898157	61.158441311922
5	166475	28927.680982978824	61.688207109264
5	166488	28928.638698681896	56.64084713592
5	166504	28931.750972100258	51.236287909215
5	166514	28932.75407318515	49.492076149936
5	166520	28933.052709862432	41.570355510509
5	166531	28935.020105742277	42.487856863648
5	166570	28937.040603055776	39.186354785976
5	166575	28937.224293685841	31.65845029285
5	166585	28938.940608565454	32.780619009467
5	166594	28940.335752423097	29.572362256416
5	166606	28940.920387782712	29.922720661121
5	166611	28940.934926627034	23.964083702667
5	166617	28941.681393891769	21.019882552696
5	166625	28942.957131934592	20.715298809122
5	166630	28943.046782922853	18.023264781335
5	166637	28945.882084292342	17.587166297575
5	166649	28948.141379967479	17.156137822792
5	166656	28950.063571651753	12.28539282482
5	166677	28952.998195645541	14.242903954128
5	166696	28955.993544082039	2.979427743647
5	166705	28957.180470085253	1.901604669082
5	166713	28957.637423073214	0.070410975937
5	166748	28964.483684755007	0.959062324179
5	166813	28976.533335683906	7.752849966244
5	166833	28978.767263890894	3.646197733803
5	166840	28978.87512586604	2.424041491253
5	166845	28979.254324712658	2.663289667037
5	166849	28979.266399022319	0.853383505019
5	167666	29149.344312468422	166.58925465941
5	167671	29149.722568724042	164.9678299874
5	167680	29151.532225501833	162.72621495868
5	167687	29151.908789776532	157.36679248174
5	167692	29151.929035637584	155.71642398007
5	167698	29152.584977581086	154.65535695216
5	167703	29153.371099943568	148.87470767772
5	167708	29153.717137736762	147.69027382702
5	167713	29154.071961263344	145.80839517543
5	167718	29154.09189365663	140.75272985739
5	167726	29156.056732171516	137.19984434439
5	167737	29158.011136045258	137.28381830487
5	167756	29161.207136717068	138.62744318659
5	167783	29164.671049062507	139.9160996561
5	167789	29165.748713191041	139.92389709481
5	167796	29167.729745473888	133.8358296044
5	167801	29168.003980204711	127.91318270362
5	167807	29171.735937473535	123.78004104282
5	167818	29173.790231257209	109.13570043567
5	167839	29176.97701591222	99.386563299892
5	167874	29181.362937796107	103.35520207609
5	167888	29183.489613566975	97.567481725144
5	167895	29183.617582046397	97.165126985212
5	167908	29184.782692910451	86.879055284849
5	167925	29187.691718718637	89.710866663909
5	167985	29200.751780641398	95.222884151896
5	167995	29203.405257303785	87.282732365934
5	168048	29210.144556109398	92.195557498009
5	168059	29211.938931087224	92.515546086894
5	168110	29219.495771462529	98.54029219764
5	168116	29220.471787806347	96.470166063967
5	168126	29221.952825822298	91.418098146188
5	168143	29222.76181227347	86.926218553311
5	168159	29225.67881275473	89.652318272054
5	168181	29229.638671426688	91.653247327612
5	168193	29230.62181202949	91.784996782901
5	168202	29233.144136134606	89.920554396687
5	168214	29236.847071097743	86.639560683209
5	168225	29241.049721866264	86.226392684415
5	168240	29242.49166413352	85.514027487984
5	168254	29244.846218460947	83.618780664698
5	168259	29244.912703662445	83.557365693214
5	168266	29246.836807513926	82.224186119247
5	168274	29249.664736387563	77.551878909041
5	168285	29251.117078822649	68.527531771296
5	168290	29251.449667692464	68.202104552478
5	168309	29257.342001824618	73.705046612467
5	168421	29278.328675780438	90.944627254941
5	168432	29280.015188354978	90.932506332707
5	168437	29280.021769235242	90.736521886124
5	168449	29281.938654188428	86.19886709333
5	168470	29287.580522785829	90.851945036757
5	168475	29288.179931918151	84.154726388174
5	168480	29288.940747913959	78.69734601729
5	168487	29290.577765814629	77.454937977114
5	168514	29295.739060976536	82.352960535183
5	168538	29299.241777431375	81.073915063675
5	168543	29299.57003035643	76.92418964542
5	168552	29300.237136664948	76.346656093368
5	168569	29301.545546202679	76.008204000514
5	168583	29304.511364943747	72.018083371949
5	168588	29304.810846343545	67.071152238693
5	168596	29305.852902906015	65.169129119925
5	168601	29306.0748928243	64.494724075374
5	168611	29308.118003105913	62.247072050903
5	168626	29310.586990059002	52.278045285015
5	168636	29313.397283132893	45.203698612449
5	168646	29314.851621148884	43.129995076032
5	168654	29316.742162219474	42.458536682278
5	168664	29317.920701946286	36.179424942101
5	168699	29323.362174280994	31.798931920278
5	168711	29325.106912658891	19.69781282884
5	168747	29330.046488294405	23.082264212543
5	168764	29330.991982383774	20.901298470108
5	168772	29332.459542049606	20.83453938692
5	168782	29332.980098364561	17.918459947339
5	168788	29335.160632591729	17.818583679717
5	168793	29335.334945228144	13.475913215081
5	168798	29336.486469116663	13.805141742028
5	168807	29337.732060109799	13.885368218455
5	168833	29340.680134871423	13.384038872757
5	168846	29344.006096355665	5.283187928398
5	168866	29347.298323668347	5.300198002186
5	168885	29348.823106016598	6.730454626366
5	168897	29351.283959173527	7.161312500238
5	168907	29351.777487167128	6.065788547472
5	168915	29353.149524573517	5.356680598272
5	168934	29355.575776187167	5.086687122421
5	168962	29359.755382959608	8.557662715086
5	168967	29359.999334390086	5.491311515128
5	168985	29365.077368688891	9.522917186411
5	169066	29379.405167363521	23.188766557448
5	169158	29396.117564690552	23.687371947635
5	169178	29401.159278074198	20.939048308711
5	169185	29401.405897344089	20.033606739135
5	169222	29406.239425311624	22.105936650975
5	169227	29407.275319065123	19.382758375482
5	169232	29407.889509251663	13.08531405424
5	169240	29408.758461851631	4.244416709544
5	169244	29408.778690749669	3.439596994331
5	169270	29413.870639396558	0.879877959204
5	169306	29424.202266865151	0.423454984504
5	169375	29441.573366016445	1.453796402433
5	169384	29443.048918688226	1.818606996319
5	169594	29493.094228889443	50.778409257986
5	169605	29494.900709276597	49.501401210295
5	169610	29494.923591074412	47.290999137074
5	169616	29495.291508114477	41.689887831944
5	169626	29499.140752053236	39.180329434107
5	169637	29499.989966070951	37.127222664155
5	169642	29501.142095634003	33.234855282509
5	169647	29501.290115801442	25.366771521286
5	169653	29502.583023872409	25.180811613891
5	169661	29506.036037131572	26.24160693404
5	169693	29510.540485568982	1.897311887413
5	169728	29516.935503342601	1.944579410384
5	169740	29519.356136457676	3.332936307105
5	169769	29523.963359923952	1.76199088934
5	169782	29524.73245186567	0.569095697906
5	169789	29526.055464938557	0.311542299821
5	169828	29540.28539143465	9.072972511239
5	169883	29546.356737646679	4.994664894995
5	169893	29546.899981507351	3.387494518206
5	169897	29547.222767245269	2.970972101511
5	169907	29548.047614485928	0.26760317557
5	169935	29555.31228310313	1.411873595813
5	169954	29557.498895389488	1.767677568958
5	169959	29558.235422749625	1.004679946094
5	170004	29569.906858778703	3.171913695305
5	170068	29581.48732597426	0.370684583911
5	170073	29583.154466603465	1.756876452292
5	170103	29585.074848637576	1.809163459076
5	170109	29585.217486335168	0.382288375555
5	170116	29586.139491658172	1.123033801687
5	170123	29586.472432642507	1.066355410912
5	170127	29586.861492413535	0.541301366491
5	170134	29587.498936345024	0.606394032868
5	170185	29601.953339013697	0.186736929542
5	170192	29602.109619838072	0.091475963695
5	170210	29607.546864307326	0.367456843236
5	170220	29614.165246733019	0.559263345737
5	170239	29617.949175408788	0.683575383855
5	170278	29626.688252655073	5.984904452743
5	170296	29628.892001680865	7.344177181077
5	170303	29632.246554920113	6.054367439893
5	170310	29633.286018716435	4.099989647512
5	170314	29633.986453276238	1.052011136089
5	170331	29637.951617690679	0.278602858868
5	170369	29645.206529644637	1.704981112079
5	170408	29655.932027886471	1.652940766899
5	170420	29656.95409172716	0.89686665999
5	170462	29665.461179855764	0.929566255131
5	170472	29668.865795866862	0.85633409238
5	170485	29671.498480307428	0.658246579628
5	170517	29681.523793775909	0.650582592716
5	170533	29683.416615024193	0.050440885952
5	170596	29689.730011746235	5.124879311864
5	170800	29737.476297512841	51.823766811787
5	170895	29767.571779646173	81.748218825736
5	170934	29777.139754385356	89.152770561148
5	171227	29846.588520483018	158.19154578933
5	171247	29850.990429885381	158.84758777052
5	171262	29852.302927118789	160.06808008038
5	171269	29853.02249726484	151.7093490744
5	171280	29853.949723508011	149.56738204123
5	171285	29854.249131241171	148.72245344942
5	171296	29855.392435360749	147.77728993424
5	171360	29866.174481424224	150.87589912909
5	171371	29868.8613542455	146.16884665807
5	171397	29871.427308225687	141.72550463469
5	171406	29875.01405622623	141.58102743921
5	171426	29877.463127038668	140.52500570532
5	171450	29879.947212506594	142.88548440901
5	171457	29880.177923151799	142.29402596106
5	171463	29881.323409604255	141.79474273312
5	171474	29883.067282697578	141.21850102431
5	171507	29886.838397084961	144.98074129632
5	171521	29888.502802983393	140.98316844161
5	171547	29893.893734026791	140.47014075285
5	171556	29895.440052966652	133.22674132752
5	171561	29896.076430089235	133.39453978972
5	171569	29897.416114857057	128.37824812632
5	171582	29899.043863933458	122.14351227072
5	171589	29899.928833434455	118.43330307863
5	171604	29901.674429207963	119.66470713906
5	171618	29904.756510526915	119.56475126407
5	171658	29910.390475784984	124.62577723633
5	171665	29912.596362443258	120.48479042977
5	171684	29914.219914616069	114.00540711055
5	171689	29914.707422590899	105.56557652716
5	171695	29914.891213197629	104.14669628786
5	171700	29915.006077591495	103.12358026081
5	171705	29916.127995350015	102.97247899798
5	171712	29917.266706541165	98.979397693568
5	171722	29919.546968587442	90.841661052347
5	171732	29920.104116901389	89.488529286216
5	171745	29926.04459179886	89.842326094185
5	171766	29927.863322063364	90.359073891703
5	171774	29928.272281367225	79.496675623646
5	171788	29932.537815833642	83.181687556284
5	171793	29932.863158032438	81.002388401162
5	171810	29936.483980276647	79.357349185041
5	171845	29940.328572254328	80.035579258163
5	171862	29942.829310723061	81.926387657756
5	171875	29943.347583485074	80.285630517421
5	171883	29944.190086077333	78.658694368378
5	171893	29945.780023677573	79.361531069432
5	171899	29946.637591231402	79.028833092356
5	171905	29946.985532213922	72.813321032929
5	171910	29947.623472977084	71.369323325527
5	171917	29948.155632131821	65.467242366921
5	171973	29956.767227484751	66.086596795287
5	171983	29957.687822508803	65.935424853543
5	171988	29957.81817223895	64.325904152344
5	171994	29958.437476473414	63.496424940481
5	172002	29959.57640303002	50.563817382087
5	172014	29961.104059705075	51.973853676356
5	172020	29962.324931291676	52.286212617027
5	172025	29962.59699931301	49.06706420529
5	172034	29964.522954242987	47.949837689388
5	172041	29966.239078618871	48.750763941631
5	172053	29967.873945051299	44.271920870508
5	172070	29970.948627593203	46.65690377848
5	172203	29986.677195568569	59.759093528854
5	172211	29987.398223551557	57.802293641499
5	172247	29995.303170722769	59.53914346177

