version 2
run First-n4-10-20191016-17:03:40-11200
attr configname First-n4
attr datetime 20191016-17:03:40
attr experiment First-n4
attr inifile omnetpp.ini
attr iterationvars ""
attr iterationvarsf ""
attr measurement ""
attr network org.omnetpp.queueing.Pizza
attr processid 11200
attr repetition 10
attr replication ""
attr resultdir results
attr runnumber 10
attr seedset 10
param **.PS.maxInventoriedPS 4
param **.U1.interArrivalTime exponential(2s)
param **.U2.interArrivalTime exponential(4s)
param **.PS.serviceTimeForInventoryU1 exponential(0.8s)
param **.PS.serviceTimeForInventoryU2 exponential(1.0s)
param **.PS.serviceTimeDirectU1 exponential(1.2s)
param **.PS.serviceTimeDirectU2 exponential(1.4s)
param **.PS.probabilityProducing 0.5
param **.CS.serviceTimeU1 exponential(0.8s)
param **.CS.serviceTimeU2 exponential(1.0s)

vector 0 Pizza.EntryQueueU1 queueLength:vector ETV
attr interpolationmode sample-hold
attr title "queue length, vector"
vector 1 Pizza.CS queueLength:vector ETV
attr interpolationmode sample-hold
attr title "queue length, vector"
vector 2 Pizza.EntryQueueU2 queueLength:vector ETV
attr interpolationmode sample-hold
attr title "queue length, vector"
vector 3 Pizza.sink lifeTime:vector ETV
attr interpolationmode none
attr title "lifetime of arrived jobs, vector"
attr unit s
vector 4 Pizza.sink lifeTimeU2:vector ETV
attr interpolationmode none
attr title "lifetime of arrived jobs, vector"
attr unit s
vector 5 Pizza.sink lifeTimeU1:vector ETV
attr interpolationmode none
attr title "lifetime of arrived jobs, vector"
attr unit s
0	0	0	0
0	9	2.950868889951	1
0	13	4.158229986914	0
0	20	4.331200204502	1
0	21	4.403018544262	0
0	36	6.643851325214	1
0	38	7.085448467383	2
0	43	7.434516905248	1
0	49	8.474420933571	0
0	53	8.981661905636	1
0	55	9.263540920408	2
0	61	10.827691676624	3
0	63	11.185648402948	2
0	68	11.452435649738	1
0	75	11.99388646103	2
0	78	12.293201717883	1
0	87	14.20763754896	0
0	91	14.894109054308	1
0	93	15.083740229159	2
0	96	15.288672138583	1
0	106	15.90117997279	2
0	107	16.918727711058	1
0	113	17.869715087019	2
0	116	18.127418330547	1
0	123	19.948704399101	0
0	134	21.291405377703	1
0	137	23.350528122418	0
0	171	29.442945612986	1
0	173	29.447764941097	2
0	175	29.527913165231	3
0	176	30.497756370815	2
0	181	30.56412528544	1
0	188	30.778469206576	0
0	194	31.11967481121	1
0	196	31.60369869131	2
0	198	31.685257704384	3
0	199	31.967644940259	2
0	205	32.139175889031	3
0	206	32.270228695999	2
0	212	32.648632166315	3
0	218	33.498989918097	4
0	221	35.125186884993	5
0	222	35.180216155725	4
0	227	35.526022712415	3
0	235	36.609067289148	4
0	236	36.918819079065	3
0	241	37.834785103704	2
0	245	38.049966865136	3
0	248	38.220291909559	2
0	253	38.489092984501	1
0	259	38.715739379723	2
0	260	39.363497522937	1
0	265	40.209348262689	0
0	269	40.382890351297	1
0	273	40.5157064895	2
0	275	41.345852249863	3
0	276	42.002012382824	2
0	281	42.911543868126	1
0	288	44.195822463406	0
0	303	47.632152125247	1
0	304	48.013558067691	0
0	336	49.202328179489	1
0	338	50.469235263234	0
0	356	53.542410795454	1
0	358	54.086901702611	2
0	360	55.355848186289	3
0	367	57.99983350382	4
0	369	58.774832180588	3
0	374	59.003499211595	2
0	380	59.956012511296	1
0	386	60.0715148865	2
0	391	60.918677763346	3
0	393	61.41721104363	4
0	396	61.999240779315	3
0	402	62.688804515939	2
0	409	62.942080759288	3
0	411	64.367444644642	2
0	417	64.740971251646	1
0	422	64.905850733854	0
0	435	66.2896587558	1
0	436	66.814654483356	0
0	462	69.89181382985	1
0	463	70.383881615456	0
0	483	71.09881074088	1
0	484	71.848271129875	0
0	505	74.151899940987	1
0	511	76.714735645294	0
0	518	76.928208958847	1
0	519	77.244086849354	0
0	540	81.504509479569	1
0	542	82.331541742201	2
0	545	82.827909115449	1
0	550	82.892083973959	0
0	564	85.110854007431	1
0	567	85.658876127551	0
0	578	86.183480002319	1
0	579	86.408892115059	0
0	587	87.152596548282	1
0	589	88.519292370295	0
0	595	88.56952801488	1
0	596	88.877309684852	0
0	609	89.04905625289	1
0	611	89.539263054948	0
0	666	101.933667079619	1
0	670	102.671665537692	2
0	672	103.699219948277	3
0	673	103.86783547156	2
0	678	103.910733319995	1
0	684	104.314663675992	0
0	697	105.130859074891	1
0	700	106.023775737655	0
0	708	106.815413228196	1
0	711	107.56889590736	2
0	712	109.62564821582	1
0	717	109.666363055793	0
0	733	110.815725564733	1
0	734	111.057997504249	0
0	758	116.489357031111	1
0	759	117.628276981657	0
0	790	124.929955086296	1
0	792	124.934702700754	2
0	794	124.953230461458	3
0	795	124.968234793981	2
0	799	125.712205877351	3
0	803	127.735559430694	2
0	810	128.198574560869	3
0	816	129.358867396624	2
0	822	129.470438487572	1
0	827	129.918416690313	0
0	853	132.750070390148	1
0	855	132.911166452914	0
0	909	143.812670129686	1
0	910	144.695046998755	0
0	914	144.748985206787	1
0	920	145.937664799823	0
0	930	147.163143144017	1
0	931	147.573639088778	0
0	938	148.357053485182	1
0	940	148.939816032805	0
0	946	149.038473548286	1
0	947	149.469442899853	0
0	974	152.685927746642	1
0	976	153.332058090376	2
0	978	154.398557289314	3
0	981	156.026227029779	2
0	987	156.821046822283	1
0	994	157.579951652499	0
0	998	158.085073708861	1
0	1006	160.455222895164	2
0	1008	161.297832353711	3
0	1013	161.667619012937	2
0	1019	162.701988276792	1
0	1027	163.757780399517	0
0	1053	166.118855407026	1
0	1057	167.703318887482	0
0	1065	167.745514688895	1
0	1067	167.821587305487	2
0	1069	168.407371797465	3
0	1071	168.833043144291	2
0	1076	168.885783831308	1
0	1083	170.341488895756	0
0	1087	170.678974807463	1
0	1089	170.819509258945	2
0	1095	173.141444339413	3
0	1098	173.434110497185	2
0	1102	174.779433476056	3
0	1106	175.403077531241	4
0	1112	175.940698624929	5
0	1113	175.955468023261	4
0	1118	176.313104579353	3
0	1123	176.984911032819	2
0	1130	178.889254898002	1
0	1138	179.880310169378	0
0	1197	187.607996707715	1
0	1198	188.217343499358	0
0	1219	191.149105746565	1
0	1225	193.63397744016	0
0	1231	193.961998703541	1
0	1233	193.979392656812	2
0	1241	196.641219041105	3
0	1242	196.801437196337	2
0	1247	196.898743944613	1
0	1252	198.17786126252	0
0	1265	199.204863176816	1
0	1266	199.35158889903	0
0	1279	202.182563997555	1
0	1284	202.557310215603	0
0	1302	205.846320951605	1
0	1303	206.102852141561	0
0	1309	206.103532927722	1
0	1313	207.403854049187	0
0	1348	211.488929578127	1
0	1352	213.060725708313	0
0	1360	213.898909372282	1
0	1361	214.056621484284	0
0	1374	216.327574704655	1
0	1377	217.035676689633	0
0	1412	219.758896602472	1
0	1413	221.024685815635	0
0	1433	224.538672967519	1
0	1436	224.709602558257	2
0	1439	225.611910769164	1
0	1445	226.106249743105	0
0	1451	226.884614821371	1
0	1452	226.920191009811	0
0	1456	227.909190478524	1
0	1458	228.585431612255	2
0	1461	229.063495879724	1
0	1466	230.336515275869	0
0	1470	231.097511858874	1
0	1472	231.617011815033	2
0	1477	232.981800711978	1
0	1481	234.31266643869	2
0	1483	234.809963537362	3
0	1485	234.933400251321	4
0	1489	237.004603332258	3
0	1494	237.598254618361	2
0	1498	238.266873806977	3
0	1503	238.69094604799	2
0	1508	238.841546631127	1
0	1515	239.266370463648	0
0	1519	240.308117100462	1
0	1521	240.421481988165	2
0	1527	241.65316511708	1
0	1533	241.755139931642	2
0	1535	242.188803611994	3
0	1536	242.466072598066	2
0	1541	243.0660796917	1
0	1546	243.973902001277	0
0	1552	245.570398079035	1
0	1556	247.96612108497	2
0	1558	248.140375901422	3
0	1560	248.150985010766	4
0	1563	248.389026691755	3
0	1567	248.408192678839	4
0	1570	249.211513609586	3
0	1576	250.801113074811	2
0	1581	251.545148240351	1
0	1587	252.722145603838	2
0	1593	254.153813479654	3
0	1594	254.669943203487	2
0	1598	254.969138716165	3
0	1600	255.209530150249	4
0	1606	256.05211629788	3
0	1612	256.199371259198	4
0	1617	258.034122190883	5
0	1619	258.235797186885	6
0	1620	258.332036631467	5
0	1626	259.376771258965	6
0	1627	259.382553954365	5
0	1632	260.576423672463	4
0	1637	260.782859035741	3
0	1644	262.793429737886	2
0	1649	263.253185331173	1
0	1654	263.662128670877	0
0	1702	269.524912991084	1
0	1705	269.664958133178	0
0	1718	270.850847035652	1
0	1721	271.739781474165	0
0	1734	273.422902603947	1
0	1736	273.927181401352	2
0	1738	273.948242723103	3
0	1742	274.334569906353	2
0	1748	274.426602358835	3
0	1749	274.565933711	2
0	1755	275.149342945357	3
0	1756	275.905340911598	2
0	1762	276.235547242651	3
0	1764	276.851902387325	4
0	1769	278.442974836178	3
0	1776	278.807352289178	4
0	1780	280.44487208212	3
0	1785	280.45545338624	2
0	1792	281.322772784607	1
0	1797	281.619574619278	0
0	1841	288.214406954485	1
0	1843	289.815724791384	2
0	1845	289.83659337497	3
0	1852	290.516876952311	4
0	1854	291.655262672084	5
0	1855	291.928326747447	4
0	1862	292.227709678205	5
0	1863	293.699084735413	4
0	1871	294.146971872003	3
0	1876	294.418403155142	2
0	1881	294.742418250727	1
0	1886	294.771012273149	0
0	1900	295.349718276199	1
0	1904	297.185811268288	2
0	1906	299.768498479331	3
0	1910	300.702994564861	4
0	1911	300.827298529443	3
0	1915	301.449305476705	4
0	1918	304.442745612154	3
0	1922	304.770474288538	4
0	1924	305.362827556226	5
0	1926	305.599122895194	6
0	1931	307.429589847185	5
0	1935	308.121708939488	6
0	1937	309.569304200782	7
0	1943	310.347762621067	8
0	1944	311.195593963152	7
0	1950	312.236980627527	6
0	1958	312.852338069377	7
0	1964	315.576826778581	6
0	1971	316.92064060558	5
0	1976	317.310830764112	4
0	1985	322.542305144458	3
0	1990	322.869044942747	2
0	1996	323.917483582569	1
0	2002	324.502302786518	2
0	2005	325.95651088817	3
0	2010	327.105316210491	4
0	2012	328.920854842736	3
0	2017	329.485211690175	2
0	2024	331.692186370982	1
0	2029	332.160270834825	0
0	2033	334.050494457157	1
0	2035	334.09766728772	2
0	2037	334.681188681194	3
0	2041	334.956103377964	4
0	2044	335.497276006659	3
0	2049	336.016638646169	2
0	2061	338.0631176472	1
0	2066	338.77621429933	0
0	2072	339.248355256588	1
0	2073	339.515695738881	0
0	2081	340.026606265364	1
0	2083	340.282423592234	2
0	2084	340.637802766804	1
0	2088	340.902554038272	2
0	2091	342.751398207232	1
0	2098	343.354326916136	0
0	2102	343.405008846764	1
0	2106	344.534142374027	2
0	2108	344.559018128673	3
0	2109	344.876716375826	2
0	2115	345.020531825728	3
0	2117	345.480340311338	4
0	2118	345.664279781254	3
0	2125	346.070976129824	2
0	2130	346.995462027364	1
0	2135	347.485801508892	0
0	2146	348.840294136294	1
0	2148	349.083667916429	2
0	2151	349.317296400384	1
0	2158	351.99475993879	2
0	2160	353.7354415307	1
0	2165	354.247561425986	0
0	2184	356.148967544963	1
0	2187	356.581101153667	0
0	2197	358.334305453233	1
0	2198	358.809241143017	0
0	2202	359.649479532814	1
0	2208	362.107307979871	2
0	2209	362.283908923201	1
0	2214	362.402772391127	0
0	2225	363.103821587503	1
0	2232	367.243327975762	2
0	2233	367.538011837584	1
0	2238	367.875435043997	0
0	2260	371.079353265831	1
0	2262	372.096375452455	2
0	2264	372.153700018051	3
0	2268	372.740962567284	4
0	2277	374.80220390003	5
0	2278	374.892797973575	4
0	2283	375.029904899008	3
0	2288	375.289071370009	2
0	2294	375.539403675125	3
0	2295	376.086893414823	2
0	2300	376.770114757526	1
0	2307	378.151247879516	0
0	2362	388.738639190395	1
0	2365	389.81070198413	0
0	2381	393.857971585877	1
0	2382	394.633926755302	0
0	2396	395.757135017351	1
0	2400	397.9523554584	2
0	2404	398.564979463262	3
0	2414	401.008944098427	4
0	2416	402.644568884209	5
0	2417	402.983289277054	4
0	2423	403.693178544061	5
0	2425	404.466832461623	4
0	2430	404.468135525024	3
0	2440	405.622465050877	2
0	2446	406.098952814479	1
0	2451	406.105068586369	0
0	2457	406.628853585211	1
0	2459	406.966876437641	2
0	2460	407.52756671781	1
0	2465	407.766704655414	0
0	2478	409.171463129767	1
0	2481	409.710904033131	2
0	2486	411.010956617003	3
0	2488	411.357236454994	4
0	2489	411.986991013065	3
0	2497	413.470129296776	2
0	2502	413.77016005881	1
0	2507	413.787518486936	0
0	2526	417.211210277354	1
0	2527	417.781637659703	0
0	2531	419.708647645954	1
0	2534	420.510551781188	0
0	2560	426.165865944493	1
0	2562	427.716395595182	0
0	2580	428.844522639064	1
0	2581	428.857879625313	0
0	2587	429.84261667495	1
0	2589	430.499659597406	2
0	2591	430.918559245913	3
0	2593	431.117352448891	4
0	2597	431.594145836844	3
0	2602	431.753727913514	2
0	2610	432.26521063666	3
0	2613	433.485314766486	2
0	2618	435.652009932246	1
0	2622	436.799984585387	2
0	2624	437.161113089849	3
0	2628	437.945901045998	4
0	2630	438.346687630029	5
0	2632	439.022049795848	4
0	2636	439.474990255129	5
0	2638	442.09444713684	6
0	2640	442.676738854894	7
0	2645	443.85807755086	8
0	2646	443.867355449563	7
0	2651	443.877879258502	6
0	2657	444.379301937675	7
0	2660	445.400414918853	6
0	2664	445.634543575186	7
0	2668	445.936737091488	8
0	2673	448.295026279371	9
0	2680	451.478532586867	8
0	2685	451.740408475119	7
0	2689	453.582646831688	8
0	2694	455.73886420784	9
0	2695	455.868333393589	8
0	2700	456.236305270143	7
0	2704	457.04566673079	8
0	2707	458.00817086028	7
0	2713	459.461447010161	8
0	2714	459.5707893553	7
0	2720	459.920969671865	8
0	2721	460.455605234803	7
0	2726	460.593193321037	6
0	2731	461.131112165902	5
0	2735	461.291797768565	6
0	2738	461.650552489751	5
0	2743	462.28440983445	4
0	2751	464.916696016611	5
0	2752	465.041117696235	4
0	2756	465.979216442526	5
0	2759	466.481433997106	4
0	2765	466.767701005966	5
0	2766	467.674602130769	4
0	2772	468.538969324897	5
0	2775	468.673449281524	6
0	2776	468.767354073556	5
0	2781	468.843195346291	4
0	2785	469.22283072702	5
0	2789	470.375877360181	4
0	2794	470.875713935053	3
0	2800	472.085120319282	4
0	2802	472.428997255298	5
0	2807	474.157305497139	4
0	2814	475.319048605253	3
0	2818	475.793798004427	4
0	2823	476.545614631557	3
0	2827	476.636966531128	4
0	2831	477.380448474118	5
0	2833	477.492448763076	6
0	2839	480.296196808656	7
0	2846	481.566599617049	6
0	2850	484.161574376281	7
0	2854	486.400123380725	6
0	2860	486.516433865653	7
0	2861	486.551932750016	6
0	2868	487.848336542915	5
0	2873	488.037069620815	4
0	2878	488.107736083329	3
0	2882	488.233178120576	4
0	2884	488.269820888658	5
0	2886	488.469879887146	6
0	2892	490.575769262782	7
0	2893	490.837184292087	6
0	2898	490.915870499986	5
0	2904	492.61025360969	6
0	2905	493.883984454003	5
0	2913	496.007158984832	4
0	2920	496.258240035595	3
0	2925	497.961665861576	2
0	2929	497.971031750471	3
0	2932	498.520336137723	2
0	2939	499.820843142665	1
0	2946	502.051094692278	0
0	2950	502.463750464926	1
0	2956	503.074646758679	0
0	2972	503.761474880606	1
0	2973	504.04915359666	0
0	2979	504.604656880159	1
0	2982	505.298236967429	0
0	2988	505.522766960302	1
0	2990	506.196564188141	2
0	2992	506.196790401026	3
0	2993	506.763619309887	2
0	2997	508.640848442301	3
0	3007	512.386836185261	2
0	3016	514.058652354987	1
0	3022	514.391604318234	2
0	3023	514.568110270712	1
0	3028	514.613060994291	0
0	3034	515.529198660531	1
0	3035	515.538072366749	0
0	3047	518.708111024144	1
0	3048	518.757021820068	0
0	3059	518.954116769321	1
0	3062	520.573974476683	0
0	3068	522.583916434577	1
0	3070	522.611312834883	2
0	3071	522.798132126647	1
0	3077	523.300110993708	2
0	3085	524.630401418129	3
0	3086	524.788008568909	2
0	3091	525.284841542433	1
0	3095	525.510626368603	2
0	3099	526.671710318465	3
0	3103	528.079485260374	4
0	3105	528.117238806061	5
0	3106	528.358644789376	4
0	3111	529.130825874189	3
0	3115	530.969870826586	4
0	3117	532.780668902005	5
0	3125	535.771202877757	6
0	3126	536.001925408348	5
0	3130	536.164597139553	6
0	3132	536.750931802286	7
0	3142	541.529017668185	6
0	3148	541.830166340776	5
0	3154	542.594894362121	6
0	3156	543.622082746597	5
0	3164	545.437498568279	6
0	3169	547.097791096409	5
0	3174	547.698037610367	4
0	3181	549.247069978263	3
0	3188	549.708442353658	2
0	3195	550.385834281295	1
0	3200	554.756997704564	0
0	3204	554.999629120695	1
0	3206	555.202915725426	2
0	3208	555.485526011039	3
0	3212	557.835600032138	2
0	3219	558.199713856263	1
0	3223	558.3072733976	2
0	3226	558.90226017628	1
0	3231	560.533890045183	0
0	3244	561.02882503387	1
0	3245	561.272354631561	0
0	3266	562.719021195972	1
0	3271	566.686426613736	0
0	3283	568.138588982874	1
0	3285	569.030832615072	0
0	3296	569.495112593975	1
0	3297	569.680028231206	0
0	3320	571.59540856708	1
0	3322	572.347352529168	2
0	3324	573.01650703149	3
0	3327	573.724109999065	2
0	3333	573.82600291491	3
0	3338	574.774637710287	2
0	3344	576.414379035829	1
0	3349	576.443129680266	0
0	3364	577.424382448014	1
0	3369	580.029162893923	0
0	3380	580.916433029986	1
0	3382	581.142805033175	2
0	3383	581.703069464628	1
0	3391	582.888457322282	0
0	3413	587.722862842628	1
0	3414	588.266853211826	0
0	3420	589.193003935591	1
0	3421	589.333375398967	0
0	3427	589.816555963781	1
0	3428	589.944632432432	0
0	3434	589.963058307081	1
0	3437	590.196194967714	2
0	3439	590.720930202788	3
0	3440	591.238329338061	2
0	3445	591.550204569991	1
0	3450	592.160909040572	0
0	3456	592.55628849969	1
0	3457	593.660813447247	0
0	3461	595.183074302178	1
0	3465	596.973627161656	2
0	3468	597.849186857161	1
0	3472	597.972177949225	2
0	3480	601.969476457114	1
0	3485	602.728946475111	0
0	3512	604.954016905039	1
0	3513	605.263563080748	0
0	3519	606.573600120652	1
0	3521	607.226753637273	0
0	3542	608.445648675332	1
0	3546	609.391539556503	0
0	3552	609.6018597205	1
0	3554	610.230980186053	2
0	3555	610.823983239239	1
0	3562	612.739592899944	0
0	3568	613.377374514487	1
0	3570	614.018030730073	2
0	3571	614.353962130676	1
0	3579	614.478157736942	2
0	3581	614.492838254099	3
0	3583	614.607700666402	2
0	3589	615.441043586678	1
0	3597	619.441648051902	0
0	3626	625.969180010019	1
0	3628	626.196085036799	2
0	3629	626.222597152575	1
0	3635	626.612688215957	2
0	3639	626.691792562435	3
0	3640	627.900031736071	2
0	3645	628.119270393614	1
0	3651	632.402350182754	0
0	3664	634.293751906789	1
0	3668	634.569223983153	2
0	3669	634.700527824067	1
0	3674	636.537938854588	0
0	3678	636.979985609226	1
0	3684	637.743291274126	2
0	3685	637.822483089626	1
0	3691	639.726888115631	2
0	3693	640.820193507612	1
0	3699	641.225628552807	2
0	3702	641.689855228743	1
0	3707	642.431351800552	0
0	3716	643.739686970793	1
0	3720	644.909372192648	0
0	3740	648.033629237996	1
0	3742	648.720138470798	2
0	3744	650.065404459472	3
0	3745	650.44735091029	2
0	3750	651.149155380726	1
0	3755	651.192826531636	0
0	3759	651.432670980565	1
0	3763	652.12093241626	2
0	3765	652.14889815477	3
0	3767	652.423755846518	4
0	3768	653.02866110458	3
0	3773	653.841818125965	2
0	3779	654.638499721606	3
0	3782	655.207057692022	4
0	3783	655.649581921594	3
0	3788	655.785591402631	2
0	3792	656.21085992028	3
0	3794	656.983742996448	4
0	3797	657.184947925538	3
0	3802	658.694706967961	2
0	3806	658.837967420655	3
0	3809	659.396318657516	2
0	3814	659.911352695855	1
0	3819	662.093058946366	0
0	3823	662.274368761687	1
0	3828	663.490388906122	0
0	3840	663.646023408123	1
0	3848	665.108913109091	2
0	3851	665.206500512364	1
0	3857	665.567241465522	2
0	3859	666.876641529632	1
0	3865	667.467245998541	2
0	3866	667.518944443153	1
0	3872	667.817221590226	0
0	3879	668.375142009195	1
0	3883	669.348553207711	2
0	3884	669.916201429804	1
0	3889	670.53769519537	0
0	3937	675.826527092685	1
0	3938	676.273873956366	0
0	3954	677.156638785744	1
0	3956	677.206103413781	2
0	3960	678.477345464401	3
0	3962	678.775057085747	4
0	3969	679.560400863672	5
0	3971	679.637427356679	4
0	3979	679.929196720126	3
0	3985	680.494725501375	2
0	3990	680.743267310928	1
0	3996	681.463688278085	0
0	4008	681.99792455597	1
0	4009	682.045208153927	0
0	4025	683.736820523027	1
0	4026	683.838086309063	0
0	4034	684.487419262863	1
0	4038	685.128404047382	2
0	4039	685.707659089421	1
0	4046	686.269743075471	0
0	4053	686.559275750586	1
0	4055	687.351852362344	0
0	4066	687.91666447497	1
0	4068	688.413616867725	0
0	4106	694.622901883025	1
0	4107	694.720907439052	0
0	4113	695.046536956444	1
0	4115	695.246602035505	0
0	4122	695.362269457896	1
0	4123	696.055672934053	0
0	4143	699.452144335599	1
0	4149	701.502173233359	2
0	4153	703.670185302649	3
0	4154	703.825298640003	2
0	4160	704.25942689714	1
0	4165	704.428067390112	0
0	4183	706.866352323947	1
0	4184	707.174886202653	0
0	4190	708.706978804471	1
0	4191	708.77462935464	0
0	4204	710.005946210917	1
0	4207	712.064816690833	2
0	4208	712.409822061198	1
0	4213	712.516859791816	0
0	4219	712.721098166323	1
0	4220	712.738449404741	0
0	4226	713.083256442847	1
0	4227	713.588404237079	0
0	4272	721.50116711278	1
0	4276	722.776967424132	0
0	4283	723.201578190299	1
0	4284	723.330245114518	0
0	4291	724.389904074377	1
0	4293	724.707668051276	2
0	4294	724.900063077248	1
0	4300	725.441184567949	2
0	4301	725.689469636782	1
0	4306	725.95249632078	0
0	4312	726.13206335515	1
0	4313	726.239536696345	0
0	4323	727.272007588823	1
0	4325	728.712913519968	2
0	4327	729.435713685099	3
0	4333	732.36857441954	4
0	4334	732.416371695654	3
0	4339	732.526865395612	2
0	4344	732.575174091398	1
0	4348	733.719867788519	2
0	4350	734.261929625007	3
0	4352	734.341874940729	4
0	4355	734.66189090928	3
0	4359	736.211267311712	4
0	4365	736.809598726278	5
0	4368	737.56929605609	4
0	4373	737.90858467075	3
0	4379	739.754321686766	4
0	4383	739.985638226693	5
0	4384	740.90829510839	4
0	4390	742.004265201651	5
0	4406	746.043972314222	4
0	4411	746.300017317417	3
0	4416	746.408231449085	2
0	4422	746.727855908692	3
0	4423	746.850448231797	2
0	4428	747.550146186103	1
0	4433	747.731897778571	0
0	4439	747.958698816265	1
0	4440	748.020509130498	0
0	4444	748.107475416965	1
0	4446	749.442251581103	2
0	4448	749.499786253011	3
0	4452	749.954062964648	4
0	4456	750.231318011706	5
0	4457	750.333945102375	4
0	4462	751.042639182884	3
0	4468	752.7413803042	2
0	4475	753.739749299789	1
0	4481	753.756325585178	2
0	4482	754.064827557947	1
0	4487	754.338084214696	0
0	4493	754.68075606082	1
0	4498	755.525093049469	2
0	4500	755.620082106495	3
0	4501	755.726874016115	2
0	4507	756.431372522529	1
0	4514	757.667095625314	2
0	4517	758.044715368779	1
0	4523	758.779880455552	0
0	4548	759.735799323305	1
0	4552	760.114970303011	0
0	4560	760.549755904666	1
0	4562	760.677830231482	2
0	4563	760.798429691215	1
0	4569	761.601351652334	2
0	4570	761.758379159184	1
0	4577	763.424604189764	0
0	4590	764.393074564675	1
0	4592	765.056213990978	0
0	4614	767.402877539816	1
0	4615	767.705299016226	0
0	4621	768.506303127393	1
0	4624	768.878764841707	0
0	4651	771.687740313079	1
0	4652	772.059153653135	0
0	4663	777.219102363089	1
0	4674	782.587337408242	2
0	4676	782.954384774876	3
0	4677	783.496133307976	2
0	4684	785.149264152945	3
0	4686	785.533090157782	2
0	4690	785.897392434607	3
0	4693	786.358734442133	2
0	4698	786.608750137826	1
0	4703	787.321803048178	0
0	4707	788.067027619131	1
0	4709	788.918504646891	2
0	4711	790.536972904222	3
0	4714	790.912551124266	2
0	4719	791.287305270351	1
0	4726	793.836315353708	0
0	4730	794.021919659106	1
0	4732	794.061965259735	2
0	4734	794.350179497212	3
0	4739	795.900718806251	4
0	4740	796.600479827071	3
0	4745	797.224639507816	2
0	4749	797.250034213847	3
0	4753	797.933265678179	2
0	4758	797.94410732035	1
0	4766	800.305243389076	2
0	4771	802.752293310102	1
0	4775	803.445664996697	2
0	4780	807.635442614918	1
0	4786	808.583726853069	2
0	4787	808.731664701272	1
0	4792	809.011624878802	0
0	4822	814.537299765202	1
0	4826	814.843151037724	2
0	4835	817.480455588224	3
0	4837	819.584173164933	2
0	4842	820.181597971948	1
0	4848	820.730728332894	2
0	4849	821.130289015292	1
0	4853	821.254524057249	2
0	4856	821.84277729257	1
0	4861	823.22786548666	0
0	4896	827.156607028709	1
0	4897	827.571908976905	0
0	4906	828.421379882823	1
0	4908	828.511245195709	2
0	4910	828.865707673318	3
0	4915	829.622951747604	2
0	4920	829.901203439082	1
0	4924	830.353195397695	2
0	4931	832.523151259882	1
0	4938	832.597501781399	0
0	4944	832.961585348257	1
0	4946	833.185442818107	2
0	4948	833.702649243002	3
0	4950	834.05831156124	4
0	4951	834.554694670539	3
0	4960	835.182078574612	2
0	4965	836.239471224896	1
0	4970	837.907903908434	0
0	5004	841.005080555376	1
0	5011	843.340512002889	0
0	5017	843.623395798402	1
0	5018	843.792670758882	0
0	5024	844.13421444203	1
0	5027	844.727681053349	2
0	5030	844.794237916881	1
0	5035	844.862358938246	0
0	5039	845.315176838645	1
0	5042	847.065378206154	0
0	5085	850.041342480224	1
0	5087	850.194727864535	0
0	5101	853.590581906779	1
0	5105	855.675566259754	2
0	5106	856.138975427557	1
0	5116	857.154999250536	0
0	5134	862.780678687115	1
0	5136	863.007687081509	2
0	5137	863.094751663166	1
0	5142	863.169906798224	0
0	5169	866.568611899846	1
0	5170	866.690654459378	0
0	5208	870.751252021873	1
0	5212	871.703051860309	2
0	5214	872.868202955386	3
0	5218	874.986614301394	2
0	5223	875.37460385806	1
0	5235	876.88540012331	0
0	5242	877.326806373129	1
0	5243	877.872102679318	0
0	5262	882.333795175992	1
0	5264	882.66975288153	2
0	5266	885.435778543024	3
0	5269	885.552382277662	2
0	5275	886.451420769686	3
0	5276	886.781805111658	2
0	5281	889.462889705044	1
0	5289	892.17972770711	2
0	5291	892.373752915887	3
0	5294	893.318909142484	2
0	5300	893.591988933148	1
0	5306	895.31825079864	0
0	5346	900.770726212759	1
0	5350	904.215286519733	2
0	5351	905.153328275589	1
0	5358	905.43796506061	2
0	5360	906.137158665569	1
0	5365	906.38285833674	0
0	5377	906.985446388652	1
0	5378	907.41794363544	0
0	5384	907.423804121873	1
0	5385	907.500080560518	0
0	5391	907.729543365594	1
0	5394	908.041138383566	2
0	5396	908.503176871403	1
0	5401	909.177300141613	0
0	5405	909.628670904358	1
0	5407	909.973307585763	2
0	5409	910.729411671628	3
0	5415	911.845138493409	4
0	5416	912.06492261388	3
0	5424	914.23450364797	2
0	5429	914.359573140231	1
0	5434	914.699113727772	0
0	5445	917.176704125533	1
0	5446	917.216849457836	0
0	5450	917.411782133419	1
0	5453	917.751437709958	0
0	5527	930.039276391104	1
0	5528	931.083191928325	0
0	5536	931.470430474266	1
0	5537	933.931939141529	0
0	5551	934.471958728936	1
0	5552	934.743999159065	0
0	5572	940.694058033805	1
0	5575	940.871942518285	0
0	5581	940.905653384394	1
0	5584	941.353157070418	2
0	5585	943.060353822137	1
0	5591	943.446835826119	2
0	5594	944.394930775267	3
0	5595	945.107138250855	2
0	5602	945.641549543194	1
0	5607	946.15608879056	0
0	5626	947.096480511963	1
0	5629	947.554540533152	0
0	5643	948.614014559216	1
0	5648	950.071792489964	2
0	5650	950.336595315706	3
0	5653	950.403282550501	2
0	5660	951.220268270003	1
0	5668	953.131985760336	0
0	5679	953.759076698754	1
0	5682	955.565750180583	2
0	5684	956.490265058394	3
0	5686	956.578592580612	4
0	5688	956.775882404713	5
0	5691	957.930705696779	4
0	5696	958.434473703179	3
0	5701	958.535112669975	2
0	5706	959.692639940308	1
0	5713	960.122068506513	2
0	5714	960.162199444367	1
0	5719	960.948861538733	0
0	5733	963.821822043226	1
0	5734	963.839924788981	0
0	5770	969.695119559102	1
0	5773	971.125281046007	0
0	5832	980.844809667828	1
0	5834	983.290726425683	2
0	5835	984.246091167092	1
0	5840	984.485263531436	0
0	5859	987.441087043998	1
0	5862	988.680186136964	2
0	5863	988.833005668803	1
0	5870	989.323215991702	0
0	5876	989.663652359339	1
0	5878	990.517965098297	0
0	5901	997.587579988767	1
0	5902	998.068459465364	0
0	5916	998.275406530357	1
0	5918	998.447342811136	2
0	5919	998.611794995414	1
0	5925	998.809934355014	0
0	5942	1000.600790402585	1
0	5945	1001.369192207135	0
0	5957	1002.265596037341	1
0	5959	1002.306716520057	2
0	5961	1002.429981038198	3
0	5967	1003.904012905256	2
0	5974	1004.837083667935	1
0	5979	1006.019593424846	0
0	5997	1006.88503491937	1
0	6000	1007.441738143918	2
0	6002	1007.464733778844	3
0	6003	1007.838523360061	2
0	6008	1008.113114941549	1
0	6013	1008.685294469064	0
0	6019	1010.236219108164	1
0	6021	1010.930999483901	2
0	6023	1011.024749242807	3
0	6026	1012.010636553995	2
0	6030	1012.640975679288	3
0	6033	1014.167376545259	2
0	6037	1015.554896656995	3
0	6042	1015.848978392435	2
0	6047	1017.555252562496	1
0	6052	1018.585701026623	0
0	6069	1021.504639206875	1
0	6071	1021.575220755038	2
0	6075	1021.70724551581	3
0	6077	1021.921495299846	2
0	6082	1022.011927241774	1
0	6088	1022.976508016317	2
0	6091	1024.299002085265	1
0	6095	1024.675940731682	2
0	6097	1024.682545516436	3
0	6099	1025.491734989149	4
0	6103	1026.862834144788	3
0	6113	1027.804494616522	2
0	6120	1029.442081046963	3
0	6121	1029.843640671141	2
0	6127	1029.946293676242	3
0	6129	1030.201822972139	4
0	6131	1030.369780526048	5
0	6132	1030.843231596622	4
0	6138	1031.712741223704	5
0	6139	1032.166686616769	4
0	6144	1032.685900950477	3
0	6148	1032.936703593279	4
0	6153	1033.641482745492	5
0	6155	1033.843813774051	4
0	6162	1034.214468447579	5
0	6163	1034.416346687893	4
0	6168	1034.664765065974	3
0	6176	1036.153290638489	4
0	6177	1036.559184230037	3
0	6182	1036.928055650089	2
0	6187	1037.177254469048	1
0	6193	1037.507004678605	2
0	6195	1037.583910512632	3
0	6198	1038.392547384862	2
0	6203	1039.250113340084	1
0	6211	1041.7849463181	2
0	6212	1042.037548580912	1
0	6216	1045.869127937693	2
0	6220	1046.966530385342	3
0	6221	1047.109122454489	2
0	6225	1047.465447348991	3
0	6229	1048.17148400724	4
0	6232	1049.529950733829	3
0	6239	1051.441613177359	2
0	6245	1051.547460331867	3
0	6250	1051.908928110453	2
0	6255	1052.348400868962	1
0	6262	1052.561961759166	0
0	6308	1058.574754034783	1
0	6312	1058.639284286526	2
0	6313	1059.301828581128	1
0	6319	1059.667365294102	0
0	6328	1060.44741062852	1
0	6332	1061.066448774262	2
0	6333	1061.464128107119	1
0	6339	1061.616402596374	2
0	6340	1061.709262613867	1
0	6345	1061.711864549951	0
0	6368	1066.569402946638	1
0	6370	1066.643703753821	2
0	6372	1067.043457188647	3
0	6373	1067.837987035879	2
0	6381	1069.146757658363	3
0	6382	1069.254523329807	2
0	6388	1069.429130709445	1
0	6392	1069.530780853538	2
0	6395	1069.91606684663	1
0	6400	1071.046620687997	0
0	6421	1075.718023653111	1
0	6423	1076.092491774787	2
0	6431	1078.542217464579	1
0	6436	1078.60569258944	0
0	6443	1079.106397007004	1
0	6445	1079.472406558479	0
0	6462	1082.101194938176	1
0	6463	1082.185670311701	0
0	6481	1083.859775208387	1
0	6486	1084.442749899271	2
0	6488	1084.6468040264	1
0	6493	1084.87904011229	0
0	6499	1084.8939003078	1
0	6500	1085.067589304043	0
0	6520	1086.765401980145	1
0	6521	1086.883444801354	0
0	6541	1088.04049606479	1
0	6542	1088.953471875479	0
0	6568	1095.958777910343	1
0	6569	1096.162720738432	0
0	6661	1113.546670174293	1
0	6662	1113.899513496516	0
0	6679	1117.783848465415	1
0	6680	1118.0629335849	0
0	6689	1118.86981837766	1
0	6691	1118.997873948441	2
0	6692	1119.284020904137	1
0	6697	1119.982329598922	0
0	6703	1120.756251640105	1
0	6704	1120.985587867134	0
0	6715	1121.310548690122	1
0	6718	1122.200959596753	2
0	6719	1122.85000776136	1
0	6733	1126.470853824019	2
0	6734	1126.901397971655	1
0	6742	1128.072442089272	2
0	6743	1128.6409713705	1
0	6750	1130.490295804724	2
0	6752	1132.40611931224	1
0	6758	1133.327571424465	0
0	6797	1137.220200967846	1
0	6798	1137.370822169358	0
0	6812	1138.200274728181	1
0	6814	1139.394612377502	0
0	6821	1139.762764926258	1
0	6822	1139.865124007149	0
0	6835	1140.645405595574	1
0	6836	1140.72765404638	0
0	6847	1141.764961786173	1
0	6850	1142.064268893266	2
0	6851	1142.132047846691	1
0	6856	1142.237543020218	0
0	6880	1145.788080964004	1
0	6883	1146.493000473399	0
0	6919	1149.907376268097	1
0	6920	1150.025965607925	0
0	6954	1159.964108556134	1
0	6956	1161.191588809295	2
0	6957	1161.204374397262	1
0	6962	1162.367749129723	0
0	6970	1163.71650895236	1
0	6972	1163.723882777354	2
0	6974	1163.831761602412	3
0	6975	1164.367708947386	2
0	6984	1164.907797969323	1
0	6989	1165.143785783056	0
0	6995	1166.231765267957	1
0	6997	1166.392310724966	2
0	6998	1166.469057131564	1
0	7003	1167.407549018459	0
0	7007	1167.478958530064	1
0	7009	1167.534930474562	2
0	7011	1167.57716725195	3
0	7014	1168.954669121209	2
0	7019	1169.541187263913	1
0	7027	1171.260978117881	2
0	7028	1171.868697393793	1
0	7036	1175.625826270479	2
0	7038	1177.422258228656	3
0	7041	1177.879012862243	2
0	7046	1179.440686787856	1
0	7053	1184.179394091611	0
0	7059	1186.184806979704	1
0	7060	1186.797910269249	0
0	7102	1193.593353731204	1
0	7106	1194.36631642636	0
0	7135	1198.472628284413	1
0	7137	1199.639276627212	2
0	7141	1200.522009371469	3
0	7144	1201.863312617833	2
0	7148	1203.591092926877	3
0	7152	1204.992737026092	4
0	7153	1205.017530573746	3
0	7157	1205.889919705884	4
0	7161	1208.46095187484	3
0	7165	1208.917409254456	4
0	7168	1209.733460511589	3
0	7176	1210.909086225203	4
0	7179	1212.056154762615	3
0	7184	1213.923977796473	2
0	7190	1214.722854265098	3
0	7194	1216.259017711809	4
0	7196	1216.349349721926	5
0	7197	1216.473996042609	4
0	7203	1216.66464567444	5
0	7206	1218.359720005171	4
0	7213	1219.205597840321	3
0	7217	1219.676175529585	4
0	7221	1220.159114781289	5
0	7222	1220.178339837864	4
0	7230	1221.887049581827	5
0	7233	1222.175357063061	4
0	7238	1223.767414124849	3
0	7243	1228.412357909174	2
0	7247	1228.522619130277	3
0	7250	1229.186363682019	2
0	7256	1229.767254567408	1
0	7263	1230.680878735388	0
0	7271	1233.409557917361	1
0	7275	1234.677850495945	2
0	7277	1235.412372493311	1
0	7282	1236.478170471228	0
0	7286	1237.732479042718	1
0	7289	1238.470476225573	0
0	7333	1243.803325029399	1
0	7336	1244.244961467001	0
0	7342	1244.36404358886	1
0	7345	1246.081237355979	0
0	7376	1251.777085299353	1
0	7380	1251.864138069608	2
0	7385	1253.883813110061	3
0	7388	1254.030032033299	2
0	7393	1254.033634420487	1
0	7398	1254.083974964493	0
0	7407	1256.885327973029	1
0	7410	1257.180061177007	2
0	7411	1257.316683677517	1
0	7417	1257.747132167842	0
0	7445	1263.532115990252	1
0	7448	1263.842150821676	0
0	7488	1267.97122283151	1
0	7490	1268.125586096322	2
0	7496	1270.251263624859	1
0	7504	1270.523816955489	0
0	7514	1272.056799436437	1
0	7519	1274.289002824858	0
0	7545	1277.908010587651	1
0	7551	1278.842230690825	2
0	7560	1280.085220491283	3
0	7561	1280.174431383792	2
0	7568	1280.87925539272	1
0	7574	1281.832970064899	0
0	7588	1282.530725614526	1
0	7595	1284.912146255872	2
0	7597	1285.371693248356	3
0	7598	1285.967094748744	2
0	7603	1286.213893795305	1
0	7609	1286.490087164419	2
0	7612	1286.927255457327	1
0	7619	1287.543433942979	0
0	7648	1292.414505208717	1
0	7650	1292.573489717996	2
0	7651	1293.031323271516	1
0	7658	1293.655946950803	0
0	7673	1295.964841542276	1
0	7677	1298.44794521661	2
0	7679	1299.073377346215	3
0	7681	1299.914276828021	4
0	7683	1300.381174220924	5
0	7689	1303.076011855553	4
0	7695	1303.373664185558	3
0	7701	1303.452871040341	4
0	7702	1303.725480287537	3
0	7707	1304.083620033516	2
0	7714	1305.155959625521	1
0	7720	1306.538485438119	0
0	7741	1310.130037913885	1
0	7742	1310.485848494445	0
0	7755	1312.563442222226	1
0	7756	1312.726616121622	0
0	7764	1313.695149906706	1
0	7766	1314.180815663511	0
0	7777	1314.946007541776	1
0	7781	1315.135252137234	2
0	7783	1315.50093973393	3
0	7790	1318.266277441407	2
0	7797	1318.294440229247	3
0	7799	1318.344609622932	4
0	7802	1319.033578738276	3
0	7807	1319.503187480238	2
0	7812	1319.68327374726	1
0	7818	1319.72536599296	2
0	7821	1321.844948947495	1
0	7826	1322.166406356941	0
0	7832	1323.001533859337	1
0	7835	1323.709537482672	0
0	7869	1328.114435146159	1
0	7873	1328.452272082768	2
0	7875	1329.920962704564	1
0	7880	1330.070037720958	0
0	7897	1331.005623382509	1
0	7899	1331.907559626783	0
0	7908	1334.534421704667	1
0	7911	1335.872530010384	0
0	7917	1335.967419167826	1
0	7919	1336.048953369153	2
0	7921	1336.1207391537	1
0	7926	1336.563260115316	0
0	7932	1336.645264673238	1
0	7934	1336.952893828823	0
0	7938	1336.995824620301	1
0	7940	1337.434724675216	2
0	7943	1338.140197620644	1
0	7947	1338.252345998455	2
0	7949	1338.292095927433	3
0	7951	1339.537293567059	4
0	7959	1342.135302009255	5
0	7962	1342.344506638777	6
0	7963	1342.998771708988	5
0	7969	1343.77805897382	6
0	7973	1344.124915861734	7
0	7974	1344.312971085837	6
0	7980	1345.26054626849	7
0	7981	1345.385166506903	6
0	7986	1347.160559145135	5
0	7992	1348.410789555052	4
0	7997	1348.762834537806	3
0	8002	1350.778558757308	2
0	8006	1352.240903085517	3
0	8010	1354.167759021747	2
0	8016	1354.329940803763	3
0	8019	1354.50643155196	2
0	8024	1355.441429466406	1
0	8030	1355.715152720858	2
0	8033	1355.952310670147	1
0	8038	1357.020803563938	0
0	8058	1359.744205203655	1
0	8063	1361.245868832007	0
0	8071	1362.116975553659	1
0	8073	1362.996519402583	0
0	8116	1366.829374252599	1
0	8118	1367.136710725039	0
0	8158	1375.518301991807	1
0	8160	1376.43988937055	0
0	8182	1380.367044424088	1
0	8184	1380.846061619592	2
0	8185	1381.125034354425	1
0	8191	1381.271074698415	0
0	8206	1384.476307605881	1
0	8208	1385.818065336672	0
0	8221	1386.739036540906	1
0	8222	1386.837663197914	0
0	8229	1388.750544738546	1
0	8231	1389.119561681136	2
0	8235	1389.50525202995	3
0	8237	1390.794805031311	2
0	8243	1391.46539356086	1
0	8249	1391.560689605877	2
0	8250	1392.889346371973	1
0	8257	1393.344443361136	2
0	8260	1393.658227661189	3
0	8261	1393.686343174596	2
0	8266	1394.445303164499	1
0	8273	1394.948983648185	2
0	8275	1395.606676234493	3
0	8276	1395.943584638284	2
0	8281	1396.312338622458	1
0	8287	1397.220693557221	0
0	8353	1414.944169903131	1
0	8355	1415.13789799253	2
0	8356	1415.266427589094	1
0	8363	1417.441853944139	0
0	8367	1417.640363926997	1
0	8373	1420.642293307121	0
0	8440	1436.283375485531	1
0	8441	1436.422921323988	0
0	8452	1437.713174878825	1
0	8454	1438.660568776732	2
0	8457	1439.290946449447	1
0	8461	1439.514638560853	2
0	8464	1444.143052610598	1
0	8471	1445.882418503866	0
0	8475	1446.282983599397	1
0	8477	1446.549222620685	2
0	8481	1446.92519944469	3
0	8483	1447.221681778968	4
0	8484	1447.305125992425	3
0	8489	1447.692564704249	2
0	8495	1447.954668934365	3
0	8498	1449.559120692224	2
0	8507	1451.731296900213	1
0	8516	1452.213516173489	0
0	8552	1456.699229857501	1
0	8554	1457.865739999599	2
0	8556	1458.595392415205	3
0	8557	1458.802385175073	2
0	8568	1460.67621603433	3
0	8570	1460.749957715071	4
0	8574	1461.053337944288	5
0	8576	1461.829329511571	6
0	8578	1462.094082424612	5
0	8583	1463.904324807463	4
0	8589	1464.674890556576	3
0	8596	1465.456723853545	4
0	8598	1465.54648186422	5
0	8601	1466.905748176411	4
0	8607	1467.137642555714	5
0	8613	1468.364892163808	6
0	8614	1468.382396409687	5
0	8619	1468.794855677679	4
0	8625	1469.671406722799	5
0	8626	1469.768905546889	4
0	8631	1469.887766000208	3
0	8637	1470.808926429895	4
0	8641	1471.583784905233	5
0	8643	1472.113438231195	6
0	8646	1475.300650127101	5
0	8654	1477.191077638659	6
0	8661	1479.168317629468	7
0	8662	1479.383325444294	6
0	8667	1480.35561932975	5
0	8673	1480.799967714282	6
0	8674	1480.850863576948	5
0	8679	1481.155917439888	4
0	8683	1481.794334786839	5
0	8686	1482.120872106381	4
0	8691	1483.303869861786	3
0	8696	1483.946170272208	2
0	8704	1488.295648570809	1
0	8709	1489.094320222004	0
0	8716	1490.961758937603	1
0	8720	1491.164027899649	2
0	8721	1491.233076675438	1
0	8728	1491.367204209845	0
0	8735	1492.200739241704	1
0	8736	1492.449838586807	0
0	8751	1493.444330190377	1
0	8755	1494.579557460042	0
0	8793	1498.007287266892	1
0	8795	1500.135301285994	2
0	8798	1501.326931718911	1
0	8803	1501.495353523155	0
0	8826	1504.119620146642	1
0	8827	1504.345614535025	0
0	8865	1513.948817140791	1
0	8868	1514.865361930422	2
0	8870	1515.140015209171	1
0	8875	1515.25636608727	0
0	8908	1521.429137540383	1
0	8913	1522.870294535697	0
0	8919	1522.939290333213	1
0	8920	1522.950336266435	0
0	8937	1523.582676688454	1
0	8938	1524.571848637033	0
0	8947	1526.441235118169	1
0	8954	1530.136386964332	2
0	8956	1530.190585110792	3
0	8957	1530.499168612547	2
0	8963	1531.536824732998	3
0	8967	1531.879334874407	4
0	8968	1532.275097552976	3
0	8972	1533.297563378071	4
0	8977	1536.058803910701	3
0	8984	1536.234415082113	4
0	8986	1536.254192514603	5
0	8987	1536.840568903843	4
0	8991	1537.296913868896	5
0	8994	1538.592696687761	4
0	8998	1539.182822457184	5
0	9001	1539.732794250038	4
0	9006	1540.149589534342	3
0	9010	1540.496278317936	4
0	9014	1543.3361424783	3
0	9018	1543.692518385947	4
0	9020	1544.272529930398	5
0	9022	1544.292898188529	6
0	9024	1544.906652248213	7
0	9027	1545.776918904721	6
0	9033	1546.626748988977	7
0	9035	1546.999543957	6
0	9040	1547.408499686839	5
0	9046	1548.174809176958	6
0	9048	1548.238096920431	7
0	9052	1548.882193165824	8
0	9054	1549.102017576711	9
0	9055	1549.69653960093	8
0	9059	1549.791097169686	9
0	9061	1551.009874321385	10
0	9063	1552.436956167892	11
0	9068	1554.066118759052	10
0	9074	1555.261558140621	9
0	9079	1555.891425781541	8
0	9084	1556.730274158824	7
0	9090	1557.086060867625	8
0	9093	1558.208574974453	7
0	9099	1558.882746240683	8
0	9100	1560.10103149588	7
0	9106	1562.488652610233	6
0	9113	1563.482230348588	7
0	9114	1563.793283378085	6
0	9119	1564.207408317401	5
0	9123	1565.788585307875	6
0	9127	1566.443601537714	7
0	9128	1567.485624352693	6
0	9132	1567.722078425089	7
0	9135	1569.113174278456	6
0	9142	1570.080078643181	5
0	9149	1570.811663603795	4
0	9153	1571.236463047643	5
0	9156	1571.728737540729	4
0	9161	1572.803848468671	3
0	9168	1576.623560022725	2
0	9176	1577.967858158308	3
0	9178	1578.438750861152	4
0	9181	1579.598676843057	3
0	9187	1580.367277322693	2
0	9193	1581.159174673295	1
0	9199	1581.238088033453	0
0	9205	1581.244325874322	1
0	9206	1581.74270376249	0
0	9210	1583.063560828542	1
0	9212	1585.839479271599	2
0	9216	1587.501662767845	3
0	9217	1587.593971718692	2
0	9222	1589.754612030663	1
0	9230	1591.308780550309	2
0	9233	1591.43343539238	1
0	9238	1591.466348768345	0
0	9252	1592.806505268223	1
0	9255	1593.798304367548	2
0	9256	1593.860844518123	1
0	9262	1593.91924166381	2
0	9265	1594.243180944802	3
0	9266	1594.42481667332	2
0	9271	1595.002676818885	1
0	9277	1595.533070820249	2
0	9281	1596.722600694624	3
0	9284	1597.068428741012	2
0	9289	1597.192975496179	1
0	9295	1597.567164143813	2
0	9298	1597.928747661725	1
0	9304	1598.181079375446	0
0	9316	1598.631690138213	1
0	9317	1598.655202635411	0
0	9323	1598.667742264201	1
0	9325	1599.752771001906	0
0	9329	1600.312098327455	1
0	9333	1600.919832376154	2
0	9335	1600.966126277568	3
0	9339	1601.741559597513	4
0	9340	1602.364692330775	3
0	9348	1603.793999875481	4
0	9349	1603.819683610379	3
0	9356	1604.590231100574	2
0	9360	1604.629617189272	3
0	9367	1605.998271089502	2
0	9373	1607.574062657954	3
0	9374	1607.663237845755	2
0	9382	1609.259997616243	1
0	9387	1609.946543447055	0
0	9391	1611.256676130569	1
0	9397	1612.271230931942	2
0	9399	1612.422127528677	3
0	9401	1614.375967648676	2
0	9407	1614.597534575434	3
0	9409	1615.416190243322	4
0	9410	1615.609883655979	3
0	9414	1615.989259913401	4
0	9417	1621.548073577905	3
0	9423	1622.456185675176	4
0	9430	1626.375831045084	3
0	9434	1627.881943649755	4
0	9440	1629.309287115785	5
0	9444	1631.282228937658	4
0	9451	1632.515646724653	3
0	9456	1634.012416502262	2
0	9460	1634.190236725955	3
0	9462	1634.424389742322	4
0	9466	1636.424661337478	5
0	9470	1636.810794835213	6
0	9474	1637.878694038993	7
0	9476	1638.52817730726	8
0	9477	1638.725067403022	7
0	9483	1639.415518429649	6
0	9489	1639.659448690054	7
0	9490	1640.664195561525	6
0	9495	1643.172759692833	5
0	9502	1643.981681265809	4
0	9507	1646.164146954996	3
0	9513	1647.343533457547	4
0	9519	1648.179000042372	3
0	9525	1648.629165117699	2
0	9532	1649.652019400764	1
0	9536	1650.387457326187	2
0	9542	1652.285587686457	3
0	9545	1653.091022905752	2
0	9549	1653.305780210583	3
0	9551	1654.328705728229	4
0	9555	1657.024921002345	3
0	9560	1659.000813892979	2
0	9564	1659.794009206585	3
0	9567	1660.86191164131	2
0	9571	1660.920185720319	3
0	9574	1661.439857271071	2
0	9580	1661.556245785741	3
0	9581	1661.687259412259	2
0	9586	1663.778253168872	1
0	9593	1666.360044312104	0
0	9599	1666.832921753458	1
0	9609	1668.089802423627	2
0	9610	1668.468573996392	1
0	9615	1669.852192094973	0
0	9628	1672.300366449671	1
0	9632	1672.689850716359	2
0	9633	1673.046860197632	1
0	9639	1673.156344776402	0
0	9653	1674.043902833375	1
0	9654	1674.488398654983	0
0	9663	1676.100400869221	1
0	9664	1676.184001140131	0
0	9672	1676.869369534745	1
0	9674	1676.947788704838	2
0	9675	1677.145964381759	1
0	9681	1680.150714954846	2
0	9682	1680.24164803358	1
0	9690	1681.619390572858	0
0	9696	1682.021234585883	1
0	9697	1682.089524405809	0
0	9703	1683.125941720254	1
0	9705	1683.226517420988	2
0	9708	1684.09092592577	1
0	9713	1685.479436863018	0
0	9732	1688.708779703064	1
0	9735	1689.333749512723	0
0	9764	1691.794801906479	1
0	9770	1693.271008389461	0
0	9800	1698.321773051403	1
0	9802	1698.564169578002	2
0	9807	1700.237661248833	1
0	9814	1701.15590495244	0
0	9825	1701.983907905916	1
0	9826	1702.131150689807	0
0	9832	1702.399743049437	1
0	9833	1702.46536472452	0
0	9842	1702.777523851298	1
0	9848	1704.672665833409	2
0	9849	1704.681659262503	1
0	9853	1704.784711316015	2
0	9857	1705.289173543999	3
0	9859	1705.770499009686	2
0	9865	1706.700557227528	3
0	9868	1708.794379042983	2
0	9873	1709.220108287661	1
0	9877	1709.363276026917	2
0	9881	1710.552914868172	3
0	9885	1711.844375038921	2
0	9891	1712.547051999017	1
0	9897	1712.708021112739	2
0	9901	1714.712476396082	1
0	9906	1715.250556637145	0
0	9944	1720.416389860448	1
0	9948	1723.007151076391	0
0	9959	1723.740096420257	1
0	9962	1724.114003108571	0
0	9979	1727.779532081821	1
0	9980	1728.949783216562	0
0	10006	1732.18952282589	1
0	10008	1732.274270460607	2
0	10009	1732.386407580525	1
0	10014	1732.389798578235	0
0	10028	1734.301636544989	1
0	10030	1735.426066260695	2
0	10032	1735.532442097982	3
0	10034	1735.910377859617	4
0	10040	1737.974553257671	5
0	10043	1738.680358867084	6
0	10045	1739.940478567717	5
0	10054	1741.818692243973	4
0	10060	1742.213563475943	3
0	10066	1742.415566740339	2
0	10071	1742.460959383845	1
0	10076	1742.676440509872	0
0	10098	1743.921538211865	1
0	10102	1744.541857393827	2
0	10103	1744.727436196066	1
0	10108	1745.415979672256	0
0	10112	1745.826837718128	1
0	10114	1747.367231438768	2
0	10116	1747.597696315448	3
0	10118	1748.011032121681	4
0	10124	1748.995348971124	5
0	10126	1749.157451664508	6
0	10129	1750.087944028366	5
0	10134	1750.133269619263	4
0	10138	1752.751529810827	5
0	10141	1753.074095742257	4
0	10146	1753.797885726409	3
0	10151	1754.692899303553	2
0	10156	1754.989782063369	1
0	10162	1756.227970724371	0
0	10178	1760.050180571482	1
0	10180	1760.604838188854	2
0	10182	1761.26207613475	3
0	10186	1762.174820432511	2
0	10191	1762.67564389923	1
0	10195	1762.681742839597	2
0	10198	1763.576216706922	1
0	10202	1764.340091831349	2
0	10206	1765.117722694519	3
0	10209	1766.167558573697	2
0	10214	1767.279922661243	1
0	10218	1767.360349427083	2
0	10221	1768.280330248535	1
0	10225	1768.281744154607	2
0	10228	1768.763797803897	1
0	10234	1770.047637214629	2
0	10235	1770.636127790389	1
0	10239	1770.676952211734	2
0	10245	1772.107971427085	3
0	10247	1773.96944635518	2
0	10252	1774.576035759094	1
0	10260	1776.962479939976	0
0	10284	1778.266159323926	1
0	10286	1778.285260017937	2
0	10287	1779.179998102911	1
0	10294	1780.371025365882	2
0	10297	1780.637991263467	3
0	10299	1780.854180039752	4
0	10301	1781.028700970263	5
0	10302	1781.519502878675	4
0	10308	1782.440778175499	3
0	10313	1782.589671505322	2
0	10318	1783.35051579729	1
0	10325	1785.106287971389	2
0	10327	1785.78945129063	3
0	10328	1785.839669633206	2
0	10334	1785.940197940767	3
0	10335	1786.392648670991	2
0	10343	1788.457244436623	1
0	10348	1788.714115836802	0
0	10352	1789.605228573494	1
0	10356	1789.908996217446	2
0	10357	1789.930800795159	1
0	10362	1790.548272096552	0
0	10366	1791.128654515929	1
0	10369	1792.127893045203	0
0	10377	1794.224736142094	1
0	10378	1794.383086392676	0
0	10384	1795.120894137602	1
0	10386	1795.762980161269	2
0	10388	1796.727249230685	1
0	10393	1797.971545848946	0
0	10419	1799.980951745866	1
0	10425	1802.168736469426	2
0	10429	1802.976272285083	3
0	10435	1804.769311323854	4
0	10437	1805.23181057357	5
0	10438	1806.072415115543	4
0	10444	1806.089043141416	3
0	10450	1806.376006728395	2
0	10459	1807.186727473191	3
0	10461	1807.414831708533	4
0	10462	1807.652106608235	3
0	10467	1807.782283824425	2
0	10477	1808.120029462133	3
0	10478	1808.14204408699	2
0	10483	1808.566897155697	1
0	10489	1808.939646183472	2
0	10491	1809.675637892836	1
0	10496	1810.040535528331	0
0	10503	1811.944902777847	1
0	10505	1812.208389653474	2
0	10506	1812.748065526535	1
0	10513	1813.678732541193	2
0	10515	1813.736342992926	1
0	10522	1815.250589238894	0
0	10528	1815.446403155471	1
0	10529	1815.614164786358	0
0	10536	1815.716899083466	1
0	10538	1815.850273965998	2
0	10540	1816.599311071747	3
0	10541	1816.918143248436	2
0	10546	1817.186872778126	1
0	10551	1817.341626264102	0
0	10592	1823.616852730722	1
0	10595	1824.112337321399	2
0	10597	1824.658011340541	1
0	10604	1824.913304331051	0
0	10621	1826.511987068035	1
0	10628	1828.106181037014	0
0	10653	1830.264353994147	1
0	10655	1830.361672731622	0
0	10693	1837.275708190208	1
0	10699	1839.073219588185	0
0	10711	1840.518367398257	1
0	10712	1840.725055344791	0
0	10740	1844.382815104092	1
0	10742	1844.696777841569	2
0	10744	1845.068984028525	3
0	10750	1851.423943875155	2
0	10755	1851.748614386692	1
0	10760	1852.042879655074	0
0	10782	1853.654484786569	1
0	10785	1854.060639840038	0
0	10792	1854.219351477984	1
0	10799	1857.327954562082	0
0	10818	1859.158115000779	1
0	10821	1859.599556236445	0
0	10846	1860.937791471428	1
0	10847	1861.219506308528	0
0	10856	1863.707770667619	1
0	10858	1863.862836269346	0
0	10869	1864.095670745372	1
0	10872	1864.591452323548	2
0	10874	1864.922161588517	3
0	10877	1865.13650278457	2
0	10884	1865.243820261576	3
0	10888	1866.594942655648	2
0	10896	1866.874532834248	3
0	10898	1867.470848437021	2
0	10905	1868.131234287237	1
0	10910	1868.381436557115	0
0	10923	1869.77019189999	1
0	10927	1871.150542061317	0
0	10933	1871.309037565591	1
0	10937	1872.326918335994	0
0	10943	1872.708576826769	1
0	10944	1872.93334536308	0
0	10958	1873.831237820246	1
0	10960	1873.890855481662	2
0	10963	1874.490343943389	1
0	10969	1874.790913954332	2
0	10971	1876.012422203387	1
0	10976	1877.781915647599	0
0	11011	1881.138213572418	1
0	11015	1882.599805665702	0
0	11026	1883.552148609413	1
0	11028	1883.862279077583	2
0	11031	1884.774807658123	1
0	11035	1884.960869043927	2
0	11037	1886.844008988267	3
0	11041	1887.781736217105	4
0	11045	1889.233902236435	3
0	11050	1889.701720908237	2
0	11055	1889.802184315123	1
0	11059	1890.056047813391	2
0	11062	1891.479931631648	1
0	11066	1891.541771728403	2
0	11068	1892.052580790701	3
0	11071	1892.474627394495	2
0	11075	1892.598613209573	3
0	11079	1894.705988195774	2
0	11084	1895.090445662488	1
0	11090	1896.437064436369	0
0	11111	1897.723643545061	1
0	11112	1898.238668175665	0
0	11141	1902.36779364694	1
0	11143	1902.592726379004	2
0	11147	1903.586485361425	3
0	11152	1905.151837675408	4
0	11154	1905.509988947801	5
0	11157	1905.967838974988	4
0	11164	1906.224893468006	5
0	11166	1906.794289017025	6
0	11168	1907.028417821777	5
0	11176	1907.415990707859	6
0	11177	1907.422796873191	5
0	11183	1907.63969787313	6
0	11184	1907.966142962876	5
0	11190	1908.441273191165	6
0	11191	1909.280594461337	5
0	11196	1910.144146055241	4
0	11202	1911.343192313322	5
0	11203	1911.708236117759	4
0	11209	1913.185555783693	5
0	11212	1913.83325145672	4
0	11218	1914.683865439272	5
0	11220	1915.016529441751	4
0	11225	1915.161085936723	3
0	11232	1915.894346593153	2
0	11240	1917.469471710375	1
0	11245	1918.084827718193	0
0	11274	1921.42757342862	1
0	11276	1922.257098102078	0
0	11282	1922.75950868128	1
0	11284	1922.879903813674	2
0	11286	1923.51116593706	1
0	11293	1926.708952330552	0
0	11304	1928.125987266037	1
0	11307	1928.330386240503	0
0	11322	1930.15965559062	1
0	11323	1930.57048961849	0
0	11347	1933.180969071904	1
0	11348	1933.494678336865	0
0	11362	1934.080096395718	1
0	11368	1934.579940598774	2
0	11371	1935.290022176204	3
0	11372	1937.115248768706	2
0	11378	1937.91511861598	3
0	11379	1938.234731844754	2
0	11385	1938.598124222839	1
0	11390	1938.630480110573	0
0	11397	1939.309769766559	1
0	11404	1940.329249723826	2
0	11408	1941.25668665563	1
0	11415	1941.970513768351	0
0	11430	1943.815599008999	1
0	11431	1943.886702407323	0
0	11438	1944.576481518913	1
0	11441	1944.859933643269	2
0	11443	1946.890924033427	1
0	11448	1947.330601150143	0
0	11464	1948.504847517665	1
0	11468	1948.807179863356	2
0	11469	1949.264535608029	1
0	11474	1949.525488816833	0
0	11483	1951.007971863166	1
0	11486	1952.460791996115	2
0	11488	1953.096769947687	1
0	11493	1953.28584782118	0
0	11511	1955.223470008125	1
0	11512	1955.23133640302	0
0	11519	1955.691317255432	1
0	11522	1955.793907568128	2
0	11524	1956.493721101017	1
0	11532	1958.758103730183	2
0	11533	1960.23470249715	1
0	11539	1960.526353167343	0
0	11567	1962.54934941647	1
0	11569	1963.342890331588	2
0	11572	1967.328487514756	3
0	11575	1967.740424451501	4
0	11576	1969.445292889884	3
0	11581	1970.05978136375	2
0	11585	1970.243788832493	3
0	11587	1970.520144487803	4
0	11589	1971.471229343126	5
0	11596	1972.802251441766	4
0	11601	1973.407276747768	3
0	11606	1973.689740324782	2
0	11611	1974.775796559128	1
0	11617	1977.438390004473	2
0	11620	1977.90208374557	1
0	11625	1977.973150516519	0
0	11629	1978.069370087282	1
0	11631	1978.202226573131	2
0	11634	1978.715660803267	1
0	11639	1979.175687662237	0
0	11690	1987.760528760536	1
0	11692	1987.88146279928	2
0	11693	1988.069954079929	1
0	11700	1990.613986289352	2
0	11703	1993.428017285465	1
0	11710	1994.023339146791	2
0	11711	1994.439426395264	1
0	11721	1998.279482292242	2
0	11722	1998.602944514749	1
0	11728	1998.642994752123	2
0	11729	1998.832873798619	1
0	11735	1998.935148915426	2
0	11736	1999.081001816588	1
0	11741	1999.230600698398	0
0	11775	2000.737485781414	1
0	11776	2001.238279488153	0
0	11782	2002.649392365457	1
0	11785	2003.007700347596	0
0	11789	2003.012909165273	1
0	11792	2003.21288173017	0
0	11799	2005.101136833034	1
0	11801	2005.125453707672	2
0	11803	2006.079163043091	1
0	11808	2006.732223447654	0
0	11820	2007.74206456989	1
0	11821	2007.805475759499	0
0	11842	2010.206468009503	1
0	11843	2011.088889777606	0
0	11860	2015.113085057903	1
0	11862	2015.267586827435	2
0	11865	2016.922291158189	3
0	11867	2017.322942193508	2
0	11872	2017.432974442953	1
0	11877	2017.526101292226	0
0	11890	2019.083389637567	1
0	11892	2019.901175811858	2
0	11893	2019.947956800217	1
0	11898	2020.002651066417	0
0	11902	2020.299904524237	1
0	11908	2021.592617518606	0
0	11912	2021.644844625939	1
0	11915	2022.709354289036	0
0	11949	2027.562196310964	1
0	11951	2028.68496977903	2
0	11952	2029.356845192534	1
0	11958	2029.707796449827	0
0	11970	2031.136309584792	1
0	11974	2032.161525632149	0
0	11982	2032.654462621026	1
0	11983	2032.839718845747	0
0	11994	2033.284202550191	1
0	11996	2033.719386304679	2
0	11998	2034.046282379475	3
0	12000	2034.147322125209	4
0	12002	2034.895515258946	5
0	12003	2035.630850799228	4
0	12008	2035.866298239015	3
0	12014	2036.384702182521	2
0	12018	2036.946854223686	3
0	12024	2038.468159964709	2
0	12029	2038.549082457027	1
0	12034	2038.738310342572	0
0	12076	2045.433590831572	1
0	12079	2045.693225222288	0
0	12094	2047.66660443347	1
0	12096	2048.580868894796	2
0	12097	2049.239480826038	1
0	12102	2049.761793258167	0
0	12106	2050.412349035745	1
0	12110	2052.297839815904	2
0	12113	2053.135784993481	1
0	12118	2054.765427031512	0
0	12180	2064.591895736841	1
0	12182	2064.994588048882	2
0	12183	2065.13856568316	1
0	12188	2065.613683786795	0
0	12194	2066.115463665301	1
0	12195	2066.519296818304	0
0	12206	2067.607994284678	1
0	12208	2068.51020628816	2
0	12210	2068.543221113791	3
0	12212	2070.902412052849	4
0	12215	2071.670476121412	3
0	12221	2072.359449987473	4
0	12222	2073.008778310461	3
0	12229	2075.593286191971	4
0	12230	2076.223052604884	3
0	12238	2077.429962755865	4
0	12239	2077.79492572611	3
0	12244	2079.304777309594	2
0	12250	2079.748716606545	1
0	12257	2080.665764358407	0
0	12263	2080.817032410285	1
0	12265	2081.066899882327	0
0	12347	2100.171284120107	1
0	12350	2100.914218723332	2
0	12353	2101.790374660308	1
0	12358	2102.354677029232	0
0	12386	2105.298674439894	1
0	12388	2105.794427133317	2
0	12390	2105.80745713841	3
0	12391	2106.600219535023	2
0	12397	2107.36007693556	3
0	12400	2109.045077726502	2
0	12405	2110.868773028883	1
0	12409	2110.992158531051	2
0	12412	2115.286841953369	1
0	12421	2119.480976460661	0
0	12425	2120.183001641017	1
0	12428	2121.278994186997	0
0	12447	2123.141199611163	1
0	12449	2123.222529937488	2
0	12453	2123.417046535972	3
0	12455	2124.060228673625	4
0	12459	2125.20292258675	5
0	12460	2125.499940103582	4
0	12466	2126.402452197638	3
0	12473	2126.941628018906	2
0	12479	2127.256080368055	3
0	12481	2127.557789291031	2
0	12487	2127.875218064255	3
0	12488	2128.120604486677	2
0	12493	2128.142449545575	1
0	12498	2129.05068077526	0
0	12559	2138.040909728411	1
0	12566	2139.461239756647	2
0	12568	2139.598192797967	3
0	12569	2139.78615365275	2
0	12573	2140.675287259588	3
0	12576	2141.922381185897	2
0	12584	2142.485945871962	3
0	12586	2143.069078802839	2
0	12591	2143.359975198021	1
0	12595	2143.420708657124	2
0	12599	2144.651236754385	1
0	12604	2144.662811282678	0
0	12610	2145.761929877323	1
0	12611	2146.544405837391	0
0	12617	2147.003904525179	1
0	12620	2147.601290771267	0
0	12646	2150.228155407498	1
0	12650	2150.705576270525	0
0	12664	2152.463483736661	1
0	12668	2153.755020793776	0
0	12717	2163.677146764111	1
0	12718	2164.30302507853	0
0	12732	2166.135593121699	1
0	12734	2166.744404372102	2
0	12737	2167.284855869406	1
0	12744	2167.538170651161	0
0	12773	2173.543830010661	1
0	12774	2174.113466096513	0
0	12787	2174.786741023851	1
0	12788	2175.306587690564	0
0	12802	2176.316985382576	1
0	12804	2177.080519931625	0
0	12843	2183.48325419507	1
0	12844	2183.785999866903	0
0	12874	2187.805942235787	1
0	12878	2189.002119694859	0
0	12892	2191.40444287673	1
0	12895	2192.019088307934	2
0	12896	2193.038694798234	1
0	12901	2193.561730458809	0
0	12924	2195.151973128755	1
0	12925	2196.43621789766	0
0	13032	2221.500714602232	1
0	13035	2221.868349624679	0
0	13049	2222.825605457793	1
0	13051	2223.021246872318	2
0	13056	2223.632350158108	1
0	13063	2224.519674418096	0
0	13069	2224.794618893251	1
0	13070	2224.898687969614	0
0	13090	2225.689882585432	1
0	13091	2225.994963084386	0
0	13098	2227.107814137485	1
0	13099	2227.237126798786	0
0	13113	2228.208861695231	1
0	13115	2228.428089902368	2
0	13116	2228.525841434373	1
0	13122	2228.555610109182	2
0	13124	2228.753283645314	1
0	13129	2230.782558798649	0
0	13158	2237.180068274571	1
0	13161	2237.239601993307	2
0	13166	2238.213303340549	3
0	13168	2239.009510176843	4
0	13170	2239.161654414224	5
0	13172	2239.551110126387	4
0	13178	2241.393064566201	5
0	13179	2242.039994824826	4
0	13186	2242.231657217146	3
0	13191	2242.375884537121	2
0	13196	2243.889186060742	1
0	13207	2246.538765218695	0
0	13248	2254.180084169295	1
0	13249	2254.206727406408	0
0	13279	2255.39218933435	1
0	13281	2255.498251110765	2
0	13283	2255.802416024858	3
0	13285	2255.867480954243	4
0	13286	2256.465582634769	3
0	13291	2256.609723645371	2
0	13297	2256.642651644735	3
0	13298	2256.762355587693	2
0	13304	2256.950959163158	3
0	13305	2257.004666577407	2
0	13310	2257.370233120239	1
0	13314	2257.743394879149	2
0	13316	2258.403237750655	3
0	13322	2261.137868122263	2
0	13328	2261.19391498535	3
0	13330	2261.356428232839	2
0	13336	2261.540179641871	3
0	13343	2262.26121122506	2
0	13347	2263.288551134578	3
0	13351	2265.506641752802	2
0	13357	2265.918601898247	3
0	13359	2265.982266838533	4
0	13360	2266.525094250081	3
0	13369	2267.908035474956	2
0	13376	2269.592753640193	1
0	13385	2271.494942703209	0
0	13389	2272.496345238476	1
0	13391	2272.717858154431	2
0	13394	2274.527567665196	1
0	13398	2275.016590015437	2
0	13400	2275.598286487461	3
0	13403	2275.908389660734	2
0	13411	2278.363840000445	3
0	13415	2279.475272535525	4
0	13419	2280.034645573569	5
0	13422	2280.948465673776	4
0	13427	2281.021981957173	3
0	13432	2281.156510770853	2
0	13436	2281.487794967724	3
0	13439	2282.085405172284	2
0	13447	2283.271200775268	1
0	13454	2283.732605626438	2
0	13456	2285.056787814338	1
0	13463	2285.606259641859	0
0	13474	2285.955599940644	1
0	13477	2288.029767418005	0
0	13532	2293.076852513755	1
0	13537	2294.698293295703	0
0	13546	2296.368050499276	1
0	13548	2297.329189719757	2
0	13554	2297.546809514193	1
0	13559	2297.62088309698	0
0	13573	2298.686174698537	1
0	13575	2299.494326367651	0
0	13594	2300.957085821625	1
0	13596	2302.976208293294	2
0	13598	2303.060633895542	3
0	13599	2304.219623874806	2
0	13604	2306.424627103551	1
0	13609	2306.522799927522	0
0	13628	2310.554221569285	1
0	13630	2310.764348901463	2
0	13634	2312.300277365704	1
0	13639	2312.355155337919	0
0	13648	2313.838867582093	1
0	13651	2314.513858327852	0
0	13689	2317.987537858392	1
0	13691	2320.548983303738	2
0	13694	2321.183772942689	1
0	13700	2322.19865283101	2
0	13701	2322.992346623218	1
0	13708	2323.451315179042	0
0	13726	2326.651926331701	1
0	13729	2327.090499299995	2
0	13731	2327.101794732157	3
0	13733	2328.103726949667	2
0	13740	2328.635979352803	3
0	13741	2328.884966728704	2
0	13750	2330.977308158253	1
0	13755	2331.171974461925	0
0	13774	2332.627301674506	1
0	13776	2332.894821722756	2
0	13777	2334.257329433619	1
0	13782	2334.796528069709	0
0	13807	2339.221879341351	1
0	13809	2340.450149417452	2
0	13810	2341.225818947227	1
0	13815	2341.650804836388	0
0	13847	2347.008648935625	1
0	13849	2347.781850894401	2
0	13851	2347.964201931111	3
0	13853	2348.309666573919	4
0	13854	2349.902203904609	3
0	13859	2350.125166281977	2
0	13866	2350.51665272285	3
0	13870	2351.569835113753	2
0	13875	2352.173627670857	1
0	13880	2352.259914190043	0
0	13916	2360.527709859479	1
0	13918	2360.680696324428	0
0	13924	2360.723441757393	1
0	13926	2360.7978744408	2
0	13928	2361.234918589023	3
0	13929	2362.011240934246	2
0	13934	2362.165415129082	1
0	13940	2362.97072172782	0
0	13954	2365.842977472175	1
0	13955	2365.929978790564	0
0	13959	2366.074421079554	1
0	13962	2366.381269123634	0
0	13975	2369.704268611732	1
0	13978	2372.673418974446	0
0	13982	2372.898452466912	1
0	13985	2374.149613246015	0
0	14010	2376.928629927615	1
0	14012	2377.00490001298	2
0	14018	2378.429309692506	1
0	14025	2379.685597610478	2
0	14027	2380.186576098056	1
0	14035	2381.256199571862	2
0	14036	2381.350548963178	1
0	14044	2382.155190205034	0
0	14068	2383.566456051882	1
0	14070	2383.719436771806	2
0	14073	2384.766560958045	1
0	14078	2385.240383910877	0
0	14113	2391.42436151736	1
0	14116	2392.263016333707	2
0	14117	2392.533113766113	1
0	14122	2392.805605401856	0
0	14136	2394.3027328674	1
0	14139	2394.850539277433	0
0	14193	2401.58214133243	1
0	14194	2402.223612557442	0
0	14296	2421.431943221656	1
0	14298	2421.575955340208	2
0	14305	2422.972166386741	1
0	14310	2423.045237113696	0
0	14321	2423.692407783987	1
0	14324	2423.881876410072	2
0	14326	2424.035529905103	3
0	14327	2424.637726615966	2
0	14336	2427.370187265307	3
0	14338	2427.660181322417	2
0	14343	2427.875170736765	1
0	14349	2428.282179633028	0
0	14375	2430.08301781298	1
0	14376	2430.466677694601	0
0	14406	2435.294839986401	1
0	14407	2435.299151151722	0
0	14413	2435.908112040313	1
0	14418	2436.7990548488	0
0	14450	2439.775770287817	1
0	14452	2440.275840106611	0
0	14486	2444.979913887732	1
0	14488	2445.076150225196	2
0	14490	2446.420249500065	3
0	14491	2447.121784857921	2
0	14496	2447.736620943015	1
0	14501	2447.793425895921	0
0	14519	2448.709229387474	1
0	14521	2450.201428841046	0
0	14527	2451.343442720955	1
0	14529	2451.622608397037	2
0	14531	2451.960585030114	3
0	14532	2453.435125841788	2
0	14536	2453.552463270359	3
0	14538	2455.66372078183	4
0	14541	2456.445731601732	3
0	14548	2457.977121569063	2
0	14555	2460.013676402473	3
0	14558	2460.402463451546	2
0	14563	2460.703551274713	1
0	14570	2461.593121845321	2
0	14571	2462.04467564736	1
0	14576	2462.529493290741	0
0	14590	2465.655352887021	1
0	14593	2466.356299179316	2
0	14595	2466.575281471612	3
0	14600	2469.364490123959	2
0	14607	2470.323089668163	1
0	14614	2471.330018230148	2
0	14615	2471.520757119435	1
0	14622	2472.387798467007	0
0	14669	2478.525927564791	1
0	14671	2478.761831197834	2
0	14672	2478.83007433949	1
0	14679	2479.579742470966	2
0	14680	2479.592447958741	1
0	14687	2482.728719397524	0
0	14714	2484.964279176537	1
0	14715	2485.296417416525	0
0	14730	2487.386166769339	1
0	14732	2488.482123122576	0
0	14746	2492.467460451181	1
0	14747	2492.772500370096	0
0	14753	2492.83762570708	1
0	14754	2493.045544137413	0
0	14778	2496.798145206543	1
0	14780	2496.879251966485	2
0	14781	2497.554369648741	1
0	14786	2498.267626807789	0
0	14799	2499.938581465481	1
0	14806	2502.320797596271	0
0	14812	2502.493584670029	1
0	14813	2502.601918980798	0
0	14833	2505.016524283424	1
0	14834	2505.186887567497	0
0	14851	2507.30229630484	1
0	14855	2508.998975668376	0
0	14861	2510.096798252273	1
0	14863	2510.587188269805	2
0	14864	2510.790187131469	1
0	14870	2511.402829751978	0
0	14883	2513.113381380198	1
0	14888	2514.185855522184	0
0	14902	2515.381689198371	1
0	14904	2516.037539989027	0
0	14931	2519.841377813623	1
0	14932	2520.232566708275	0
0	14941	2521.657806186045	1
0	14944	2522.006733241346	0
0	14970	2526.935558514713	1
0	14971	2527.096859340832	0
0	14989	2530.340871243164	1
0	14991	2530.693122597535	2
0	14996	2532.919669930406	1
0	15004	2534.096978407972	2
0	15005	2534.533392448222	1
0	15010	2535.219545558309	0
0	15025	2536.409593555126	1
0	15027	2539.030066582791	2
0	15030	2539.603698387565	1
0	15038	2539.933504046101	2
0	15039	2540.025994488332	1
0	15044	2540.13940999266	0
0	15058	2541.9013150554	1
0	15060	2544.669700619112	0
0	15078	2545.558126104519	1
0	15079	2545.676302469101	0
0	15085	2546.248701501452	1
0	15088	2546.407880796099	0
0	15092	2546.563779708826	1
0	15098	2547.905466192788	0
0	15102	2549.152004313949	1
0	15104	2550.276550095936	2
0	15110	2550.934411259346	1
0	15115	2550.995067910826	0
0	15119	2551.077404768581	1
0	15124	2551.910338999602	0
0	15128	2552.321739198105	1
0	15130	2552.453983527621	2
0	15133	2552.932574818834	1
0	15138	2553.308650493859	0
0	15148	2555.984491777389	1
0	15150	2556.000603116808	2
0	15152	2557.229668560493	3
0	15154	2557.260695632674	4
0	15157	2558.697147143951	3
0	15161	2559.206115292596	4
0	15165	2559.410672866068	5
0	15168	2560.594359965818	4
0	15176	2562.361787634794	5
0	15178	2562.492650076546	6
0	15180	2562.587610745309	7
0	15185	2565.015557892905	6
0	15190	2566.870973601832	5
0	15196	2567.217551770068	6
0	15197	2567.737934867301	5
0	15203	2568.170561524797	6
0	15204	2568.872886260522	5
0	15208	2569.393171378372	6
0	15210	2570.219967707363	7
0	15212	2570.953055062036	8
0	15214	2571.006249240701	9
0	15219	2572.16123033633	8
0	15224	2572.940984408562	7
0	15229	2573.259840733055	6
0	15234	2573.967723022976	5
0	15240	2574.175304677696	6
0	15242	2574.47038389453	7
0	15248	2576.44924636538	8
0	15249	2577.086167373722	7
0	15255	2577.812110877197	8
0	15257	2578.089653475257	9
0	15258	2578.558526147	8
0	15263	2580.929930652232	7
0	15268	2581.397960785882	6
0	15273	2582.368585828692	5
0	15280	2584.046152485508	4
0	15284	2584.280674115644	5
0	15289	2587.133236647897	4
0	15293	2587.292790116341	5
0	15297	2590.092444823901	4
0	15304	2590.40905289455	5
0	15305	2591.49901205931	4
0	15310	2591.511129898104	3
0	15316	2592.051489483994	4
0	15318	2593.366705904059	5
0	15319	2593.919740015923	4
0	15324	2595.371758545858	3
0	15332	2598.502666287421	2
0	15339	2598.681768108601	1
0	15348	2599.057559597822	2
0	15349	2599.162366348004	1
0	15357	2599.591735944406	0
0	15383	2601.379454283513	1
0	15385	2601.420779572682	2
0	15387	2601.964985444723	1
0	15392	2602.024279214258	0
0	15426	2609.950267306092	1
0	15427	2610.413137818911	0
0	15434	2611.470282361764	1
0	15436	2611.572435438411	0
0	15442	2611.947753979967	1
0	15443	2612.566996069581	0
0	15455	2613.120516819292	1
0	15457	2613.270954491906	2
0	15460	2613.900611296679	3
0	15464	2615.752224841829	2
0	15469	2616.048421579915	1
0	15474	2616.830385234917	0
0	15485	2617.296198058236	1
0	15488	2619.109775314769	0
0	15509	2620.627186093782	1
0	15513	2621.325830069964	0
0	15529	2624.587997532143	1
0	15533	2626.813366663999	0
0	15545	2629.213996799336	1
0	15546	2630.171063492878	0
0	15568	2631.721633361142	1
0	15572	2633.535922745909	2
0	15575	2634.901832730964	1
0	15580	2634.92851042313	0
0	15606	2638.069146165831	1
0	15608	2639.26393030651	0
0	15648	2646.280400471973	1
0	15656	2649.236361883831	0
0	15708	2656.197868414439	1
0	15709	2656.419230698955	0
0	15731	2659.685156454676	1
0	15733	2659.92074461586	2
0	15734	2659.962749644627	1
0	15739	2660.554776404789	0
0	15770	2667.628121681901	1
0	15772	2668.000083584193	2
0	15774	2668.344254097212	3
0	15778	2670.084210254746	2
0	15785	2672.158499224778	1
0	15790	2672.256363308835	0
0	15827	2685.179661662886	1
0	15828	2685.211466589186	0
0	15832	2685.41599133856	1
0	15834	2685.953526572069	2
0	15836	2686.975896546827	3
0	15839	2687.832364878475	2
0	15844	2688.052264143474	1
0	15848	2688.075957494979	2
0	15851	2688.486575432014	1
0	15855	2688.603574251376	2
0	15859	2688.853581918562	3
0	15862	2690.883691581876	2
0	15874	2692.808543410654	3
0	15876	2693.074501755957	4
0	15877	2693.37282593752	3
0	15883	2694.20765579069	4
0	15884	2694.226178493967	3
0	15889	2694.326113708061	2
0	15894	2694.974922004651	1
0	15900	2695.754217068431	2
0	15902	2695.866715338263	3
0	15904	2696.931284248297	4
0	15905	2699.806112431946	3
0	15910	2700.973457710196	2
0	15915	2701.387541268156	1
0	15919	2702.376310493794	2
0	15924	2704.12301372003	1
0	15929	2706.456552953811	0
0	15962	2710.732349631279	1
0	15963	2711.504585732802	0
0	15972	2714.96475856702	1
0	15974	2716.132924549739	2
0	15977	2716.841824065654	1
0	15983	2717.132537475375	0
0	15990	2718.236910687669	1
0	15993	2719.040530996556	2
0	15995	2720.063075232422	1
0	16000	2720.355615756813	0
0	16004	2720.884207773411	1
0	16009	2721.223007141962	0
0	16015	2721.347765708846	1
0	16021	2723.120358602662	2
0	16022	2723.200734884352	1
0	16030	2724.086833379832	2
0	16032	2724.16465807419	3
0	16033	2724.201482969604	2
0	16038	2724.843069178517	1
0	16042	2725.469553448286	2
0	16049	2728.897884983832	3
0	16052	2729.240322977509	2
0	16057	2730.371883053085	1
0	16063	2733.187311198103	0
0	16070	2733.842462444005	1
0	16071	2733.851899695318	0
0	16092	2736.246154155112	1
0	16094	2736.264045392558	0
0	16108	2737.605361003119	1
0	16112	2739.252382749922	2
0	16115	2740.666775342635	1
0	16120	2741.926711233669	0
0	16137	2743.455245258487	1
0	16138	2743.836375406411	0
0	16154	2744.096612237382	1
0	16156	2746.725015512856	2
0	16159	2746.987466870083	1
0	16167	2747.77593668194	0
0	16189	2751.095127241223	1
0	16191	2751.144651689073	2
0	16193	2751.355653909751	3
0	16195	2753.546404277773	2
0	16202	2754.592182602649	1
0	16211	2754.79225388766	0
0	16217	2755.884232767872	1
0	16221	2757.029541147348	0
0	16243	2757.816985131976	1
0	16244	2757.991387777884	0
0	16251	2758.688697298874	1
0	16258	2759.317038614081	0
0	16279	2764.718628678457	1
0	16281	2764.921535199485	2
0	16285	2767.423764598671	3
0	16287	2767.688990747737	4
0	16289	2768.562565190815	5
0	16290	2769.417402364094	4
0	16296	2769.612526086181	5
0	16297	2769.645811232514	4
0	16303	2769.779897954884	5
0	16305	2770.443350179181	4
0	16311	2771.949597931413	3
0	16317	2772.14311164224	2
0	16322	2772.166756715277	1
0	16327	2772.535231765203	0
0	16331	2773.116533708023	1
0	16335	2773.925745421244	0
0	16342	2774.163061060203	1
0	16347	2774.603718781377	2
0	16348	2774.903237260862	1
0	16354	2775.325421960719	2
0	16358	2775.78116358541	3
0	16363	2776.46929691604	2
0	16368	2776.702027436832	1
0	16373	2777.136812124172	0
0	16390	2779.592820888244	1
0	16392	2780.749150376043	2
0	16394	2781.343299266593	1
0	16401	2782.168677809101	0
0	16405	2783.590334199455	1
0	16407	2784.181433576312	2
0	16411	2785.368564691519	3
0	16417	2786.182697774952	4
0	16418	2786.765672875669	3
0	16422	2786.971504536366	4
0	16426	2788.636583501325	3
0	16431	2788.997011277537	2
0	16437	2790.242680477886	1
0	16443	2790.426133903936	2
0	16446	2790.667744069924	3
0	16450	2790.990683309157	4
0	16451	2791.107794278372	3
0	16459	2792.187709423736	2
0	16464	2792.763524115488	1
0	16469	2793.656262970185	0
0	16475	2793.834494083388	1
0	16479	2794.998364579255	0
0	16488	2795.702161501963	1
0	16489	2796.036484863176	0
0	16501	2796.80793553425	1
0	16504	2797.366907667912	0
0	16515	2798.099623263685	1
0	16518	2799.042115329461	2
0	16520	2799.792182759485	1
0	16525	2800.654289167399	0
0	16531	2800.728535458248	1
0	16532	2801.693468916358	0
0	16538	2803.812369860208	1
0	16545	2804.726829035333	0
0	16572	2808.507128955955	1
0	16573	2808.520481739336	0
0	16587	2809.989512764405	1
0	16598	2814.102019745192	0
0	16611	2815.461168459392	1
0	16613	2816.244247441834	2
0	16617	2818.506192634906	1
0	16623	2819.265499612815	0
0	16629	2823.846349101224	1
0	16630	2824.080794509981	0
0	16637	2825.000111061197	1
0	16638	2825.126597112153	0
0	16654	2825.851058577068	1
0	16656	2826.292950836835	2
0	16661	2827.586325401751	1
0	16668	2828.002915821235	0
0	16692	2830.73914810827	1
0	16694	2830.938825655885	2
0	16697	2831.34996891977	1
0	16701	2832.086706718159	2
0	16705	2833.109793449816	3
0	16708	2834.310509219525	2
0	16718	2837.250202181761	3
0	16719	2837.319586815835	2
0	16727	2839.519066028994	1
0	16732	2839.652041853297	0
0	16738	2840.79037533478	1
0	16745	2843.79919894396	2
0	16749	2844.20035744182	1
0	16754	2844.800868028007	0
0	16760	2845.276679703962	1
0	16761	2845.767691803648	0
0	16765	2846.349424342733	1
0	16768	2847.186693933206	0
0	16772	2849.161621455815	1
0	16775	2849.339628684047	0
0	16785	2850.599747270192	1
0	16786	2851.289409541384	0
0	16790	2851.772176950739	1
0	16794	2852.663925109366	0
0	16838	2858.843201083179	1
0	16839	2858.852775754445	0
0	16848	2861.472677244233	1
0	16852	2862.386138557482	2
0	16853	2862.770156581628	1
0	16858	2863.056320128178	0
0	16867	2863.676287999607	1
0	16874	2867.523911801367	2
0	16879	2868.441446554357	1
0	16887	2869.37523258935	2
0	16889	2870.70084554908	1
0	16895	2871.275325917102	2
0	16897	2871.662703820765	1
0	16902	2872.145746767079	0
0	16908	2872.248762097848	1
0	16912	2873.257142381625	0
0	16929	2873.979274526667	1
0	16930	2874.105553606063	0
0	16937	2874.490422727317	1
0	16944	2876.313154168572	0
0	16950	2876.387293737902	1
0	16953	2877.813803120485	0
0	16965	2879.088215403761	1
0	16966	2881.315836352721	0
0	16996	2884.457143379099	1
0	16998	2884.66267779158	2
0	17001	2886.124782890354	3
0	17003	2886.305685189741	4
0	17005	2886.664493816961	5
0	17006	2886.717331738207	4
0	17011	2886.988103138374	3
0	17016	2887.417777316647	2
0	17024	2887.601546975862	1
0	17030	2888.203217070848	0
0	17055	2889.710828821212	1
0	17059	2890.47060869392	0
0	17071	2892.023109395097	1
0	17074	2892.855819427917	0
0	17081	2892.989486932755	1
0	17082	2893.020671114868	0
0	17095	2894.051735321178	1
0	17097	2894.098369275841	2
0	17098	2894.452878337203	1
0	17104	2894.528938192648	2
0	17105	2894.551255989645	1
0	17111	2894.761772572489	0
0	17117	2895.140544261038	1
0	17119	2895.388586264642	0
0	17148	2897.13177375039	1
0	17149	2897.260923864086	0
0	17188	2905.241372122965	1
0	17189	2905.395186927736	0
0	17196	2906.357152008781	1
0	17200	2906.921534509014	0
0	17260	2922.27718376651	1
0	17263	2922.744888736377	0
0	17284	2925.616976576425	1
0	17285	2926.181793897391	0
0	17298	2931.273501220271	1
0	17299	2932.138514884426	0
0	17312	2935.362823583258	1
0	17313	2935.847391609057	0
0	17324	2937.220369130302	1
0	17326	2937.892530503787	2
0	17329	2939.434961846355	1
0	17335	2940.538448537243	2
0	17338	2940.951234307431	1
0	17342	2941.002157211507	2
0	17345	2942.574980722383	1
0	17350	2944.967100012536	0
0	17363	2946.187164020565	1
0	17364	2946.382422096971	0
0	17378	2946.874943556957	1
0	17380	2947.076575724093	2
0	17381	2947.34234926909	1
0	17386	2948.724339470744	0
0	17396	2950.759507108186	1
0	17398	2952.654064100798	0
0	17412	2957.77523943961	1
0	17413	2958.257190615354	0
0	17417	2959.7615255564	1
0	17420	2961.520846962325	0
0	17424	2961.755211691464	1
0	17426	2962.237911481296	2
0	17428	2962.682899527323	3
0	17430	2962.991225796907	4
0	17433	2963.787609445702	3
0	17437	2965.133150485401	4
0	17440	2965.447540249117	3
0	17444	2965.69014496007	4
0	17447	2967.015245194713	3
0	17452	2967.723188828209	2
0	17457	2968.111822940706	1
0	17461	2968.164644570692	2
0	17463	2968.821371283359	3
0	17465	2970.082737851797	4
0	17475	2970.895843656028	5
0	17477	2971.510601185221	4
0	17483	2971.831255536367	3
0	17489	2971.874028854132	4
0	17490	2972.091334772632	3
0	17495	2974.026683785664	2
0	17499	2974.066789482741	3
0	17508	2975.03556766276	2
0	17517	2977.109667321119	3
0	17519	2977.336081232381	4
0	17520	2977.360013453505	3
0	17525	2977.409747434896	2
0	17531	2979.123164873379	3
0	17533	2979.467003546199	4
0	17535	2979.824685262121	5
0	17538	2980.69464054325	4
0	17543	2982.239942172439	3
0	17549	2983.294722563473	4
0	17550	2983.700041743437	3
0	17560	2986.617472892717	2
0	17566	2987.005561941438	3
0	17567	2987.700009469762	2
0	17572	2987.901709428293	1
0	17577	2987.982778722641	0
0	17583	2991.165565384322	1
0	17584	2992.365585264646	0
0	17590	2993.91104120917	1
0	17595	2995.188141876725	2
0	17596	2995.967078862431	1
0	17601	2996.213714615883	0
0	17638	3000.137311267791	1
0	17641	3000.674379541907	2
0	17643	3000.881351269087	1
0	17648	3001.562834002064	0
0	17676	3002.825340891879	1
0	17678	3003.583306136268	0
0	17690	3004.215181353608	1
0	17692	3004.504758073257	2
0	17693	3004.696824137274	1
0	17699	3005.351755471354	0
0	17717	3007.144963115961	1
0	17721	3007.746922065534	0
0	17753	3013.322116994106	1
0	17755	3014.674855247067	2
0	17757	3015.32468806246	1
0	17763	3015.635183129517	0
0	17769	3015.905775694108	1
0	17770	3015.963659822299	0
0	17785	3017.24883446297	1
0	17786	3017.457170312235	0
0	17801	3019.315477923085	1
0	17803	3019.767766525983	2
0	17804	3020.200880401262	1
0	17810	3020.873568878429	2
0	17811	3021.01118150724	1
0	17816	3023.496892111391	0
0	17861	3034.309754783424	1
0	17863	3034.346323480683	2
0	17864	3034.68090284189	1
0	17870	3035.10520355019	2
0	17875	3035.91990749362	1
0	17881	3036.531936559082	0
0	17909	3040.456110045571	1
0	17911	3041.281019043661	2
0	17912	3041.353263842691	1
0	17919	3041.872040790778	0
0	17968	3051.823721685829	1
0	17970	3052.035471897459	2
0	17974	3053.072076735922	3
0	17975	3053.466976367909	2
0	17980	3053.92882051072	1
0	17986	3054.63342144379	0
0	18060	3069.30421233933	1
0	18061	3069.461202389117	0
0	18067	3070.956310572093	1
0	18068	3071.510312456387	0
0	18108	3080.534675074947	1
0	18109	3081.054260960802	0
0	18113	3081.13640399521	1
0	18115	3081.401976235368	2
0	18118	3081.561837861519	1
0	18122	3082.50555246531	2
0	18125	3084.500283226222	1
0	18132	3084.772065073621	2
0	18133	3085.72408608292	1
0	18139	3088.777856264479	0
0	18145	3089.519990816384	1
0	18150	3091.601893011505	0
0	18156	3092.362300143484	1
0	18158	3092.658088605928	2
0	18161	3093.656286912029	1
0	18168	3095.609290328901	0
0	18192	3099.534233082879	1
0	18193	3099.589810990366	0
0	18238	3108.316308893487	1
0	18245	3110.854892218269	0
0	18256	3111.327628723827	1
0	18258	3111.974838528171	0
0	18288	3119.429582326352	1
0	18293	3120.470387625771	0
0	18340	3129.045772058788	1
0	18342	3129.46903972458	0
0	18350	3129.632322187932	1
0	18351	3129.727436353867	0
0	18376	3132.151968317081	1
0	18377	3132.354181238199	0
0	18389	3134.751892147285	1
0	18394	3135.5024356409	0
0	18412	3137.059894430794	1
0	18414	3137.786521502252	0
0	18439	3139.556422620679	1
0	18441	3139.784996187461	2
0	18444	3140.326270014147	1
0	18449	3140.401972910287	0
0	18470	3143.378555398847	1
0	18473	3144.01761057102	0
0	18588	3183.700756505114	1
0	18590	3183.91154377443	2
0	18591	3184.108641004962	1
0	18597	3184.393470117248	2
0	18598	3184.869553225334	1
0	18604	3186.150319237179	2
0	18605	3186.433090934233	1
0	18610	3186.680784780341	0
0	18619	3187.248316540091	1
0	18621	3187.388204152769	2
0	18622	3187.880079492657	1
0	18626	3188.927130724668	2
0	18635	3190.928333726432	1
0	18642	3193.650025203094	0
0	18670	3196.610111699192	1
0	18672	3197.035777628624	2
0	18676	3199.343464173186	1
0	18682	3200.040344840963	0
0	18698	3200.859940904553	1
0	18702	3204.034624418093	0
0	18723	3205.520789140278	1
0	18724	3205.708845522957	0
0	18762	3212.489413544705	1
0	18763	3213.521046244372	0
0	18775	3215.050721573987	1
0	18777	3216.316658392383	0
0	18796	3224.426509381705	1
0	18799	3224.952823001015	0
0	18803	3226.137150430976	1
0	18809	3227.023524927892	2
0	18811	3228.436176414099	1
0	18817	3228.695646251065	2
0	18818	3228.739206210578	1
0	18825	3230.657938800316	0
0	18833	3231.012936183856	1
0	18834	3231.887483693901	0
0	18840	3232.227435726024	1
0	18841	3232.49886988827	0
0	18859	3236.97482263813	1
0	18860	3237.207285266796	0
0	18883	3244.964424008011	1
0	18884	3245.156415043032	0
0	18956	3257.849489948263	1
0	18957	3258.030672379451	0
0	18963	3258.310876836759	1
0	18968	3260.009116055196	0
0	18979	3260.378805326734	1
0	18981	3261.134088643637	2
0	18982	3261.322668928099	1
0	18988	3261.756221155587	0
0	19043	3271.702657283986	1
0	19045	3271.729817843666	2
0	19047	3272.657546327877	3
0	19048	3273.632061566518	2
0	19053	3273.750533799474	1
[...]
5	166715	29060.899988342516	2.886969078116
5	166729	29065.7307018836	7.416635998352
5	166742	29069.166625705843	8.299994356352
5	166752	29071.081627197068	8.818400595536
5	166757	29071.115785049717	5.831100315867
5	166763	29071.525497342619	5.425300978168
5	166768	29072.732637968705	6.051907990107
5	166775	29074.05815237513	5.324851018978
5	166785	29075.804822432773	5.647490656351
5	166794	29076.725641578216	3.574973451611
5	166804	29079.063961700483	4.48392680924
5	166809	29079.479177727176	3.751945163021
5	166820	29081.149644113858	4.71289840557
5	166827	29082.507159092204	4.654466178869
5	166832	29083.560643426364	4.039616919324
5	166837	29085.032814586822	4.144561413235
5	166844	29085.344464634548	4.191437782783
5	166853	29087.04113346986	1.725885654982
5	166866	29090.880182555639	5.123314061565
5	166873	29091.992146121742	4.321773564294
5	166882	29094.034024221168	5.407127092963
5	166889	29094.475534061538	5.581688005148
5	166898	29095.471619912864	4.525903250615
5	166909	29098.552655828895	5.546653719618
5	166914	29098.961862235191	4.677856786528
5	166919	29099.415686144381	4.66346097049
5	166928	29102.937142500396	7.884113917351
5	166933	29104.786041033297	6.29574738043
5	166953	29108.511582622304	3.630936261544
5	166962	29111.430860443659	5.701072455056
5	166967	29111.822075370144	5.329926313268
5	166997	29113.134214031047	0.614943179442
5	167022	29121.692744668075	5.831559341662
5	167031	29122.56976720002	5.876028559428
5	167038	29122.837910121715	5.613645297374
5	167044	29123.075735429804	4.603660457077
5	167051	29123.846829564316	4.382902970925
5	167056	29123.955993497957	3.315833691762
5	167062	29128.011565507231	5.958825006808
5	167068	29128.110140343226	4.528420638794
5	167100	29130.917198311269	2.277041307099
5	167108	29131.52635516846	2.442282505717
5	167116	29131.658356458536	1.458443901911
5	167121	29131.778259111184	1.288857150949
5	167150	29136.420681747337	2.806027639798
5	167157	29136.892312433511	2.91807947603
5	167197	29144.894145788824	5.131787495049
5	167208	29146.80334761928	5.975038343171
5	167213	29147.045605035751	5.342648338985
5	167219	29147.67012826186	5.685917269845
5	167224	29147.787041040315	2.514576207987
5	167231	29150.792675926349	4.741656338524
5	167238	29152.292281932412	3.303461756392
5	167243	29153.502577966351	1.827535987793
5	167257	29154.458449513851	0.811664986175
5	167281	29157.561530442363	2.145900005319
5	167310	29162.674257274958	4.471841965474
5	167315	29162.943609933218	4.149238275501
5	167320	29163.507814120301	2.85920979827
5	167326	29163.671787043725	1.960807163789
5	167344	29166.009268811734	2.329694361871
5	167350	29166.847333022227	2.411722166456
5	167359	29167.905608540527	2.694517797083
5	167364	29169.101529527114	3.509968467523
5	167371	29170.891233123512	3.116250484428
5	167393	29175.254137559072	3.567408322824
5	167399	29175.737430034616	0.661952725458
5	167422	29177.300279664306	0.644718364919
5	167442	29180.074772183656	2.509259604611
5	167448	29180.646644413545	1.524502773747
5	167454	29181.789161881178	1.878554881289
5	167469	29184.181827930172	1.646360631516
5	167513	29194.973744059707	8.198505459546
5	167525	29197.174512390617	9.576618232602
5	167534	29199.619287646631	5.42761674895
5	167539	29200.813478401341	6.259206385701
5	167544	29201.084851286849	6.343444409446
5	167555	29203.635097553136	8.694967576579
5	167562	29205.150370144168	10.15150028821
5	167569	29205.866226501432	10.463205499658
5	167574	29206.165969849866	7.939478225522
5	167589	29209.564427239679	7.393152672397
5	167595	29211.018891438431	7.164030623934
5	167600	29211.180617673698	5.00884107593
5	167605	29211.843231333782	5.407417334121
5	167612	29215.450540559118	8.430351937656
5	167621	29218.720893000213	10.286773746555
5	167626	29219.40032870213	10.21251448684
5	167633	29220.519898162445	8.374522883738
5	167646	29224.050895310058	8.140532157185
5	167651	29224.62692157399	7.124780591931
5	167656	29224.654018124834	5.044046824774
5	167661	29227.230484450731	5.387674142249
5	167679	29234.207130394619	12.173732170936
5	167690	29235.170440832111	11.671417880822
5	167715	29242.055337372343	10.225452502914
5	167726	29243.375056387107	11.49962927493
5	167735	29245.505421956837	11.113160180464
5	167740	29245.794984246528	11.198255089595
5	167745	29247.018692029202	11.76392807258
5	167751	29248.219847218786	12.62799026525
5	167756	29248.847136682878	11.732565523458
5	167761	29249.352631412042	12.071600982519
5	167776	29251.81994489294	13.991180015035
5	167784	29254.126006941676	14.356250794612
5	167791	29254.714508179295	14.74967266048
5	167796	29255.740643811296	13.946541820667
5	167805	29257.817430324398	14.707310678392
5	167812	29259.577771016427	16.164724944643
5	167817	29260.204787481676	16.210051844024
5	167830	29261.798048502723	11.73542455623
5	167841	29266.04947375515	14.970985652893
5	167852	29270.561313617828	19.024542369818
5	167857	29271.228228179017	17.727071790529
5	167862	29272.06011980575	13.127333700945
5	167867	29273.955530308518	13.306834762647
5	167881	29277.58557333174	16.177019752849
5	167888	29279.817413615966	15.580327181425
5	167893	29281.198867398832	15.278919151431
5	167898	29283.181425221688	16.142259403945
5	167905	29285.861433861619	10.506401617728
5	167910	29286.691165735465	10.745358104737
5	167916	29288.97132319458	12.987406500567
5	167921	29289.294567095122	12.510296065379
5	167930	29290.9542083685	11.355434199001
5	167937	29292.834437496103	2.386104713758
5	167942	29293.682521516361	2.50166092362
5	167962	29295.005952970731	0.625829683374
5	167999	29297.601495886216	0.529553561145
5	168018	29300.39299183454	1.336131921681
5	168031	29302.13014584579	1.355621080572
5	168061	29307.163373139806	2.656633036157
5	168068	29309.327938511845	2.610005397952
5	168095	29315.224619529879	3.374557277175
5	168100	29315.369794454758	3.242866459867
5	168107	29316.146298511856	3.842490422124
5	168116	29317.551100029201	4.293574578271
5	168121	29319.920734009224	4.466009700197
5	168128	29320.46820550677	3.372287132739
5	168164	29329.051415869953	3.472081084188
5	168171	29330.078964527212	3.49249858405
5	168184	29333.623070239625	3.750533787666
5	168189	29333.894823390926	1.785000143615
5	168222	29339.457068035727	4.085486284299
5	168228	29339.871590962597	3.268917734963
5	168238	29340.601570851518	2.141073267165
5	168248	29341.447857984896	2.40737947617
5	168258	29342.707337641026	3.452691832463
5	168265	29343.021455284144	3.051645522633
5	168270	29343.49424138091	3.427579426047
5	168278	29345.436894840802	4.445863895087
5	168283	29346.028477029451	4.760935926284
5	168289	29347.623541583787	5.190970879772
5	168294	29348.069772735733	3.36586775116
5	168361	29357.234132925999	1.761330511961
5	168368	29358.384561633716	2.442341958325
5	168416	29364.719832368104	1.671381522511
5	168421	29364.739005977461	0.263189287763
5	168434	29368.921484908165	2.213163764077
5	168462	29376.364063660347	5.455902596402
5	168471	29377.36113574308	5.416266805889
5	168476	29377.560782790591	4.51578487485
5	168482	29378.705108722635	5.522660980926
5	168492	29379.308325827757	4.032596760156
5	168499	29379.927853691798	3.339833440296
5	168504	29380.096909495862	0.845219971587
5	168543	29388.307160099721	5.50228258301
5	168551	29389.230533373024	5.583670320802
5	168557	29389.8670154872	3.052680201691
5	168562	29390.515791314544	3.56648746898
5	168569	29391.064397502059	2.251373582203
5	168606	29396.477891843115	3.326856360418
5	168611	29396.760869029638	1.852659968738
5	168639	29400.465553254663	2.49648930845
5	168650	29402.178441742613	4.103540575415
5	168655	29402.476660491593	3.25757485073
5	168661	29402.708670131561	3.09518926909
5	168674	29405.750430121111	4.197764723834
5	168679	29406.075183735411	1.159797381208
5	168688	29407.140093012767	1.939182131675
5	168695	29408.595600840232	3.080830403578
5	168700	29410.01211374954	2.996438931344
5	168725	29417.715204298895	2.531270497441
5	168754	29421.377443073062	1.112817856177
5	168785	29425.214930727274	3.478365023718
5	168790	29425.930422434433	1.621154067217
5	168831	29432.808869701859	2.132395364729
5	168840	29434.237195759508	2.273680286711
5	168851	29435.27355506264	3.02790776143
5	168858	29435.998891822074	2.434176422557
5	168863	29436.174515465211	2.452650807834
5	168877	29439.702157108887	4.956256614189
5	168882	29439.774059460164	1.274200914261
5	168888	29440.402594991848	1.177628950516
5	168928	29446.216471111302	2.584606847979
5	168935	29446.325781520058	1.919253030609
5	168940	29446.346727483984	0.192333898242
5	168945	29446.786126991317	0.562995746194
5	168961	29452.491706574532	5.62043690248
5	168968	29452.712507069524	1.2150271448
5	168973	29453.565139765332	0.91027951256
5	168990	29455.928159590314	2.093115349241
5	169004	29460.149700198808	6.214545598424
5	169009	29460.150645470926	4.493495148245
5	169016	29460.495721501414	0.591911891736
5	169052	29467.021283501996	4.563479032028
5	169057	29467.20087234535	3.005413145411
5	169095	29474.916318074132	1.869986919206
5	169102	29476.899876743704	3.434867357465
5	169107	29477.437686927312	3.447577232915
5	169114	29478.133100484674	3.404535204833
5	169125	29479.311008487735	3.430544246614
5	169140	29483.447563720945	5.609661457439
5	169147	29483.846014665138	4.77067006665
5	169160	29488.81037136247	9.715836544907
5	169169	29491.878347763194	12.521432901368
5	169175	29492.060552253061	12.241595365931
5	169180	29492.207460646271	11.913413380608
5	169193	29496.120871169802	12.54239168
5	169198	29497.712811712286	13.681600507947
5	169209	29502.619756680982	17.598395047855
5	169214	29503.449827382005	12.945087190119
5	169221	29503.991942624057	10.169131571257
5	169227	29504.194641270691	9.468038910844
5	169232	29504.472296741891	8.655864358417
5	169241	29506.791465634918	7.186353967195
5	169246	29508.641297121375	8.882323050124
5	169253	29511.784094907829	11.895015919318
5	169261	29513.589389786378	9.645660041686
5	169270	29513.850610080503	8.77882269554
5	169276	29517.602124604466	11.407629291159
5	169284	29518.035079258468	8.794386062881
5	169291	29519.957815972932	7.730210953726
5	169296	29521.90706409541	4.107262390888
5	169303	29523.479557636513	5.431764477618
5	169312	29525.171179246033	1.932009409928
5	169318	29525.427129406725	0.890394012839
5	169343	29528.789496570889	2.255045839706
5	169359	29532.816649216448	3.090414373772
5	169386	29534.369782298922	0.652842787287
5	169407	29539.833281468492	4.132811364854
5	169413	29540.251429169094	1.013378220397
5	169437	29544.942131131698	2.27329174236
5	169476	29550.924105133608	1.169175056868
5	169485	29552.401687235447	1.545022854218
5	169491	29553.616282032218	2.123914037224
5	169513	29556.800130319259	0.269030831162
5	169531	29561.518191113045	0.446631262877
5	169555	29564.538206393954	1.455603723229
5	169584	29571.613641060013	2.093485522339
5	169591	29571.787184030696	1.406480692319
5	169596	29572.252171898903	1.74558243529
5	169601	29572.737657398641	1.046066406377
5	169643	29585.286639685092	5.570457882427
5	169649	29586.602940851012	4.131105546557
5	169659	29587.987330282215	4.697563106166
5	169666	29588.369950993908	0.452923021556
5	169675	29589.901340654007	1.674960651578
5	169689	29591.97022615756	0.176399478084
5	169699	29592.916679125222	0.996274270492
5	169713	29594.655652230072	2.568268472116
5	169720	29595.177739602618	2.611789980186
5	169729	29596.527692601182	3.135975705851
5	169736	29598.324178535997	4.897181615267
5	169741	29598.736759105966	5.286007618617
5	169746	29599.918084390129	5.113030234882
5	169751	29600.767024288514	5.013553455932
5	169760	29603.949019734593	7.982948260511
5	169765	29604.33441736604	6.716430772959
5	169772	29607.171069497254	6.218005702977
5	169779	29607.824421787908	4.116515970336
5	169799	29609.889968081487	1.025331018255
5	169829	29615.13367312704	0.213144894709
5	169837	29616.530273755486	0.780998011354
5	169846	29618.129922093119	0.903608862132
5	169861	29625.218653747306	2.418633957524
5	169866	29625.381105792952	1.803739085149
5	169871	29625.748510593381	0.972863639127
5	169883	29626.396504565241	0.422170431817
5	169901	29632.644233585484	0.090726025142
5	169908	29634.137835005366	1.197723616008
5	169915	29634.904334185525	0.055156452581
5	169937	29639.577948337305	1.262805362157
5	169955	29641.642605973613	2.367641310076
5	169960	29641.946380236146	2.159474999767
5	169965	29642.072714273975	2.092696231436
5	169971	29642.437057113794	2.305628995831
5	169976	29642.532117245581	1.582759741561
5	169986	29644.997940185238	4.013650381462
5	169991	29645.303095282077	1.388469317343
5	170002	29646.535992695933	1.727874868535
5	170025	29648.63767857166	0.272686917539
5	170047	29649.849145341278	0.596260337046
5	170073	29654.254273726087	3.647481869136
5	170079	29654.604195832886	2.774903900779
5	170095	29655.915792087727	1.196185150959
5	170107	29656.531459133142	0.121718844917
5	170114	29657.810346358477	0.24181078515
5	170130	29659.53121451711	0.41234417149
5	170137	29661.289000780469	0.780475842089
5	170147	29663.622473779774	2.00371499348
5	170161	29666.856723313331	0.059660201417
5	170171	29668.397543036468	0.449376027301
5	170180	29670.643876398687	2.595643596125
5	170185	29670.805062084075	2.38978307521
5	170192	29671.839567716188	1.4191144937
5	170212	29674.238467155795	2.310716978028
5	170223	29678.483366603916	6.401886288276
5	170235	29679.952193892746	6.348011825518
5	170242	29680.116608426664	5.356700548831
5	170247	29681.254347697847	6.245570091407
5	170264	29685.585364763741	10.164909662136
5	170273	29687.267181689671	8.600925649614
5	170278	29687.282630708179	8.462884826891
5	170285	29687.809113817467	7.808181217574
5	170299	29689.110800495955	7.776405749162
5	170304	29689.570767992076	7.016234551083
5	170311	29690.095640606409	4.518353850062
5	170316	29690.681389472805	3.875001161531
5	170325	29693.390257165593	6.215723481645
5	170330	29693.946719182439	6.631094146014
5	170335	29694.294394822441	6.475304448302
5	170344	29700.780524345527	12.7622536413
5	170351	29702.098997776105	13.491118722175
5	170358	29702.778241712264	12.691877989815
5	170367	29703.850312070885	11.341900388056
5	170374	29704.935882722733	11.969150187816
5	170386	29706.708144602124	5.410528940294
5	170392	29707.801857870748	5.293524790492
5	170397	29707.830194380227	5.00193362732
5	170404	29709.070418197239	5.275199204872
5	170418	29711.451867389264	7.276800282248
5	170425	29711.732846559106	6.435173140557
5	170431	29712.375665814552	7.066115603186
5	170436	29712.961861496968	6.774286250894
5	170441	29713.453025955422	4.60157615
5	170446	29714.092135925957	3.72581776277
5	170460	29717.186331386672	2.010449194309
5	170510	29723.654718313586	2.499926529478
5	170515	29723.981204852527	2.736095511287
5	170529	29727.110110608548	1.507755520212
5	170537	29727.599474911293	0.113215192668
5	170578	29736.375957929116	1.792656774011
5	170594	29740.429681906931	2.960135538643
5	170621	29741.780657931	0.637152617559
5	170629	29744.310210168993	0.516157109994
5	170638	29745.005519091267	0.527181435781
5	170661	29748.367241790765	2.411837734249
5	170666	29748.453975869385	0.53037643508
5	170673	29749.905501533962	1.548169899754
5	170706	29754.105271061263	1.264231449522
5	170717	29763.667431576531	0.951425591572
5	170728	29765.807330603314	0.21037242141
5	170732	29765.857198075909	0.241992622254
5	170739	29766.718261687286	0.530727342618
5	170751	29767.734363102375	0.659915247556
5	170763	29769.003875482578	0.874028238098
5	170772	29771.805198153933	1.375362305188
5	170788	29774.975669146831	2.479282931929
5	170793	29775.174548473176	2.369882297193
5	170798	29775.719885088792	2.19253711381
5	170808	29777.049128508696	3.310063426663
5	170813	29777.370188207955	1.634306610224
5	170817	29777.811019821386	2.031015275417
5	170833	29783.290532660921	4.961689960173
5	170872	29788.862939208027	0.074526144975
5	170899	29794.298984281828	3.602831727219
5	170906	29794.931017494576	2.325540701945
5	170913	29796.24223108687	2.860677008023
5	170941	29802.337435425495	3.253532559817
5	170949	29802.61291388302	3.426728274866
5	170962	29805.241653896502	0.893938918636
5	170977	29806.432402889861	0.292235260415
5	171004	29811.292566886872	3.66951587509
5	171012	29812.732668339949	3.75446388637
5	171017	29812.79230034062	2.672834725435
5	171022	29813.203288575982	0.641920973078
5	171041	29815.383823339279	1.663536043476
5	171046	29817.738212461952	3.696177843805
5	171085	29821.305415882929	1.596585344434
5	171093	29822.763381243689	2.00642076073
5	171098	29822.930565368392	1.74172129066
5	171113	29824.224673831937	0.033680819415
5	171131	29826.200149615709	1.953628905039
5	171136	29827.068886492756	1.966852879871
5	171141	29827.41132503073	1.599963101744
5	171146	29828.472091270435	2.361703778578
5	171164	29832.001921769093	1.105678905247
5	171177	29833.604936729996	0.8964475589
5	171184	29834.554025327261	1.338018354273
5	171189	29835.39469877541	1.944468719728
5	171207	29838.033086130061	0.769577525064
5	171214	29838.622433754463	0.331932146101
5	171223	29840.23214172377	0.244756215538
5	171230	29841.0958962895	0.035454136483
5	171246	29842.367377458175	0.795693210862
5	171253	29842.5052699508	0.03844780454
5	171263	29846.316047974381	0.38231932553
5	171270	29848.741841204915	0.136107668312
5	171278	29851.093144355809	0.930981570996
5	171288	29853.192939257421	1.040197001596
5	171327	29858.277755687329	2.193269053356
5	171332	29859.870877763549	2.985800239389
5	171338	29860.114677681008	3.217960491341
5	171343	29860.406229398945	2.789326546099
5	171366	29864.981387571384	0.369812809871
5	171370	29865.006468213624	0.310449135226
5	171379	29867.48475844407	1.018106353663
5	171392	29871.362585656053	0.841206869957
5	171397	29871.551988888998	0.626110051655
5	171408	29873.2035683777	0.429879798268
5	171412	29873.342836570422	0.332688752877
5	171425	29873.720271563747	0.246415657345
5	171434	29874.382535183821	0.755738505383
5	171442	29875.042299136233	0.709912841588
5	171447	29875.065754161022	0.127892005357
5	171476	29879.112571291465	2.967652093493
5	171484	29882.19764463881	0.130911956537
5	171491	29883.878298741912	0.240393880596
5	171500	29885.411599103384	0.0239417429
5	171508	29886.297099267891	0.276032823132
5	171523	29888.154061831455	0.023761226738
5	171541	29892.054453039398	0.916813444847
5	171566	29895.214141975293	0.1311221588
5	171577	29896.090394423995	0.52774797206
5	171587	29899.326974858027	0.983907836765
5	171597	29900.334025634916	0.639819171462
5	171613	29902.653261808079	0.562230587812
5	171620	29903.431462739083	0.344395682225
5	171643	29908.50436013295	4.422893083049
5	171648	29908.511364865145	1.217788233844
5	171659	29910.31415102051	1.871383718627
5	171676	29915.81824093274	2.360813215802
5	171713	29918.991731234936	1.274836392725
5	171735	29923.116664633273	1.247472113673
5	171755	29927.407430530221	3.294922781555
5	171760	29927.960678230676	3.312673289344
5	171767	29929.502529141385	3.077735844413
5	171774	29930.404374471126	3.903393929423
5	171779	29932.288661386006	4.089475052288
5	171792	29933.805658504661	3.46571017729
5	171801	29935.544946629848	2.255162896874
5	171811	29937.138193220198	3.471345810751
5	171816	29938.080693740305	4.378025921765
5	171824	29940.798199633012	5.278529547499
5	171853	29944.836462307149	2.407651642652
5	171859	29945.917665275134	2.832194430498
5	171867	29947.418942890131	3.771181141621
5	171874	29948.026712506771	1.242795625905
5	171898	29952.803763103458	4.103945179443
5	171904	29953.395701963012	2.096532690549
5	171914	29955.29938187969	2.645853622419
5	171919	29956.302152051988	2.90335890878
5	171939	29959.50501880491	1.246883951518
5	171944	29960.520082593516	1.890258656023
5	171955	29962.821336068323	0.688701192156
5	171981	29966.296406373901	0.875303117102
5	171989	29967.397336814933	0.285352431831
5	171997	29969.53816043966	1.762198272956
5	172016	29979.262324502596	7.278454577992
5	172021	29980.046380559137	6.239401526653
5	172032	29981.11395086645	4.548977775389
5	172041	29981.80026909677	1.675397631902
5	172046	29982.66538975801	1.316421712722
5	172052	29983.749880851204	2.308407783246
5	172100	29996.288252196162	2.584913747945

