version 2
run First-n3-7-20191016-17:03:31-5568
attr configname First-n3
attr datetime 20191016-17:03:31
attr experiment First-n3
attr inifile omnetpp.ini
attr iterationvars ""
attr iterationvarsf ""
attr measurement ""
attr network org.omnetpp.queueing.Pizza
attr processid 5568
attr repetition 7
attr replication ""
attr resultdir results
attr runnumber 7
attr seedset 7
param **.PS.maxInventoriedPS 3
param **.U1.interArrivalTime exponential(2s)
param **.U2.interArrivalTime exponential(4s)
param **.PS.serviceTimeForInventoryU1 exponential(0.8s)
param **.PS.serviceTimeForInventoryU2 exponential(1.0s)
param **.PS.serviceTimeDirectU1 exponential(1.2s)
param **.PS.serviceTimeDirectU2 exponential(1.4s)
param **.PS.probabilityProducing 0.5
param **.CS.serviceTimeU1 exponential(0.8s)
param **.CS.serviceTimeU2 exponential(1.0s)

vector 0 Pizza.EntryQueueU1 queueLength:vector ETV
attr interpolationmode sample-hold
attr title "queue length, vector"
vector 1 Pizza.CS queueLength:vector ETV
attr interpolationmode sample-hold
attr title "queue length, vector"
vector 2 Pizza.EntryQueueU2 queueLength:vector ETV
attr interpolationmode sample-hold
attr title "queue length, vector"
vector 3 Pizza.sink lifeTime:vector ETV
attr interpolationmode none
attr title "lifetime of arrived jobs, vector"
attr unit s
vector 4 Pizza.sink lifeTimeU1:vector ETV
attr interpolationmode none
attr title "lifetime of arrived jobs, vector"
attr unit s
vector 5 Pizza.sink lifeTimeU2:vector ETV
attr interpolationmode none
attr title "lifetime of arrived jobs, vector"
attr unit s
0	0	0	0
0	12	3.186271203354	1
0	16	3.922646749257	2
0	18	4.535346124087	3
0	20	5.926127373993	4
0	22	6.107604223705	5
0	24	6.257161520631	6
0	30	7.344452251714	7
0	32	7.741080339274	6
0	42	8.140385499458	5
0	47	8.332398939077	4
0	53	9.61851404012	5
0	55	10.227719621579	6
0	57	10.278148534068	7
0	59	10.983238070839	6
0	64	11.192644628015	5
0	73	13.056848400218	6
0	74	13.340759820876	5
0	81	14.539056613882	6
0	83	14.750831197976	7
0	84	14.807977375928	6
0	88	15.20927791945	7
0	94	16.558972778663	8
0	97	18.01560272238	7
0	103	18.695678097906	6
0	109	19.178093592448	5
0	115	20.035045702229	4
0	121	20.198278473957	5
0	122	20.526652001168	4
0	127	20.96072140832	3
0	133	21.334277713711	4
0	134	22.855900190596	3
0	139	23.380429980644	2
0	147	24.489865518692	3
0	149	24.843952780351	2
0	154	25.259575570062	1
0	159	25.338728946479	0
0	167	26.629753770717	1
0	168	27.251081157992	0
0	174	28.937764370818	1
0	178	30.282191472359	2
0	179	31.169831470072	1
0	185	32.073188156425	0
0	229	36.440045888939	1
0	230	36.531498433868	0
0	241	36.801894311294	1
0	245	38.261386520627	0
0	260	40.853370555217	1
0	263	42.806437388393	0
0	283	45.023030254235	1
0	285	45.166563831307	2
0	286	45.610076710567	1
0	293	46.536989537942	2
0	294	46.95066516113	1
0	300	47.653190319506	2
0	302	48.021581125761	1
0	307	49.16499312888	0
0	326	50.372481173926	1
0	330	51.600868834391	0
0	342	52.244298775417	1
0	344	52.528518329321	2
0	346	52.580097419148	1
0	354	54.825962035843	0
0	369	55.728299679575	1
0	375	56.955969287778	0
0	381	57.20706352997	1
0	382	60.287734641533	0
0	394	62.004869319136	1
0	395	62.871430661351	0
0	428	69.505669643937	1
0	430	69.637142328727	2
0	431	70.2280149665	1
0	436	70.441083468846	0
0	456	72.146463586554	1
0	457	72.42924068091	0
0	488	79.676696632486	1
0	489	79.745744373394	0
0	554	92.96830725472	1
0	557	94.51402146258	0
0	572	96.489917196849	1
0	573	96.773064522372	0
0	599	99.926840665127	1
0	600	100.222882395174	0
0	625	105.376908051348	1
0	627	105.457778386692	2
0	628	105.519345465153	1
0	633	105.705592846182	0
0	639	105.778807877442	1
0	640	106.727619244748	0
0	651	108.21935632848	1
0	653	108.954696941237	2
0	655	109.145591797581	3
0	657	109.711362040775	4
0	661	109.989126874485	5
0	663	110.181939102117	6
0	666	110.708446904112	5
0	672	111.376149668492	6
0	674	111.397227418639	7
0	676	111.618445510128	8
0	677	111.771699247119	7
0	681	112.224765486756	8
0	685	115.015325000066	9
0	686	115.375473411054	8
0	692	117.001399517221	9
0	695	117.957980872195	8
0	700	118.482546823086	7
0	706	119.058539690417	6
0	711	119.297900348533	5
0	717	119.987624075316	6
0	719	120.921982856229	7
0	721	122.015765007457	8
0	723	124.293187425012	9
0	726	124.478071525112	8
0	731	125.434975631354	7
0	737	126.952760481433	6
0	742	127.134791842792	5
0	749	128.502787995329	4
0	757	128.750694538398	5
0	758	129.157974562425	4
0	762	129.545423844982	5
0	764	129.617244786975	6
0	766	129.738811398599	7
0	769	131.405158007104	6
0	775	132.539748242089	7
0	776	133.245381519779	6
0	782	134.363654669989	7
0	786	134.921093296406	8
0	788	135.167042884616	9
0	793	135.788127882977	8
0	801	137.729900897803	7
0	808	138.392105187354	6
0	815	140.507647946727	5
0	820	141.235045595407	4
0	824	142.210927481112	5
0	828	142.773292230929	6
0	829	143.187764192906	5
0	835	143.812579799544	6
0	839	145.641003090838	7
0	845	146.142126063213	8
0	847	148.111315525412	7
0	854	149.151021547389	8
0	856	150.661940896847	9
0	857	150.71478760415	8
0	863	151.359842893118	9
0	866	152.853181342394	8
0	874	153.886310603692	9
0	876	154.532724722947	10
0	877	154.561568391811	9
0	882	154.702194779746	8
0	887	154.745553456959	7
0	892	154.784076807511	6
0	896	154.855939756498	7
0	902	155.858760579122	6
0	907	156.052201655764	5
0	914	158.564670993567	4
0	919	158.892397734318	3
0	924	159.226081849505	2
0	931	160.785504150649	3
0	932	160.82053865003	2
0	938	162.766806742243	3
0	939	163.629987527704	2
0	944	164.957807740967	1
0	950	166.231285015042	2
0	951	167.006930725811	1
0	955	169.006351408493	2
0	959	169.237831655962	3
0	962	171.221118655442	2
0	968	171.619475518506	3
0	970	171.855135497101	2
0	975	172.003462523754	1
0	980	172.569796503749	0
0	984	172.950236276422	1
0	986	173.063648174635	2
0	991	174.04979436789	1
0	998	176.051251884571	2
0	999	176.238641632459	1
0	1005	176.810984367758	2
0	1006	177.067616624031	1
0	1015	178.296933101712	2
0	1017	178.403643725868	3
0	1018	178.973652137806	2
0	1024	179.488334828378	3
0	1026	179.506010923951	4
0	1027	179.632836976441	3
0	1032	181.123219434871	2
0	1036	181.586388310325	3
0	1040	182.426151076632	4
0	1041	182.555547894589	3
0	1048	183.695055377346	2
0	1052	183.758123783673	3
0	1054	183.99102958369	4
0	1056	184.578327663465	5
0	1059	186.987715201006	4
0	1065	188.228493932762	5
0	1072	190.295626550012	4
0	1078	191.926621259395	5
0	1084	193.363744075211	6
0	1085	193.749219208484	5
0	1092	194.529312848714	6
0	1094	195.072512300766	7
0	1095	195.180741510462	6
0	1100	195.8529926097	5
0	1105	195.9932621493	4
0	1109	196.16947991516	5
0	1117	198.818303756686	6
0	1118	198.888381567896	5
0	1122	200.005636256728	6
0	1124	201.36537383473	7
0	1126	201.95719067419	8
0	1128	202.616059784928	9
0	1131	203.033425879949	8
0	1135	203.153812664179	9
0	1140	204.032098022991	8
0	1144	204.704290187905	9
0	1146	205.937790926126	10
0	1149	206.251951310122	9
0	1154	206.794013318839	8
0	1158	208.519912707853	9
0	1160	209.714799997121	10
0	1162	209.886373557951	11
0	1165	213.454807889926	10
0	1170	214.919501100096	9
0	1174	215.173009584454	10
0	1180	218.110819735089	9
0	1187	219.107614985433	8
0	1193	224.818756560811	7
0	1198	225.605276493233	6
0	1203	227.608016523895	5
0	1207	228.723153919961	6
0	1210	230.11069041724	5
0	1218	231.340407473562	6
0	1222	232.153903648233	7
0	1223	232.69412664918	6
0	1229	233.623373449665	5
0	1234	233.904352827518	4
0	1244	235.075089718569	5
0	1245	235.077023325066	4
0	1256	236.801069723628	3
0	1262	237.757309951356	2
0	1267	239.054488793077	1
0	1272	242.132718343818	0
0	1276	243.022392233222	1
0	1282	246.29754534851	2
0	1284	246.724831919955	3
0	1287	248.550705488327	2
0	1291	251.290163409761	3
0	1299	253.428491863331	4
0	1303	255.507421026859	5
0	1308	258.100491310604	4
0	1312	260.593655918642	5
0	1315	261.758625337019	4
0	1322	265.956366648723	5
0	1323	266.614208828799	4
0	1329	266.857486857709	5
0	1330	266.923522414802	4
0	1335	267.859529368364	3
0	1339	268.09622640182	4
0	1343	269.349368317025	3
0	1348	270.731709330959	2
0	1352	270.888634905575	3
0	1355	271.11151098459	2
0	1359	271.184562644908	3
0	1363	272.332804484972	2
0	1369	273.017195261784	1
0	1374	273.047521891724	0
0	1380	274.705276351636	1
0	1384	274.914361299674	2
0	1388	275.37798531945	3
0	1389	275.739362869156	2
0	1393	276.889714528792	3
0	1396	277.217812822242	2
0	1402	277.71273130573	3
0	1408	279.445474527839	2
0	1413	279.868977339437	1
0	1418	282.205395238375	0
0	1422	282.280000174589	1
0	1424	282.645408197785	2
0	1427	283.20251051599	1
0	1435	284.139610805452	2
0	1436	285.62298355697	1
0	1441	286.962834374115	0
0	1447	287.208873545956	1
0	1448	287.406560254851	0
0	1452	288.123130300418	1
0	1454	288.30935083538	2
0	1457	288.635115476158	1
0	1463	290.110169251592	0
0	1469	290.215330215306	1
0	1470	291.069481221324	0
0	1486	292.629401465035	1
0	1487	292.817138354176	0
0	1498	294.121872465789	1
0	1499	294.643612647533	0
0	1515	295.809801680998	1
0	1517	296.012058755256	0
0	1528	298.393747935347	1
0	1530	299.017046823886	0
0	1572	307.52608773525	1
0	1573	307.562964070897	0
0	1588	309.957967069829	1
0	1589	310.025115442896	0
0	1597	310.676704736948	1
0	1599	310.696285278564	2
0	1600	310.772552028716	1
0	1610	312.558243626598	2
0	1612	313.558723500752	1
0	1617	314.011153917611	0
0	1630	314.768712776802	1
0	1631	314.988252907011	0
0	1653	315.725489710655	1
0	1654	316.477912571695	0
0	1660	318.150187811727	1
0	1662	319.492314261501	2
0	1667	322.673546863665	1
0	1671	323.952529541502	2
0	1676	324.484600749264	1
0	1681	324.864041686628	0
0	1699	328.752268893866	1
0	1707	329.388135680849	2
0	1709	329.445036295012	3
0	1712	329.720076582523	4
0	1713	330.590605309341	3
0	1721	331.155728054977	4
0	1725	331.858415604296	3
0	1735	333.306427365784	4
0	1737	333.997414961656	5
0	1740	334.820043644634	4
0	1747	335.795202181237	3
0	1752	336.285574559336	2
0	1757	336.420493636784	1
0	1764	336.994501083815	0
0	1790	341.072505434138	1
0	1793	341.590652532824	0
0	1819	345.173916849592	1
0	1821	345.277858695432	2
0	1823	345.801251769211	3
0	1827	345.940922526796	4
0	1831	347.084452307744	5
0	1833	347.593920114745	6
0	1836	348.205677064814	7
0	1837	349.146555482604	6
0	1846	349.934001160985	7
0	1850	350.60121434039	6
0	1856	350.700961345441	7
0	1857	351.78477442044	6
0	1862	352.313330067426	5
0	1868	352.948771513539	4
0	1874	353.095202462355	5
0	1876	353.09557233313	6
0	1878	354.157841446366	7
0	1881	355.841496387815	6
0	1886	356.436625739442	5
0	1894	357.453680292857	6
0	1895	357.647345831417	5
0	1901	359.109152381774	4
0	1906	359.232978049071	3
0	1910	360.33675553663	4
0	1914	361.686538107106	3
0	1920	362.355102382496	4
0	1922	362.693442740499	5
0	1924	363.329787677452	6
0	1925	363.438827006111	5
0	1930	365.364867581132	4
0	1934	365.4082417568	5
0	1936	365.507873966407	6
0	1939	367.379386568097	5
0	1944	368.200227925818	4
0	1951	369.507197870734	3
0	1955	369.672127292868	4
0	1957	369.896262733669	5
0	1959	370.026429443481	6
0	1968	373.143153957823	5
0	1976	374.541744826454	4
0	1983	375.189199528182	3
0	1988	375.189752801574	2
0	1998	378.303141998777	3
0	2000	378.582912275528	4
0	2002	378.984747262611	5
0	2003	379.09279358546	4
0	2009	379.326746859518	5
0	2010	379.438801831418	4
0	2016	379.485255808429	5
0	2019	379.9805203374	6
0	2020	380.145999420819	5
0	2027	381.100937679626	4
0	2034	381.743012498301	3
0	2040	382.536928110643	2
0	2045	382.688141926766	1
0	2055	384.310219793462	2
0	2057	385.117864978508	3
0	2058	385.784963919378	2
0	2064	386.551010004863	3
0	2065	386.820069710189	2
0	2072	388.281002802348	3
0	2073	388.324319575735	2
0	2079	388.66089344329	1
0	2084	388.792056198742	0
0	2092	391.276244062757	1
0	2095	394.4663670926	0
0	2101	395.066415752142	1
0	2102	395.346023200997	0
0	2106	395.589612621224	1
0	2108	396.144585003465	2
0	2111	397.434078512343	1
0	2117	399.437340542769	0
0	2123	399.467725551131	1
0	2125	400.972625317741	0
0	2141	402.543949540565	1
0	2147	403.213929722937	2
0	2148	403.305518403763	1
0	2154	404.043305677513	2
0	2156	404.378291972698	3
0	2160	404.993508295169	4
0	2162	405.456392363339	3
0	2166	405.776106584086	4
0	2168	405.848494739923	5
0	2170	406.830506294883	6
0	2175	407.86079802806	5
0	2185	408.742341908831	4
0	2191	409.045294307532	5
0	2192	409.356964574317	4
0	2196	409.744509924293	5
0	2199	410.265335304132	4
0	2205	410.677620306365	5
0	2207	411.791380995309	4
0	2215	412.847462557029	3
0	2220	413.318863452909	2
0	2225	413.636420791597	1
0	2230	414.276132480909	0
0	2242	416.211629087268	1
0	2243	416.617612584926	0
0	2261	419.134765125877	1
0	2262	419.425452453289	0
0	2284	422.110450148117	1
0	2286	422.711114624834	2
0	2291	424.218234099225	1
0	2296	424.540127272781	0
0	2314	425.778427167997	1
0	2317	427.41671172641	0
0	2332	429.19456116375	1
0	2337	431.72071705747	0
0	2366	434.180172168456	1
0	2368	434.549276944348	2
0	2374	434.965896840563	3
0	2375	436.042529435147	2
0	2381	436.106378833731	3
0	2384	437.128714602483	2
0	2389	437.93581236044	1
0	2393	437.981167573149	2
0	2401	440.096346986319	1
0	2411	440.78230388493	0
0	2425	442.252091198918	1
0	2428	443.467988841003	2
0	2430	444.000899423064	3
0	2435	444.689773605823	2
0	2442	445.360258569003	1
0	2446	447.602333637015	2
0	2448	448.114242894738	3
0	2450	448.117661564774	4
0	2453	448.420425723045	3
0	2457	449.546536589178	4
0	2463	450.454180884936	3
0	2468	450.749923012807	2
0	2472	451.968882501284	3
0	2477	452.217791814318	4
0	2479	452.28416790951	5
0	2480	452.319728033606	4
0	2485	452.729418261666	3
0	2489	452.781063301666	4
0	2495	456.016657167867	5
0	2496	456.266756344247	4
0	2500	456.515290003777	5
0	2504	457.656422748851	6
0	2506	458.098607809056	7
0	2507	458.162873994133	6
0	2511	459.189358734412	7
0	2514	459.900994616748	6
0	2520	462.064000121434	7
0	2521	462.419841581375	6
0	2525	463.170600479291	7
0	2528	464.186342795638	6
0	2533	464.92648784442	5
0	2539	466.008591051893	4
0	2545	467.283086366339	3
0	2550	467.567725114734	2
0	2554	467.653882264849	3
0	2557	469.117852513499	2
0	2563	470.292419513745	3
0	2567	471.657279470954	4
0	2568	472.027458198285	3
0	2573	472.690108987199	2
0	2579	472.850310994983	3
0	2580	473.208444743724	2
0	2584	473.373992925669	3
0	2586	473.479711870285	4
0	2588	473.702762593165	5
0	2590	473.762446741987	6
0	2592	474.022791872308	7
0	2596	474.372250555185	8
0	2597	474.380705975866	7
0	2603	475.035230716008	8
0	2605	476.264326198828	9
0	2608	477.148046653711	8
0	2612	477.43429545696	9
0	2616	478.243755072148	8
0	2621	478.403189442131	7
0	2629	479.538566553913	8
0	2630	480.275515208852	7
0	2634	480.465431691418	8
0	2638	481.219157642589	9
0	2646	484.146336556652	10
0	2648	484.452400136273	11
0	2651	485.136713856211	10
0	2655	485.656370387319	11
0	2660	488.920787367827	10
0	2665	489.806964464226	9
0	2671	492.991173522526	10
0	2672	493.170090442091	9
0	2677	494.444478002978	8
0	2682	495.030404664972	7
0	2687	496.886565869913	6
0	2694	499.759519418557	5
0	2700	500.112280885992	6
0	2701	500.250464351752	5
0	2705	500.334800458686	6
0	2711	501.827216229738	5
0	2716	502.064295983289	4
0	2725	505.366008681086	3
0	2730	506.36903074165	2
0	2734	506.37672038009	3
0	2736	506.913942079326	4
0	2743	507.712973512624	3
0	2748	511.558156462092	2
0	2754	512.416027226029	3
0	2755	512.632385009697	2
0	2764	513.774235779566	1
0	2769	514.578552272336	0
0	2773	515.473759651728	1
0	2775	516.554142407339	2
0	2782	519.699594783256	3
0	2783	519.910047571277	2
0	2788	520.07539643591	1
0	2794	521.021212711124	0
0	2802	521.28365969074	1
0	2803	522.82079232109	0
0	2828	527.45708578696	1
0	2833	528.173061273284	2
0	2836	529.994743593278	1
0	2842	531.877846124997	0
0	2861	533.186768699997	1
0	2862	533.192665901548	0
0	2876	534.295489737823	1
0	2878	534.428952950502	0
0	2894	536.340067831759	1
0	2895	536.408336663954	0
0	2902	536.708807161311	1
0	2903	536.789419792026	0
0	2912	537.520490829475	1
0	2914	538.596926416772	2
0	2918	540.209878906081	3
0	2921	540.793391738157	4
0	2924	541.360024696888	3
0	2929	541.434676195325	2
0	2935	542.953737931393	3
0	2939	544.645094241951	2
0	2945	544.742808174578	3
0	2947	544.93600079764	4
0	2950	545.645065959104	3
0	2957	546.944244539834	2
0	2962	547.569867135136	1
0	2967	547.752406214926	0
0	2973	547.811714989197	1
0	2975	547.944623742377	2
0	2978	549.034807321977	1
0	2985	549.575865544377	0
0	3001	552.547097140537	1
0	3007	557.807590080402	0
0	3039	559.956610267559	1
0	3044	562.434922313937	2
0	3046	562.68960019269	3
0	3047	562.842373325409	2
0	3056	564.183341385361	3
0	3057	564.216083955843	2
0	3065	564.851413602863	3
0	3066	567.143188351233	2
0	3072	567.206911780076	3
0	3075	567.800829525633	2
0	3081	567.825123298873	3
0	3083	568.183271640983	4
0	3087	568.454111278677	5
0	3088	568.995488402497	4
0	3093	569.43087321553	3
0	3098	569.783865232019	2
0	3102	571.655656040467	3
0	3105	572.506473918993	2
0	3110	573.1535305036	1
0	3115	573.460659997484	0
0	3119	574.972030259921	1
0	3122	575.855519739322	0
0	3128	576.634565665031	1
0	3131	577.410780936316	0
0	3137	578.344778532641	1
0	3138	578.482721407719	0
0	3142	580.001696493893	1
0	3144	580.642855774375	2
0	3146	580.954729868229	3
0	3150	582.797226396002	4
0	3155	583.415533011104	3
0	3159	583.600979543367	4
0	3161	583.876675324547	5
0	3163	584.393217220412	6
0	3165	584.77075425767	7
0	3168	586.747551098886	6
0	3174	587.829633568569	5
0	3179	587.975120737411	4
0	3185	589.6975724629	5
0	3186	589.961849636933	4
0	3196	591.80517104446	3
0	3201	592.221015533715	2
0	3206	592.606035352287	1
0	3213	593.545115324528	0
0	3221	594.66579354612	1
0	3225	595.579087249155	2
0	3226	595.658640883816	1
0	3231	595.715032401073	0
0	3243	597.235441493523	1
0	3246	597.401120701942	2
0	3248	598.076652522598	3
0	3250	598.126312398134	4
0	3251	598.681672327617	3
0	3256	599.719178318804	2
0	3260	600.491103139038	3
0	3263	602.027525413191	2
0	3268	603.539669688836	1
0	3272	603.682190130596	2
0	3274	604.014828248656	3
0	3278	604.260824419021	4
0	3279	604.91759795387	3
0	3286	607.206690594414	2
0	3290	607.229704405709	3
0	3296	608.931533366407	4
0	3299	609.728005002442	3
0	3308	613.359630355219	2
0	3314	613.79811883525	3
0	3316	614.082487730375	4
0	3321	615.6095618365	5
0	3322	616.18278981238	4
0	3327	616.31963653878	3
0	3335	616.95169032714	2
0	3340	618.361661490848	1
0	3345	620.299589271438	0
0	3353	620.926705528229	1
0	3354	621.207027702924	0
0	3362	623.357289883096	1
0	3363	624.901255177332	0
0	3377	629.235231843295	1
0	3379	630.568658761872	2
0	3381	630.618290907271	3
0	3382	631.724677794969	2
0	3388	631.733604207409	1
0	3395	632.386863254306	2
0	3396	632.460902481469	1
0	3401	632.567072965747	0
0	3414	633.361645566195	1
0	3416	634.259517516762	0
0	3429	634.523182711641	1
0	3430	634.73662544082	0
0	3454	636.722066553617	1
0	3455	637.117179834816	0
0	3479	638.365409395586	1
0	3480	638.507622511799	0
0	3497	642.862329520737	1
0	3502	646.579689866526	2
0	3505	647.675302731406	1
0	3511	648.037771415391	0
0	3527	649.620937863671	1
0	3531	650.127147853039	2
0	3533	650.890953001916	1
0	3538	651.028933641306	0
0	3547	652.360106214765	1
0	3549	653.490760112577	2
0	3553	655.840693221437	3
0	3554	656.048390927931	2
0	3559	656.150810619339	1
0	3564	657.082652193181	0
0	3571	659.261922021806	1
0	3573	659.419357907395	2
0	3574	659.553365663578	1
0	3579	659.844615115142	0
0	3587	660.540191526913	1
0	3595	662.876619777199	2
0	3596	663.375131441951	1
0	3601	663.385148533622	0
0	3612	667.137392523472	1
0	3613	667.182046818828	0
0	3624	668.939172435766	1
0	3627	669.077254596865	2
0	3628	669.47458602626	1
0	3633	670.261062636863	0
0	3664	672.737103160611	1
0	3667	674.009206246391	0
0	3673	674.055732241609	1
0	3674	674.271477288072	0
0	3680	674.396081077789	1
0	3683	675.228646258227	0
0	3689	675.477922949139	1
0	3693	675.918944345477	0
0	3705	676.441563053925	1
0	3706	677.408389694287	0
0	3725	680.397520214045	1
0	3726	680.988993430223	0
0	3767	687.082529873874	1
0	3770	688.172355887767	0
0	3778	688.960036383189	1
0	3780	689.003782715793	2
0	3782	689.435139245924	3
0	3783	690.399370532399	2
0	3789	690.625316608907	3
0	3790	691.108075679465	2
0	3797	692.127186447396	3
0	3798	692.246073896158	2
0	3804	692.260395470578	3
0	3805	692.557569583308	2
0	3816	694.133137827625	3
0	3817	694.932860207106	2
0	3822	695.66332291692	1
0	3827	695.970228215405	0
0	3833	696.139983282015	1
0	3834	696.280676306904	0
0	3840	697.21655420964	1
0	3845	702.265515831331	0
0	3867	702.952667281581	1
0	3868	703.131667810948	0
0	3890	705.59529790027	1
0	3893	705.771826071333	0
0	3899	706.990513001037	1
0	3901	708.264641481619	0
0	3943	713.443072435684	1
0	3944	713.624384069712	0
0	3953	714.369169721237	1
0	3957	715.214008406796	2
0	3959	716.271374798608	3
0	3965	718.983617305949	2
0	3970	719.309717923734	1
0	3975	719.359301468125	0
0	3998	727.610000328278	1
0	4000	728.221523408662	2
0	4004	729.725030243541	1
0	4010	730.094082622918	2
0	4012	730.150097697489	3
0	4015	730.442206688691	2
0	4026	732.946040245817	1
0	4031	733.201548247071	0
0	4045	733.838750428715	1
0	4048	734.154785480385	0
0	4059	735.144044192169	1
0	4072	740.489791289956	0
0	4094	742.295908250595	1
0	4097	742.500529621422	2
0	4098	743.899535257799	1
0	4105	744.17503824294	0
0	4123	744.696558202269	1
0	4128	746.946838717974	2
0	4132	747.654780464629	1
0	4138	748.092595481378	2
0	4140	748.261656422372	3
0	4142	748.786740014801	2
0	4148	749.356327585129	1
0	4153	749.683209941828	0
0	4159	749.741113914027	1
0	4161	750.738878398661	2
0	4162	751.536385422383	1
0	4169	752.503024049582	0
0	4203	756.890017150436	1
0	4205	757.167314189986	2
0	4206	757.603688925083	1
0	4211	758.062171468754	0
0	4245	761.64827737663	1
0	4246	761.744262068575	0
0	4277	765.558955194313	1
0	4278	766.200784457041	0
0	4284	767.147741727654	1
0	4285	767.79409398801	0
0	4296	768.618888888667	1
0	4302	771.337301126718	0
0	4341	779.308879946673	1
0	4343	780.776553846918	2
0	4347	781.733428213561	3
0	4348	781.894406850043	2
0	4353	781.966560195728	1
0	4359	782.565493493543	2
0	4362	782.875904765529	1
0	4370	783.000133011718	2
0	4371	783.137987259138	1
0	4378	784.902907094709	0
0	4426	792.271183691118	1
0	4427	792.418149995254	0
0	4449	798.743392104339	1
0	4453	799.470271457678	0
0	4477	802.213473821652	1
0	4478	802.475673045622	0
0	4492	803.942777138526	1
0	4494	804.145258835193	2
0	4507	807.639084372634	3
0	4509	808.241212652601	4
0	4513	810.353239932122	5
0	4518	811.787893053917	6
0	4522	813.096647842063	7
0	4523	813.583633020995	6
0	4530	814.348744118756	5
0	4536	815.065177849877	4
0	4543	816.372678282854	5
0	4544	817.147173515507	4
0	4549	818.072044506121	3
0	4556	818.607409766328	2
0	4561	819.56857937166	1
0	4565	819.788559905942	2
0	4569	820.819371018658	1
0	4576	821.343137927682	2
0	4577	821.68115182352	1
0	4582	821.84291726151	0
0	4609	825.692173611967	1
0	4611	826.567169481282	2
0	4612	827.29748159277	1
0	4617	827.648215824356	0
0	4621	827.989565503411	1
0	4624	829.195425794794	0
0	4633	830.098477841267	1
0	4637	832.720255630263	2
0	4639	832.805913596645	3
0	4642	834.292892572526	4
0	4648	836.033178223993	3
0	4654	837.483492749131	2
0	4660	837.846961567339	3
0	4662	838.608793756581	4
0	4663	839.963533737333	3
0	4668	841.079274316301	2
0	4673	841.656224327156	1
0	4678	842.616417410032	0
0	4686	842.922770376538	1
0	4688	843.345223500332	2
0	4690	843.788996173668	3
0	4694	846.130911720698	2
0	4699	847.01257715019	1
0	4707	847.629828677618	2
0	4708	848.29276367396	1
0	4713	848.637469532094	0
0	4766	858.074574748965	1
0	4771	859.0879105967	2
0	4772	859.205231291866	1
0	4777	859.219694903043	0
0	4797	861.031303780769	1
0	4799	861.775627729229	2
0	4805	863.881552894403	3
0	4808	865.664839087715	2
0	4813	865.676980188948	1
0	4821	866.207114893883	0
0	4834	868.325367946496	1
0	4836	870.181267508861	0
0	4843	870.283167110869	1
0	4845	870.778665994282	2
0	4846	870.949940698162	1
0	4851	871.056607732947	0
0	4863	871.441545307751	1
0	4864	872.168746853235	0
0	4899	878.912720828302	1
0	4900	879.586844540935	0
0	4924	884.036255083943	1
0	4925	884.053030424402	0
0	4934	884.408908103526	1
0	4941	885.273350894771	0
0	4947	885.518666845352	1
0	4948	885.852857096808	0
0	4955	886.418918729485	1
0	4958	886.885001571126	0
0	4972	888.873341929886	1
0	4975	889.475896184788	0
0	4996	892.54698521069	1
0	4998	892.609594084562	2
0	5000	892.612489872295	3
0	5002	892.66818318514	4
0	5004	893.585091215401	3
0	5010	894.346470667123	2
0	5015	894.655228388796	1
0	5019	894.9443945838	2
0	5021	895.032376480671	3
0	5025	896.608606291271	2
0	5029	896.863739551271	3
0	5032	897.565740651791	2
0	5038	898.424279604974	1
0	5044	898.706814314765	0
0	5068	901.250357659018	1
0	5072	903.739552919869	0
0	5098	909.783658707349	1
0	5100	910.284939027438	2
0	5102	911.574232447408	1
0	5107	913.313440512338	0
0	5118	914.018040341825	1
0	5119	914.025211436889	0
0	5139	915.64647504397	1
0	5140	915.79738394203	0
0	5160	918.43166014716	1
0	5164	921.852729805693	0
0	5183	924.862152056134	1
0	5184	925.342542340712	0
0	5190	925.700446696545	1
0	5194	926.216037892876	2
0	5196	926.809688723307	1
0	5204	926.928845554573	2
0	5208	927.514527538021	1
0	5214	927.547065523889	2
0	5217	928.554941457554	1
0	5222	928.61523556423	0
0	5235	929.208031291825	1
0	5236	929.336837343068	0
0	5242	929.350298794779	1
0	5244	929.452751758448	0
0	5258	930.854116622981	1
0	5259	931.193930049867	0
0	5297	935.234910979231	1
0	5299	935.299565025463	2
0	5301	935.875959328763	3
0	5302	936.200299776437	2
0	5309	938.059230824496	1
0	5315	938.370865075993	2
0	5318	939.377500478097	3
0	5319	939.871602782732	2
0	5327	941.553981116917	3
0	5329	942.03957615013	2
0	5334	942.758944309371	1
0	5338	942.998432242499	2
0	5340	943.680601956588	3
0	5342	944.253826111355	4
0	5345	945.872483903488	3
0	5351	946.923480531374	2
0	5357	946.993222602009	3
0	5360	947.412843143164	4
0	5362	947.982636340649	5
0	5364	948.146963684931	6
0	5365	948.200175122288	5
0	5370	948.261920691396	4
0	5375	949.917624129924	3
0	5379	950.358452287448	4
0	5382	952.129750393109	3
0	5388	952.791989199615	4
0	5390	953.679797571745	5
0	5393	954.357018356589	4
0	5399	958.570660931874	3
0	5406	958.963105918469	2
0	5410	959.46155572465	3
0	5412	960.412919323622	4
0	5415	961.20096982299	3
0	5419	961.265610475997	4
0	5424	961.962749620112	3
0	5433	962.807984697227	2
0	5438	963.627485425516	1
0	5443	964.541484465884	0
0	5456	967.222996031349	1
0	5457	967.673418497067	0
0	5468	969.593339058017	1
0	5469	969.604464823536	0
0	5485	973.44422960552	1
0	5491	975.530655660253	0
0	5513	979.834894379344	1
0	5515	980.32317124316	0
0	5526	981.768279134737	1
0	5532	985.023320222244	2
0	5534	986.384365642266	1
0	5540	986.469039519486	0
0	5547	986.925380448005	1
0	5550	987.521529004178	0
0	5567	989.457222504917	1
0	5569	990.56360920971	2
0	5570	990.637157397056	1
0	5575	990.933171503532	0
0	5595	997.354105180604	1
0	5596	997.360951465985	0
0	5616	1000.551835911857	1
0	5618	1001.321698817648	0
0	5633	1003.592206020687	1
0	5639	1005.611174361073	2
0	5640	1006.062151830773	1
0	5647	1007.36906790574	0
0	5658	1011.750995170756	1
0	5660	1011.903350397262	2
0	5664	1012.684889685382	3
0	5665	1013.045874819179	2
0	5671	1013.164286158728	3
0	5673	1013.466210819239	2
0	5681	1015.624534940509	3
0	5684	1016.281979628442	2
0	5690	1016.570805248142	3
0	5695	1016.976011214128	4
0	5696	1017.075562263742	3
0	5702	1017.079597955754	4
0	5703	1017.374082358971	3
0	5707	1018.482661172908	4
0	5713	1019.420034836155	5
0	5714	1019.72427965151	4
0	5720	1020.971414164374	3
0	5729	1022.583275971941	4
0	5730	1022.761075527212	3
0	5736	1023.628441753954	2
0	5742	1024.181208211356	3
0	5744	1025.513127480589	4
0	5746	1026.760807883614	5
0	5748	1026.856485525314	6
0	5749	1027.884676724157	5
0	5755	1028.107755135263	6
0	5756	1029.799716833782	5
0	5761	1029.842038019598	4
0	5766	1030.351117991771	3
0	5772	1032.822273145503	4
0	5774	1033.042542975881	5
0	5775	1033.392346972614	4
0	5779	1033.724435758665	5
0	5781	1034.109452876575	6
0	5783	1035.155872905722	7
0	5787	1036.755739188134	8
0	5791	1036.870316919951	9
0	5792	1037.114810629558	8
0	5798	1038.016860664562	9
0	5799	1038.740558345474	8
0	5804	1039.220835076521	7
0	5809	1039.919051774037	6
0	5816	1040.201084363718	5
0	5820	1040.283557860717	6
0	5822	1041.615973796141	7
0	5828	1045.795370645325	8
0	5829	1046.087671089717	7
0	5834	1046.806905648831	6
0	5842	1048.919614315773	7
0	5843	1048.969331412119	6
0	5848	1049.253664158238	5
0	5855	1051.268951805198	4
0	5862	1051.612103078492	5
0	5866	1052.396075177244	6
0	5868	1052.49388280761	7
0	5869	1052.691476519234	6
0	5874	1052.882799967513	5
0	5879	1053.099152514478	4
0	5884	1054.039898245813	3
0	5889	1054.712454737839	2
0	5897	1056.853429875924	3
0	5902	1060.683039089487	2
0	5909	1061.815255668082	1
0	5914	1066.349120385325	0
0	5918	1066.721729885033	1
0	5921	1066.869441234814	0
0	5925	1068.431802486873	1
0	5928	1071.561979818059	0
0	5953	1074.693706868524	1
0	5960	1076.70990746436	0
0	5971	1077.266048289089	1
0	5974	1079.38025229692	0
0	5981	1081.663951755233	1
0	5982	1081.837037501326	0
0	5991	1082.897696660353	1
0	5992	1083.033672481465	0
0	6016	1085.123687279994	1
0	6018	1085.616460536629	0
0	6043	1087.552318845679	1
0	6048	1088.705638916547	2
0	6049	1088.767722204184	1
0	6054	1089.068967409948	0
0	6065	1089.439019899702	1
0	6068	1090.946082939909	2
0	6071	1091.259106507735	1
0	6079	1093.24207880983	2
0	6081	1094.017076692812	3
0	6085	1094.841580560568	2
0	6092	1095.302727017006	3
0	6093	1095.908180511496	2
0	6100	1097.173915250288	1
0	6106	1097.500775638573	2
0	6107	1097.904992235198	1
0	6112	1098.0330465311	0
0	6145	1101.757082337919	1
0	6148	1101.994745536575	2
0	6149	1102.391649883943	1
0	6155	1102.758471980671	2
0	6158	1103.180758515927	3
0	6159	1103.338438602277	2
0	6166	1103.557002546569	3
0	6168	1103.905167450813	4
0	6172	1104.581517114995	5
0	6174	1104.894822051724	6
0	6175	1105.482293052267	5
0	6180	1106.053280412844	4
0	6186	1107.475874772205	5
0	6188	1108.028748120214	6
0	6192	1109.658689204737	5
0	6197	1109.852701124503	4
0	6203	1110.848623441414	3
0	6210	1110.992980974897	2
0	6215	1111.504720881756	1
0	6219	1112.05555231014	2
0	6221	1112.534472087791	3
0	6223	1112.822671683637	4
0	6227	1114.548048266651	5
0	6230	1114.898135523076	4
0	6234	1115.180587950453	5
0	6236	1115.316606523928	6
0	6240	1115.975582483275	7
0	6241	1116.100322094121	6
0	6245	1116.394025292013	7
0	6248	1116.996178423363	6
0	6253	1117.792232947026	5
0	6259	1118.974942085943	6
0	6260	1119.000067209089	5
0	6264	1120.207533604829	6
0	6268	1121.450148911056	7
0	6270	1121.888071194295	8
0	6272	1122.591905707965	7
0	6276	1123.271208531935	8
0	6279	1123.596600542755	7
0	6284	1125.594763226261	6
0	6289	1126.642303788595	5
0	6298	1130.377233117099	4
0	6305	1131.188432253576	3
0	6310	1132.893446951259	2
0	6314	1133.013769332594	3
0	6318	1133.934379741781	4
0	6319	1135.037498229951	3
0	6326	1137.801769028681	2
0	6332	1138.349372526964	3
0	6333	1138.600480857907	2
0	6338	1138.718265162941	1
0	6343	1139.995774312855	0
0	6347	1140.067029570989	1
0	6352	1141.529670894778	0
0	6366	1145.243162761426	1
0	6367	1145.632164621897	0
0	6390	1146.696922128246	1
0	6391	1147.125843896096	0
0	6412	1151.976641789978	1
0	6415	1153.059889773775	2
0	6416	1153.232335446134	1
0	6422	1153.330176108755	0
0	6435	1154.882872488234	1
0	6437	1155.360175364144	2
0	6439	1155.437160182992	1
0	6445	1155.919040863499	0
0	6451	1156.058517662654	1
0	6453	1156.297549225791	2
0	6456	1156.515098392909	1
0	6463	1157.482897975648	0
0	6476	1159.035439757741	1
0	6479	1160.01601104164	0
0	6485	1160.223315696287	1
0	6486	1160.326845704251	0
0	6532	1167.026477935624	1
0	6535	1169.007632207438	0
0	6542	1170.440458438499	1
0	6543	1171.036845733513	0
0	6554	1173.032365827773	1
0	6557	1173.79400581489	0
0	6578	1179.044851547629	1
0	6579	1179.357092041005	0
0	6615	1184.329960164045	1
0	6617	1184.621793552737	2
0	6618	1184.903806878758	1
0	6623	1184.977344190175	0
0	6675	1199.166931797331	1
0	6684	1201.28885517136	0
0	6702	1202.305396766184	1
0	6704	1202.913322927575	0
0	6717	1203.999076206241	1
0	6720	1204.15822794378	2
0	6721	1204.253522372552	1
0	6727	1204.258850022378	2
0	6728	1205.413150961683	1
0	6736	1206.099498287962	2
0	6738	1206.386764701043	1
0	6746	1206.692599711256	2
0	6753	1207.390067848449	3
0	6756	1207.723277048015	2
0	6761	1207.784291309021	1
0	6771	1208.444947935303	2
0	6772	1208.82302681561	1
0	6778	1209.189324381612	2
0	6780	1209.196432627025	1
0	6786	1212.469989915677	2
0	6787	1212.752159485304	1
0	6791	1212.824890323557	2
0	6793	1213.045740839109	3
0	6796	1214.290582390063	2
0	6802	1215.322972590232	3
0	6805	1215.546017284562	4
0	6807	1216.133266826199	5
0	6808	1216.404763524363	4
0	6815	1217.368655230594	3
0	6823	1217.761409619079	4
0	6825	1217.77671255108	5
0	6826	1217.868715146719	4
0	6831	1218.102790478401	3
0	6836	1218.117492581224	2
0	6841	1218.253712835644	1
0	6846	1219.182311425197	0
0	6850	1219.719624066096	1
0	6854	1221.139149457093	2
0	6856	1221.479833263059	3
0	6860	1222.138879592179	4
0	6863	1222.322700867501	5
0	6864	1222.35710679171	4
0	6870	1222.400520904936	5
0	6872	1223.482943892928	6
0	6873	1223.561156583385	5
0	6879	1224.050467430227	6
0	6881	1225.467929253706	5
0	6887	1225.543397127628	6
0	6888	1225.559591474635	5
0	6896	1226.420788134185	6
0	6897	1226.546189486098	5
0	6902	1228.436611266693	4
0	6907	1229.304174819141	3
0	6912	1230.554333245496	2
0	6918	1231.017601999009	3
0	6921	1231.936975567334	2
0	6927	1232.075783942353	3
0	6928	1232.337782892916	2
0	6932	1234.268297412784	3
0	6939	1237.383445250142	2
0	6948	1239.154503589063	1
0	6953	1239.739726830932	0
0	6971	1240.827773020816	1
0	6973	1241.534530121205	2
0	6974	1242.163518769806	1
0	6978	1242.188346654534	2
0	6984	1243.946865304961	3
0	6985	1244.404822072663	2
0	6991	1244.456109700086	3
0	6992	1244.991422654865	2
0	7001	1248.163951592062	1
0	7005	1248.349931967339	2
0	7008	1249.486158687022	1
0	7015	1250.170899490021	2
0	7016	1250.538321760989	1
0	7021	1250.826363840207	0
0	7027	1251.172296917831	1
0	7029	1251.791642102581	2
0	7032	1252.845949421948	3
0	7033	1252.861947352404	2
0	7039	1253.585015307434	3
0	7042	1254.098886576194	2
0	7046	1254.35459036018	3
0	7050	1256.769030830138	4
0	7051	1259.024160801904	3
0	7057	1259.670036706469	2
0	7062	1260.25967617884	1
0	7071	1261.908072970345	2
0	7074	1262.230003671025	1
0	7080	1262.921747802728	2
0	7081	1263.653896371028	1
0	7086	1265.053874920657	0
0	7092	1265.862427536997	1
0	7093	1266.548660799154	0
0	7099	1267.544663675979	1
0	7100	1267.552139518703	0
0	7104	1268.134771702106	1
0	7106	1269.333176388469	2
0	7111	1269.761231680847	1
0	7116	1270.815851270819	0
0	7122	1271.91198700935	1
0	7123	1272.115338353339	0
0	7127	1273.398734937691	1
0	7130	1274.134754307872	0
0	7134	1274.241902183837	1
0	7141	1276.613175569473	0
0	7155	1278.380216614346	1
0	7157	1278.678166309239	0
0	7181	1280.809862577374	1
0	7183	1280.818672006184	2
0	7185	1280.861010729578	3
0	7188	1281.33524765268	2
0	7194	1281.397721277154	3
0	7196	1282.176093567495	2
0	7201	1282.270840678587	1
0	7206	1282.69510213278	0
0	7213	1283.764878090269	1
0	7214	1284.091816457008	0
0	7221	1284.538662081714	1
0	7225	1284.8391616801	0
0	7231	1284.9932796781	1
0	7232	1285.402317354972	0
0	7240	1285.577117370875	1
0	7241	1285.862065494097	0
0	7247	1286.00418498287	1
0	7251	1287.10120567604	2
0	7252	1287.691536357098	1
0	7258	1288.008605433541	2
0	7259	1289.041938513761	1
0	7264	1290.018163236213	0
0	7270	1290.541805942014	1
0	7273	1291.549867088004	0
0	7281	1293.245432037953	1
0	7282	1293.406669233568	0
0	7309	1296.340214083812	1
0	7311	1296.54978901984	2
0	7315	1299.166491556199	3
0	7319	1299.912168009507	4
0	7321	1300.509214621639	5
0	7326	1301.33745396743	4
0	7336	1303.374219270166	5
0	7337	1303.502229413177	4
0	7342	1304.599241711731	3
0	7346	1305.345899637894	4
0	7348	1305.414596532963	5
0	7350	1305.747967827847	6
0	7353	1306.014781092005	5
0	7359	1306.714610940959	6
0	7361	1307.74657999409	5
0	7369	1308.680679145141	6
0	7371	1309.188280672275	7
0	7376	1309.637992994435	6
0	7381	1310.586134580013	5
0	7386	1311.997082833898	4
0	7392	1312.588872139998	5
0	7394	1313.274048160986	6
0	7396	1313.481428998317	7
0	7398	1313.690256212034	8
0	7401	1314.038281296329	7
0	7407	1314.146412192958	8
0	7411	1316.794852321787	7
0	7416	1317.34593475654	6
0	7422	1317.599489655452	5
0	7428	1317.854956619272	6
0	7430	1318.707415615181	5
0	7436	1318.813482282671	6
0	7438	1320.043858719379	5
0	7443	1320.82643032093	4
0	7448	1321.04254334469	3
0	7452	1321.303429160577	4
0	7455	1322.429424134092	3
0	7459	1322.619147482711	4
0	7461	1324.80991294798	5
0	7463	1324.8540053089	6
0	7466	1325.619757313344	5
0	7473	1325.980659091574	4
0	7477	1325.989469199002	5
0	7480	1326.597469708949	4
0	7485	1329.73909704396	3
0	7492	1332.4088087008	2
0	7498	1332.739807892815	3
0	7499	1334.457821174142	2
0	7503	1334.777423870995	3
0	7507	1337.060484662149	4
0	7513	1338.202053985217	5
0	7514	1338.566305842291	4
0	7522	1340.134809913641	3
0	7529	1341.005602892617	4
0	7530	1341.592873944278	3
0	7535	1342.200277332548	2
0	7539	1342.382558396021	3
0	7542	1344.455211554261	2
0	7546	1344.654617637472	3
0	7548	1344.950306909103	4
0	7551	1346.033429183139	3
0	7557	1346.254246922666	4
0	7558	1346.256093739854	3
0	7564	1347.382963922805	4
0	7566	1349.112661243725	5
0	7568	1349.476686411666	6
0	7570	1349.844297366089	7
0	7574	1355.10645664129	8
0	7576	1355.374731536505	9
0	7579	1355.81909177593	8
0	7585	1357.118660286147	9
0	7586	1357.449218804251	8
0	7596	1358.056206151993	9
0	7598	1358.654996062476	10
0	7599	1358.77066436768	9
0	7603	1359.107674397791	10
0	7605	1360.319769454919	11
0	7610	1361.966587011445	10
0	7620	1364.517497962955	9
0	7628	1365.420395559922	8
0	7634	1366.919787392545	9
0	7638	1368.13908202595	10
0	7640	1368.547710402022	11
0	7641	1369.294389709178	10
0	7646	1369.421675143217	9
0	7651	1370.009488312797	8
0	7656	1370.626104084107	7
0	7662	1371.635088262046	6
0	7667	1372.041352339555	5
0	7671	1372.072884094786	6
0	7675	1372.982374163715	7
0	7676	1373.009875393234	6
0	7684	1374.080207272579	7
0	7685	1375.379510496528	6
0	7691	1376.981049037543	7
0	7692	1377.258039831075	6
0	7697	1382.666092734152	5
0	7702	1384.372273474109	4
0	7707	1386.02985478543	3
0	7712	1389.431862348585	2
0	7719	1391.41620749168	1
0	7724	1392.373234745797	0
0	7742	1393.819779151939	1
0	7745	1394.398159955836	2
0	7746	1394.493431020966	1
0	7751	1394.545265191256	0
0	7767	1396.007816010648	1
0	7773	1397.350433951212	0
0	7782	1399.013074421263	1
0	7783	1399.189047247689	0
0	7796	1401.538046305676	1
0	7797	1402.199579078611	0
0	7871	1415.411814272194	1
0	7874	1416.458362438926	0
0	7889	1420.601017825412	1
0	7890	1421.094093657541	0
0	7910	1423.184482077835	1
0	7915	1424.432060760859	0
0	7923	1425.250327545482	1
0	7924	1425.27411669274	0
0	7945	1428.533715763765	1
0	7947	1428.598570621647	2
0	7950	1429.964955095627	1
0	7955	1430.098128784934	0
0	7961	1431.498551425123	1
0	7964	1432.754286203718	0
0	8009	1437.238396917142	1
0	8013	1439.292294817025	0
0	8027	1440.22657370182	1
0	8029	1441.054592096775	2
0	8032	1441.969517814002	1
0	8037	1441.974524880417	0
0	8043	1442.005214387407	1
0	8045	1442.455378693577	0
0	8053	1442.830460449355	1
0	8055	1443.142166960441	2
0	8060	1445.000517949266	3
0	8061	1445.109495876805	2
0	8068	1445.172100203434	3
0	8070	1446.779749398493	2
0	8075	1447.03421966694	1
0	8082	1447.770832318006	2
0	8083	1448.133374587436	1
0	8088	1448.78987999186	0
0	8092	1450.495948827783	1
0	8095	1450.993647209532	0
0	8103	1451.881398186611	1
0	8104	1451.896097599438	0
0	8108	1453.242749445412	1
0	8112	1453.528742866604	2
0	8113	1453.856426539734	1
0	8117	1453.890320046504	2
0	8119	1454.98211156336	3
0	8125	1456.158050372691	4
0	8127	1456.744142721821	5
0	8128	1457.08860569257	4
0	8135	1458.62392432482	3
0	8141	1458.868776024123	2
0	8148	1459.639715401998	3
0	8149	1460.471399013319	2
0	8155	1460.898310542685	1
0	8160	1461.527104014234	0
0	8183	1464.256147002755	1
0	8185	1465.079153802415	2
0	8188	1465.349584318831	1
0	8192	1465.39095314591	2
0	8197	1466.43338958896	1
0	8202	1466.505613020003	0
0	8208	1466.903851415378	1
0	8209	1467.025244611462	0
0	8213	1467.154986986131	1
0	8215	1467.680133528076	2
0	8220	1470.147244950075	3
0	8221	1470.632910714201	2
0	8226	1470.844578846678	1
0	8235	1472.748932640903	2
0	8237	1473.658838615381	3
0	8242	1475.162995826513	2
0	8247	1475.446884988105	1
0	8252	1475.592577257445	0
0	8263	1475.611182562558	1
0	8265	1476.365158052977	0
0	8276	1477.039253526948	1
0	8278	1477.414147375046	0
0	8285	1479.535151007968	1
0	8288	1481.293851615452	0
0	8294	1481.327772587882	1
0	8295	1481.331386063169	0
0	8311	1482.344993606528	1
0	8313	1482.35061550186	2
0	8314	1482.932006936956	1
0	8318	1483.514079479921	2
0	8322	1486.830242905873	3
0	8323	1487.61385179171	2
0	8331	1492.400363454568	1
0	8336	1492.519801481416	0
0	8343	1493.136723923711	1
0	8345	1493.363409432412	0
0	8382	1497.50022742001	1
0	8386	1497.769800302424	2
0	8388	1499.183499634079	3
0	8389	1499.261544342711	2
0	8394	1499.325816956877	1
0	8399	1499.633380053726	0
0	8424	1507.957341632082	1
0	8426	1508.57524111298	0
0	8433	1508.795694663053	1
0	8435	1509.020906626685	2
0	8436	1509.529697666596	1
0	8442	1510.520484814421	2
0	8445	1512.597386284234	1
0	8453	1513.229134304363	0
0	8457	1513.25597133905	1
0	8459	1513.823762504808	2
0	8463	1515.499340979005	3
0	8464	1515.583591417194	2
0	8471	1518.182359011177	1
0	8476	1520.004445476701	0
0	8491	1523.689352010578	1
0	8492	1523.900188422259	0
0	8505	1524.466673057459	1
0	8508	1524.926435364232	2
0	8509	1525.518932743308	1
0	8514	1525.755826186997	0
0	8520	1525.858069214117	1
0	8523	1526.992924100751	0
0	8529	1527.526756137367	1
0	8530	1527.631560069054	0
0	8540	1529.932098103533	1
0	8541	1530.5037604796	0
0	8557	1531.306919995892	1
0	8559	1532.446628049083	0
0	8567	1532.560601513069	1
0	8572	1535.795641001088	0
0	8588	1537.258540936376	1
0	8589	1537.544665714466	0
0	8595	1537.554896872228	1
0	8598	1538.409154588158	2
0	8599	1538.475601021252	1
0	8604	1538.804899892528	0
0	8610	1539.473697282302	1
0	8613	1539.577327126633	0
0	8617	1539.772383293306	1
0	8622	1540.24748515926	2
0	8624	1540.258359900709	3
0	8625	1540.380271578194	2
0	8630	1540.934381290442	1
0	8636	1542.098503285621	2
0	8637	1542.441684131545	1
0	8646	1543.048081123004	2
0	8648	1543.356712607367	1
0	8653	1544.31529132902	0
0	8679	1546.997971128294	1
0	8681	1548.086509169495	2
0	8683	1549.147760695123	1
0	8690	1550.580621636322	0
0	8694	1550.694439527156	1
0	8696	1551.070424689677	2
0	8699	1551.512641429183	1
0	8706	1553.23776921599	0
0	8747	1564.303556610501	1
0	8749	1564.424381609814	2
0	8750	1565.257647508451	1
0	8756	1566.297420313719	0
0	8765	1568.02269177325	1
0	8767	1568.361225461418	2
0	8771	1570.158469030629	1
0	8778	1570.740685540926	0
0	8799	1572.966951778313	1
0	8800	1573.008327042517	0
0	8829	1574.619747654351	1
0	8832	1575.868100044066	0
0	8852	1580.048222837879	1
0	8853	1580.101735870036	0
0	8902	1586.681236899286	1
0	8905	1587.903665890906	0
0	8930	1592.439895445559	1
0	8934	1593.834407529699	2
0	8936	1593.892696970803	3
0	8938	1594.968912503542	4
0	8942	1595.435381153138	5
0	8943	1596.824559666541	4
0	8949	1597.60348455403	3
0	8957	1598.055394259031	4
0	8961	1599.854150420097	3
0	8966	1599.955369660624	2
0	8972	1600.045055727777	3
0	8973	1600.122819600716	2
0	8980	1600.718323295984	1
0	8985	1601.266956889208	0
0	9010	1605.475465028568	1
0	9012	1605.517765283377	2
0	9014	1606.096556857153	1
0	9019	1606.28414510366	0
0	9028	1607.210445765639	1
0	9032	1607.693753661666	0
0	9045	1610.92156428777	1
0	9047	1611.004635712042	2
0	9056	1614.293686708471	3
0	9057	1614.326612028437	2
0	9063	1614.435860492605	3
0	9064	1614.642892151776	2
0	9070	1614.773281220139	3
0	9075	1615.399870903852	4
0	9076	1615.540660437279	3
0	9081	1616.294094524911	2
0	9085	1616.405682106984	3
0	9087	1616.988254325567	4
0	9089	1618.514448731904	5
0	9091	1619.985675431808	6
0	9094	1620.782632158637	5
0	9100	1621.993197303097	4
0	9106	1622.616352849517	5
0	9110	1622.930546912133	4
0	9114	1624.304212543084	5
0	9117	1625.074984633933	4
0	9122	1626.668312317424	3
0	9126	1626.785354488553	4
0	9129	1627.016223279654	3
0	9135	1628.677349677141	4
0	9137	1629.257728550964	5
0	9140	1629.590782903785	4
0	9145	1629.869562371025	3
0	9149	1630.49212366651	4
0	9156	1632.821943016094	3
0	9162	1633.67805012281	4
0	9163	1633.952455065927	3
0	9169	1635.004938874055	2
0	9176	1636.522861284625	3
0	9177	1638.324592722132	2
0	9183	1638.533412073092	3
0	9184	1640.61171757756	2
0	9188	1642.228357048538	3
0	9192	1643.56834714005	4
0	9193	1643.963426528199	3
0	9200	1645.883373938496	4
0	9203	1647.246660828612	3
0	9208	1647.419169089696	2
0	9213	1648.100941570368	1
0	9219	1648.399565304495	2
0	9220	1648.769953274912	1
0	9227	1649.407319098782	0
0	9239	1652.47822626509	1
0	9241	1652.90642918965	2
0	9244	1654.184939666862	1
0	9248	1654.950522627814	2
0	9250	1655.022288262815	3
0	9256	1655.956235980484	4
0	9257	1656.276284204699	3
0	9263	1657.479006651888	2
0	9270	1657.985492879221	1
0	9276	1659.321055661493	2
0	9278	1659.478767649753	3
0	9280	1660.506150297454	4
0	9281	1661.884207665331	3
0	9287	1662.564951997856	2
0	9294	1662.780353373826	1
0	9306	1664.624262746246	0
0	9312	1664.683454666478	1
0	9313	1664.736477940436	0
0	9325	1666.650267938618	1
0	9327	1666.804048670471	2
0	9329	1667.557406417896	3
0	9331	1669.149444213553	2
0	9336	1669.201788291011	1
0	9342	1669.462090189535	2
0	9343	1669.497237614631	1
0	9351	1671.068690219637	2
0	9353	1671.899859466918	3
0	9356	1673.669255216009	2
0	9362	1674.706102831581	3
0	9363	1674.926316588793	2
0	9368	1677.486708885164	1
0	9372	1677.581392921691	2
0	9374	1678.37498764952	3
0	9378	1679.448201773723	4
0	9379	1680.184810978058	3
0	9388	1683.290202521969	4
0	9392	1683.853497195394	5
0	9393	1684.765779381024	4
0	9400	1685.35411524884	3
0	9409	1688.207374129388	2
0	9413	1689.38493578514	3
0	9415	1689.956021750132	4
0	9418	1691.026598889969	3
0	9426	1692.128991741243	4
0	9429	1692.784168330137	3
0	9433	1694.077970307772	4
0	9436	1694.603736800412	3
0	9446	1696.725977030963	4
0	9447	1696.971440672777	3
0	9453	1698.114682002812	2
0	9458	1698.575626747786	1
0	9464	1699.283770938786	2
0	9467	1699.478926677065	1
0	9471	1700.18059439576	2
0	9479	1701.511752042985	3
0	9481	1702.081733960507	2
0	9486	1702.385279229679	1
0	9493	1703.379196829963	0
0	9522	1709.891752417623	1
0	9523	1710.252830118149	0
0	9534	1710.584846011801	1
0	9535	1710.75519650333	0
0	9541	1710.898340818559	1
0	9542	1711.293122416717	0
0	9569	1717.419520288677	1
0	9571	1719.765796246522	2
0	9574	1720.966634301978	1
0	9578	1721.550162214295	2
0	9583	1722.983640149875	1
0	9587	1723.533557665123	2
0	9591	1726.135675035321	3
0	9592	1727.255398646116	2
0	9598	1728.890467708711	3
0	9600	1732.426059125096	4
0	9601	1733.011706388866	3
0	9605	1735.528032505301	4
0	9611	1740.723499876795	3
0	9616	1741.572323672317	2
0	9622	1743.350073683474	3
0	9625	1745.09013106157	2
0	9631	1747.277162777281	3
0	9632	1747.314363009459	2
0	9637	1747.480361875237	1
0	9641	1748.078221600169	2
0	9646	1749.895571573825	1
0	9652	1753.165133163705	2
0	9655	1753.353381636547	1
0	9661	1754.542955907739	0
0	9667	1754.581085266013	1
0	9668	1754.842739652201	0
0	9691	1760.591409954291	1
0	9692	1760.668517885876	0
0	9698	1760.902471206502	1
0	9699	1761.146772523755	0
0	9722	1763.180912941953	1
0	9723	1763.18430304775	0
0	9729	1763.505325032335	1
0	9732	1763.726627397677	2
0	9734	1763.750349173898	3
0	9739	1763.886650263312	4
0	9742	1764.754617776167	3
0	9748	1765.843727947427	2
0	9753	1766.565185406621	1
0	9757	1766.90002964302	2
0	9759	1767.16602839805	3
0	9763	1768.345890701534	4
0	9764	1768.914557934045	3
0	9768	1769.573431189697	4
0	9776	1770.761109041429	3
0	9783	1771.323860283309	2
0	9788	1771.442628365069	1
0	9795	1771.959238094602	0
0	9802	1773.624196177157	1
0	9805	1773.999208344687	0
0	9811	1774.00596539441	1
0	9813	1774.126913369529	2
0	9814	1774.178570419422	1
0	9820	1775.011557137871	2
0	9823	1776.037613041716	1
0	9828	1776.90925950907	0
0	9853	1779.953667160704	1
0	9855	1781.539603831228	0
0	9868	1782.267565143479	1
0	9869	1782.349600733768	0
0	9890	1785.350005994859	1
0	9891	1785.492134929627	0
0	9900	1787.445167663365	1
0	9904	1788.335313029719	2
0	9906	1788.630983324408	3
0	9907	1789.144812018105	2
0	9912	1789.252276985239	1
0	9917	1790.281109856742	0
0	9925	1791.150534450506	1
0	9927	1791.807018948568	0
0	9934	1792.64728865902	1
0	9936	1792.91725183079	0
0	9947	1793.628481592656	1
0	9951	1795.874661632594	2
0	9952	1796.231922060125	1
0	9958	1796.877665668282	2
0	9962	1798.380833339989	1
0	9967	1798.416114687655	0
0	9980	1799.537216893164	1
0	9982	1800.055319889848	2
0	9983	1801.161469517309	1
0	9990	1802.302685489452	0
0	10003	1802.715886790879	1
0	10007	1803.73331181924	2
0	10008	1803.870580652823	1
0	10013	1804.416279316604	0
0	10033	1808.654093468747	1
0	10037	1809.215285203165	2
0	10048	1813.986529366062	3
0	10049	1814.017646306758	2
0	10054	1814.188702436997	1
0	10061	1815.787743957258	0
0	10078	1816.999439134084	1
0	10082	1817.280854188427	0
0	10108	1818.330172556397	1
0	10113	1819.11018710492	0
0	10120	1821.685726043684	1
0	10124	1822.688927269577	2
0	10126	1822.824162410571	3
0	10127	1823.441636555719	2
0	10134	1823.66487385318	1
0	10140	1823.914347518735	0
0	10169	1827.675851379979	1
0	10170	1827.879981094063	0
0	10186	1829.392212783635	1
0	10189	1830.202468784972	2
0	10190	1830.744249665629	1
0	10198	1831.045658435271	2
0	10201	1831.543020674471	1
0	10207	1834.210322318705	0
0	10220	1837.410815138813	1
0	10225	1838.179523341606	2
0	10227	1838.911263302438	1
0	10236	1839.504469926182	2
0	10237	1839.612149875633	1
0	10242	1840.881338764406	0
0	10277	1844.484341543164	1
0	10278	1844.677908255655	0
0	10292	1848.84748196421	1
0	10293	1849.164261070826	0
0	10307	1850.984334000205	1
0	10309	1851.009402074679	2
0	10310	1851.73992952337	1
0	10318	1853.170560438988	2
0	10319	1853.211249058099	1
0	10325	1853.512471847359	2
0	10327	1854.30175900293	1
0	10333	1854.858138065402	2
0	10334	1855.15165279924	1
0	10343	1856.965699942097	2
0	10345	1857.276163897082	3
0	10346	1858.525986294254	2
0	10351	1859.55071141913	1
0	10360	1860.342924875715	0
0	10379	1862.366768071635	1
0	10382	1862.750527514299	0
0	10399	1863.901978106966	1
0	10401	1864.975171341661	2
0	10402	1865.312147946087	1
0	10408	1865.606342110282	2
0	10411	1866.002466181806	3
0	10413	1866.462321856479	4
0	10414	1866.734569405789	3
0	10419	1867.432855774251	2
0	10423	1868.628044451692	3
0	10425	1869.033207466342	4
0	10430	1871.096649851545	3
0	10438	1872.377941284461	4
0	10439	1874.081543160453	3
0	10444	1874.711080248765	2
0	10449	1875.248147675044	1
0	10455	1875.776511955752	0
0	10468	1876.172321859082	1
0	10472	1876.970334012445	2
0	10475	1877.130341335164	1
0	10482	1877.589356589159	0
0	10486	1879.001123102911	1
0	10489	1881.25210471437	0
0	10510	1883.075423777213	1
0	10511	1883.316524351474	0
0	10535	1886.574319749962	1
0	10537	1886.811391214818	0
0	10575	1892.600008889866	1
0	10577	1893.410052254773	2
0	10582	1894.125693404804	1
0	10587	1894.489797523736	0
0	10601	1896.791304143517	1
0	10608	1898.790142486396	0
0	10619	1901.13303661054	1
0	10620	1901.728872536349	0
0	10631	1901.926024594657	1
0	10633	1901.944936064256	2
0	10634	1902.202225452092	1
0	10639	1903.504408963772	0
0	10668	1908.285330809468	1
0	10670	1908.369642716577	2
0	10673	1908.971291139962	3
0	10677	1909.584867022828	2
0	10682	1909.731197690653	1
0	10690	1910.736602745193	2
0	10694	1911.309259391163	1
0	10701	1912.251909719985	2
0	10707	1916.036765343728	1
0	10713	1916.227184033136	2
0	10717	1916.798099965341	1
0	10722	1917.02814976317	0
0	10748	1919.34972575285	1
0	10750	1921.519671716851	0
0	10767	1923.034362990743	1
0	10768	1923.334313524207	0
0	10775	1923.914981164599	1
0	10777	1925.019749057402	2
0	10778	1925.475375058759	1
0	10784	1926.337923787246	2
0	10789	1928.792197963791	3
0	10790	1928.821899487038	2
0	10797	1930.447908816387	3
0	10798	1930.960384278486	2
0	10804	1931.212559608246	1
0	10810	1931.372170290937	0
0	10822	1931.54471760904	1
0	10824	1931.774838224702	2
0	10827	1931.932668764279	1
0	10834	1932.796011939736	2
0	10838	1934.488185744072	3
0	10839	1935.178917374961	2
0	10845	1935.834349468292	3
0	10846	1935.891737771948	2
0	10851	1936.254701536744	1
0	10859	1937.085318492085	2
0	10862	1938.928452997415	1
0	10866	1939.526188092829	2
0	10868	1939.736962112134	3
0	10875	1941.939759828184	2
0	10881	1943.018289693554	3
0	10884	1943.777561110252	2
0	10891	1944.315031718448	3
0	10892	1944.423860643292	2
0	10898	1945.259871014196	1
0	10903	1946.275990712629	0
0	10907	1946.355315185278	1
0	10909	1946.710865926544	2
0	10911	1947.320645117118	3
0	10913	1947.95109145945	4
0	10915	1950.263028216171	5
0	10917	1950.658993281997	6
0	10921	1951.738727227306	7
0	10926	1953.071683603092	8
0	10928	1954.006985346385	9
0	10930	1954.973923270472	10
0	10931	1955.201724083207	9
0	10936	1955.218534306403	8
0	10940	1955.50357638889	9
0	10945	1957.187657183755	8
0	10949	1958.232045874987	9
0	10953	1958.920196460767	10
0	10954	1960.661163333242	9
0	10963	1962.825821376897	8
0	10969	1963.650770817981	9
0	10970	1963.712138972094	8
0	10975	1964.559955459426	7
0	10981	1965.218274091402	8
0	10983	1965.583903911924	9
0	10987	1966.42747146783	8
0	10993	1967.153532256616	9
0	10994	1967.176683455979	8
0	10999	1970.703932322355	7
0	11006	1971.601167121846	6
0	11011	1971.793924627186	5
0	11017	1971.889767711538	6
0	11019	1972.56869001885	7
0	11022	1974.623840515476	6
0	11028	1977.204792034953	5
0	11033	1977.361809828107	4
0	11040	1978.74520400518	3
0	11046	1979.990495544756	2
0	11053	1980.352422361297	3
0	11054	1980.639747407961	2
0	11059	1980.65138312017	1
0	11064	1980.909667249497	0
0	11080	1982.388197005537	1
0	11082	1982.755763151769	0
0	11086	1984.073565871943	1
0	11091	1984.374128708125	0
0	11095	1984.527927538225	1
0	11100	1985.399015319253	2
0	11102	1985.44881686985	3
0	11104	1985.561007154726	4
0	11107	1986.566739902222	3
0	11112	1986.777227731298	2
0	11117	1987.145315801726	1
0	11121	1987.455097652182	2
0	11124	1988.427809590211	1
0	11129	1989.076689630547	0
0	11133	1989.540359782249	1
0	11135	1990.015491220068	2
0	11138	1990.396357321919	1
0	11143	1992.710621506644	0
0	11147	1993.390894206351	1
0	11149	1993.560451533469	2
0	11153	1994.018482736227	1
0	11158	1994.119423762338	0
0	11164	1994.405601781956	1
0	11167	1995.134937191913	2
0	11169	1995.200015240796	3
0	11170	1995.432797238763	2
0	11175	1997.017423177466	1
0	11181	1998.307901264058	0
0	11192	1999.058452011167	1
0	11193	1999.380872319086	0
0	11205	2003.366565583198	1
0	11207	2003.777411600904	0
0	11213	2004.231863713879	1
0	11216	2005.916475804974	0
0	11229	2007.389929126608	1
0	11233	2007.754037883055	0
0	11237	2008.765363371721	1
0	11239	2009.323481152923	2
0	11243	2011.138578498079	3
0	11245	2011.150308682269	4
0	11249	2011.624430932511	5
0	11253	2012.512839862912	6
0	11256	2013.081928232462	5
0	11271	2016.900371694451	4
0	11278	2017.950760806298	3
0	11286	2019.816645248497	2
0	11291	2020.391067868805	1
0	11297	2020.424892127236	2
0	11301	2021.28642064031	1
0	11306	2021.766442638803	0
0	11329	2022.959642053432	1
0	11330	2023.872805519318	0
0	11337	2025.078788614399	1
0	11338	2026.184811480351	0
0	11350	2026.647446990079	1
0	11351	2027.405845078926	0
0	11364	2028.74316952146	1
0	11365	2028.891769941183	0
0	11394	2033.860983549996	1
0	11396	2033.915535984345	2
0	11402	2035.229231071664	3
0	11403	2035.417171424781	2
0	11410	2039.854369264055	3
0	11415	2041.079261331241	4
0	11417	2041.371233433935	3
0	11422	2041.538848134171	2
0	11427	2041.550189988496	1
0	11433	2041.636227452537	2
0	11434	2042.731461257517	1
0	11438	2042.736460479253	2
0	11440	2043.552188539462	3
0	11443	2045.420578177025	2
0	11451	2045.882569176963	1
0	11456	2047.146032728189	0
0	11506	2055.253221980029	1
0	11510	2056.159695787262	0
0	11522	2058.376244146824	1
0	11524	2058.667309402506	0
0	11545	2062.237626831549	1
0	11548	2063.802712880154	0
0	11556	2064.69403969474	1
0	11557	2064.697554033737	0
0	11561	2065.081995187413	1
0	11563	2065.920182118716	2
0	11567	2067.112073303674	3
0	11568	2067.930603130062	2
0	11574	2068.163465217142	3
0	11578	2070.240619240734	4
0	11580	2070.483265124982	5
0	11582	2071.804223920387	6
0	11583	2072.504429901229	5
0	11588	2073.689407517929	4
0	11592	2074.171035149003	5
0	11595	2075.535034669323	4
0	11599	2075.611155136818	5
0	11601	2076.223903573331	6
0	11603	2076.630694860776	7
0	11605	2076.984786791123	8
0	11611	2080.972954480447	9
0	11613	2081.102400031094	10
0	11615	2081.526789151205	11
0	11616	2081.646635363215	10
0	11625	2083.548890199983	9
0	11630	2084.438273853521	8
0	11635	2084.507327486068	7
0	11639	2084.671848686942	8
0	11641	2085.219945139095	9
0	11645	2085.943154976939	10
0	11646	2086.565644108652	9
0	11653	2088.173774745023	8
0	11658	2088.346155320289	7
0	11664	2092.043453806362	8
0	11668	2092.448281589714	9
0	11670	2092.676288688022	10
0	11672	2093.01764863813	9
0	11679	2095.409583276837	8
0	11687	2096.537970475689	9
0	11692	2098.13779588664	10
0	11694	2098.452901355969	11
0	11695	2098.571443282184	10
0	11700	2100.353361179535	9
0	11706	2100.784041865708	10
0	11707	2100.90737254352	9
0	11712	2101.223810262497	8
0	11717	2102.269922027332	7
0	11722	2102.684174987149	6
0	11727	2103.733908957239	5
0	11736	2105.004936285172	4
0	11742	2105.416865781377	3
0	11749	2106.685184793626	2
0	11755	2107.754723677384	3
0	11756	2108.456248503818	2
0	11763	2109.17009150639	1
0	11767	2109.271283449702	2
0	11770	2111.867748678058	1
0	11774	2112.503835792052	2
0	11780	2116.001785442599	3
0	11785	2117.533898837185	2
0	11789	2118.647977231149	3
0	11792	2119.85759419042	2
0	11797	2121.170285887516	1
0	11803	2122.085166310608	2
0	11805	2123.279556008085	3
0	11811	2126.791681419307	4
0	11813	2126.862024610002	5
0	11816	2128.536193880672	4
0	11822	2132.171771341508	3
0	11829	2132.535064325724	4
0	11830	2133.190703853438	3
0	11835	2133.671089830941	2
0	11842	2134.76204556535	1
0	11848	2135.232499536218	2
0	11850	2135.598247106909	3
0	11858	2136.92512529799	2
0	11864	2137.038053857999	3
0	11868	2137.39697890617	4
0	11870	2137.567528499503	5
0	11871	2137.833954286824	4
0	11877	2139.662864387179	3
0	11882	2140.394429786366	2
0	11889	2140.816420303224	1
0	11893	2140.885038983993	2
0	11895	2141.349535837928	3
0	11900	2143.710765237471	4
0	11902	2145.973113430465	5
0	11903	2146.534956770807	4
0	11909	2147.855224869622	5
0	11911	2148.625815411639	6
0	11913	2149.110122643821	5
0	11918	2149.171118838799	4
0	11925	2149.634393521872	3
0	11929	2150.278420054712	4
0	11931	2150.905442001702	5
0	11936	2152.799832143341	4
0	11940	2153.69100153341	5
0	11944	2154.495369726921	6
0	11948	2155.563446265358	7
0	11951	2156.309190966252	6
0	11956	2156.74014498704	5
0	11961	2159.411329409948	4
0	11966	2160.153135658234	3
0	11970	2160.519195854555	4
0	11976	2162.798332043068	3
0	11982	2163.115012826478	4
0	11983	2163.458894259114	3
0	11988	2163.535341712038	2
0	11993	2163.694933723683	1
0	12000	2164.319115818906	0
0	12024	2165.085645913516	1
0	12029	2166.781396174	0
0	12047	2169.007426444574	1
0	12050	2170.541648468243	0
0	12064	2171.821377838564	1
0	12067	2175.460521325911	0
0	12105	2183.812264921553	1
0	12106	2184.132600828177	0
0	12115	2184.802720254971	1
0	12121	2188.779424065271	2
0	12124	2189.690878313377	3
0	12126	2190.585904930426	4
0	12133	2192.753257756802	3
0	12139	2192.863957387794	4
0	12140	2193.083082180558	3
0	12145	2193.227638552126	2
0	12150	2193.231194185722	1
0	12159	2196.272403664757	0
0	12163	2196.851757643009	1
0	12167	2200.073637256815	2
0	12170	2203.345858882017	1
0	12174	2205.449310456072	2
0	12179	2206.085807088138	1
0	12185	2206.296329747206	2
0	12186	2206.496900075268	1
0	12194	2208.461586695781	2
0	12196	2209.855920302861	3
0	12198	2210.19333118253	4
0	12204	2211.781091599537	3
0	12209	2211.850269231311	2
0	12214	2212.993286515494	1
0	12218	2213.234728040995	2
0	12220	2213.841097472298	3
0	12222	2214.37921972057	4
0	12228	2215.607373077689	5
0	12231	2216.678871136435	4
0	12240	2218.60492639005	3
0	12247	2219.278141414258	2
0	12256	2220.043925924211	3
0	12257	2220.598769553122	2
0	12263	2221.036534123524	1
0	12268	2221.975979207182	0
0	12285	2222.945367961298	1
0	12291	2225.756658695558	0
0	12302	2225.974286551624	1
0	12303	2226.154042761999	0
0	12316	2228.616497898741	1
0	12318	2230.007438597098	2
0	12319	2230.065732698836	1
0	12323	2231.360717373759	2
0	12328	2231.912732078802	1
0	12334	2234.90034391279	0
0	12365	2239.323477484404	1
0	12371	2242.928002002481	2
0	12372	2243.035829577066	1
0	12379	2244.224749476242	0
0	12385	2244.300453894381	1
0	12386	2244.857167927877	0
0	12398	2245.915896931082	1
0	12399	2246.368274419477	0
0	12413	2247.264915575994	1
0	12419	2247.654925877729	2
0	12424	2249.556289001856	1
0	12429	2249.639611248245	0
0	12457	2251.905994610667	1
0	12459	2252.046672487678	0
0	12478	2253.854536542133	1
0	12481	2254.624552778728	0
0	12519	2258.326528702956	1
0	12521	2258.851733685467	2
0	12522	2258.888210789334	1
0	12530	2259.174484738818	2
0	12532	2259.92807895756	3
0	12533	2261.497964373053	2
0	12538	2262.212602221483	1
0	12545	2264.097262977712	2
0	12549	2264.565769966788	3
0	12550	2265.287594450035	2
0	12556	2266.646200261053	3
0	12558	2266.907974642036	4
0	12562	2267.903350452148	5
0	12563	2268.163260277411	4
0	12569	2268.71585168065	5
0	12573	2269.525860357596	4
0	12578	2271.245699897601	3
0	12586	2273.344360164324	4
0	12587	2274.346294772751	3
0	12592	2274.552737037789	2
0	12597	2274.553095928368	1
0	12601	2274.777381294902	2
0	12603	2276.409391459883	3
0	12607	2276.659948792813	2
0	12613	2276.892132169719	3
0	12616	2278.671977039235	2
0	12621	2280.33398630578	1
0	12625	2281.048690849702	2
0	12627	2281.131805734675	3
0	12629	2281.770230261683	4
0	12632	2284.305846176863	3
0	12642	2285.666812360315	4
0	12644	2285.987489933721	3
0	12651	2286.562347765123	2
0	12657	2286.686172451244	3
0	12658	2286.777783255773	2
0	12664	2287.168689444383	1
0	12669	2287.797799674173	0
0	12677	2291.226173297428	1
0	12678	2291.794960686617	0
0	12682	2292.150984505582	1
0	12686	2293.275634244292	0
0	12697	2293.809627344439	1
0	12699	2293.917786226404	2
0	12701	2294.755482348031	1
0	12705	2294.846586481868	2
0	12707	2295.740889105129	3
0	12710	2296.422413670807	2
0	12716	2297.647181155949	3
0	12719	2298.691200959817	2
0	12727	2300.713765212173	1
0	12733	2300.953932963472	2
0	12735	2301.887385592911	3
0	12736	2302.305970810641	2
0	12742	2303.069657809977	3
0	12744	2303.07323677118	4
0	12745	2303.07900253473	3
0	12750	2304.039115368342	2
0	12756	2304.337191290468	3
0	12758	2304.409043949611	4
0	12760	2304.991522512442	5
0	12762	2306.514556254217	6
0	12764	2306.581936013885	7
0	12768	2307.347907291177	8
0	12769	2308.320816109587	7
0	12776	2309.942640146494	6
0	12780	2310.369871112485	7
0	12783	2310.907755991201	6
0	12787	2311.101162089517	7
0	12789	2311.574614003742	8
0	12791	2312.252185297309	9
0	12795	2312.774458714536	10
0	12797	2312.986301330979	9
0	12802	2313.139773977317	8
0	12809	2313.617806556851	9
0	12811	2313.869603886178	10
0	12812	2314.057472911664	9
0	12817	2314.071395415704	8
0	12822	2314.5731694862	7
0	12827	2315.215970575861	6
0	12833	2315.734465701261	7
0	12834	2315.740910244267	6
0	12839	2316.09586341658	5
0	12844	2316.475514289057	4
0	12849	2317.529855990126	3
0	12853	2318.372564309736	4
0	12855	2318.86222385357	5
0	12858	2319.922147046595	4
0	12862	2320.355783744683	5
0	12865	2320.695037013288	4
0	12870	2321.475729707491	3
0	12875	2324.36110493572	2
0	12879	2326.279757463856	3
0	12882	2326.999418710689	2
0	12888	2328.31382914019	3
0	12890	2328.375338355896	4
0	12894	2328.824591047017	5
0	12901	2330.225992317842	4
0	12906	2330.319265326226	3
0	12912	2330.609050135516	4
0	12913	2330.780730299201	3
0	12920	2332.701722213011	4
0	12921	2332.943965753437	3
0	12926	2333.733935234503	2
0	12934	2335.097847860882	1
0	12941	2335.428699327726	0
0	12964	2337.334059901755	1
0	12966	2337.556636041742	2
0	12967	2338.334095157524	1
0	12972	2339.192438531045	0
0	12981	2340.877545030388	1
0	12984	2343.927959159688	0
0	13000	2344.97375597548	1
0	13001	2345.626043979712	0
0	13020	2347.579516258746	1
0	13021	2347.614345769415	0
0	13039	2350.326080591069	1
0	13040	2351.039715081143	0
0	13049	2351.334787579463	1
0	13055	2352.534707383211	2
0	13056	2352.754166308169	1
0	13065	2353.979106256752	0
0	13079	2356.705337523084	1
0	13080	2356.886036519449	0
0	13118	2361.212390386066	1
0	13121	2362.45232040782	0
0	13134	2364.328594583971	1
0	13135	2364.44398191142	0
0	13144	2365.952301679827	1
0	13148	2366.331518803457	2
0	13150	2366.393799838138	1
0	13155	2368.154636938613	0
0	13169	2371.300903003076	1
0	13173	2373.371512443081	0
0	13212	2378.934502364365	1
0	13213	2379.24145642914	0
0	13217	2379.835274743307	1
0	13221	2381.558922112266	2
0	13222	2381.584320061951	1
0	13228	2383.139158260483	2
0	13231	2383.833617412491	1
0	13239	2384.820370867475	0
0	13245	2386.650593293597	1
0	13247	2387.81102031788	2
0	13248	2388.13579091697	1
0	13252	2388.844161757168	2
0	13258	2390.251087841846	1
0	13266	2391.582977297194	2
0	13267	2391.713154545879	1
0	13273	2392.317034857486	2
0	13274	2392.427851634239	1
0	13279	2392.452975408472	0
0	13296	2395.878939513469	1
0	13298	2396.900456994476	0
0	13334	2404.464834344221	1
0	13335	2404.655724930941	0
0	13341	2404.756650542583	1
0	13343	2405.364910383339	2
0	13344	2405.76407173732	1
0	13351	2405.966267400823	2
0	13353	2406.609239843645	1
0	13359	2406.745969139794	2
0	13362	2407.013861452041	3
0	13364	2407.521472955688	4
0	13365	2407.526297068575	3
0	13370	2408.009917446275	2
0	13374	2408.658101278074	3
0	13378	2409.305463381792	4
0	13380	2409.474740217404	5
0	13386	2409.917929014068	6
0	13390	2410.884064302458	7
0	13392	2410.998181347484	8
0	13397	2412.807355260811	9
0	13398	2413.135519951647	8
0	13406	2414.30368754331	7
0	13412	2414.80862344961	8
0	13414	2414.876944632496	9
0	13416	2416.270570803711	8
0	13421	2416.753110535176	7
0	13427	2416.930706795473	6
0	13433	2417.799768486548	7
0	13436	2418.743153970714	6
0	13441	2419.098991769364	5
0	13448	2421.373732658182	4
0	13453	2422.622441789208	3
0	13460	2424.745683422146	2
0	13469	2426.601095376549	3
0	13470	2426.836436205479	2
0	13477	2427.145984189212	1
0	13484	2428.319637405191	0
0	13488	2429.104234278262	1
0	13493	2431.372381543799	0
0	13499	2431.819863583998	1
0	13501	2431.866731551551	2
0	13503	2432.247174711596	3
0	13504	2432.742638011454	2
0	13511	2434.899896991542	1
0	13516	2437.38386288308	0
0	13520	2439.234496886093	1
0	13523	2440.285577153587	0
0	13552	2444.241356683474	1
0	13555	2444.46841223011	0
0	13565	2445.210161676721	1
0	13567	2446.111060458788	2
0	13570	2446.831299470719	1
0	13576	2446.847975267924	2
0	13577	2446.860209896166	1
0	13582	2447.022949805413	0
0	13622	2453.295820241516	1
0	13627	2454.832678185582	0
0	13636	2455.076170427756	1
0	13638	2455.559594330893	2
0	13640	2456.481575232462	3
0	13642	2456.9047524742	4
0	13644	2460.338442270748	5
0	13648	2461.407371293138	6
0	13654	2463.460340922449	7
0	13655	2463.779556664189	6
0	13660	2464.326223648604	5
0	13666	2465.080659798559	4
0	13671	2465.547445585119	3
0	13678	2467.951238848999	2
0	13683	2469.16758533794	1
0	13690	2470.23310474571	0
0	13711	2473.108540502029	1
0	13714	2473.699774896964	0
0	13731	2475.575110181835	1
0	13735	2477.783817724999	0
0	13749	2479.127361605764	1
0	13752	2480.580182029109	0
0	13776	2484.343971332517	1
0	13779	2484.644785972849	0
0	13797	2486.316546909789	1
0	13801	2486.953502719137	2
0	13802	2486.954477044944	1
0	13810	2489.061025307742	0
0	13816	2489.474508270823	1
0	13817	2490.230854418718	0
0	13823	2490.969171593757	1
0	13824	2491.311775107508	0
0	13835	2492.708373083537	1
0	13837	2492.916917775326	2
0	13841	2493.432619554279	3
0	13842	2493.492467573752	2
0	13848	2493.760088721826	3
0	13849	2494.077797622929	2
0	13853	2494.283045496593	3
0	13856	2494.533595252934	2
0	13862	2495.204217332523	1
0	13867	2495.877870064624	0
0	13916	2501.442667756524	1
0	13918	2501.496403248134	2
0	13922	2502.776259490784	1
0	13929	2503.210363852738	2
0	13930	2503.339792726791	1
0	13935	2503.66486403444	0
0	13941	2504.585358376643	1
0	13942	2504.951757166488	0
0	13957	2506.542773069767	1
0	13959	2507.595209178245	2
0	13964	2508.839674361244	3
0	13969	2510.294492064662	4
0	13971	2510.378931087922	5
0	13973	2510.621391507025	6
0	13974	2511.207718500082	5
0	13981	2511.814890266211	6
0	13983	2512.123270859506	5
0	13988	2512.691579461927	4
0	13993	2512.786091180949	3
0	14001	2512.858929800661	4
0	14004	2513.090849922238	5
0	14006	2513.606796300424	6
0	14010	2514.133800917891	5
0	14015	2514.754502692551	4
0	14020	2514.867734243531	3
0	14026	2515.232613846776	4
0	14027	2515.461771438777	3
0	14032	2515.803402382821	2
0	14038	2517.782371846039	3
0	14039	2519.055632244387	2
0	14043	2519.578822153129	3
0	14046	2520.49399907507	2
0	14052	2521.098148062314	3
0	14053	2521.23528631723	2
0	14059	2522.623837607427	3
0	14060	2522.959105486795	2
0	14064	2523.378084322423	3
0	14068	2524.478840232294	4
0	14069	2524.707971506327	3
0	14077	2526.916707276662	2
0	14085	2527.324345107275	3
0	14086	2527.67986525101	2
0	14091	2527.918623303623	1
0	14097	2530.981304610588	0
0	14103	2531.277008406309	1
0	14104	2531.366439531718	0
0	14165	2537.306108779936	1
0	14168	2538.653781743241	0
0	14244	2553.312841382471	1
0	14249	2554.170682963068	0
0	14263	2558.649926019813	1
0	14265	2558.96772567693	2
0	14266	2559.005179986598	1
0	14271	2559.141494226541	0
0	14295	2564.349956937364	1
0	14296	2565.74083218708	0
0	14311	2569.089688794558	1
0	14313	2569.324294706592	2
0	14315	2570.409278044263	3
0	14318	2570.550338047716	2
0	14326	2570.82331225162	3
0	14333	2572.488986236104	2
0	14340	2574.531296327733	3
0	14344	2574.96531290779	4
0	14348	2576.600063782989	3
0	14353	2577.350977472965	2
0	14360	2579.97121968131	1
0	14365	2580.115741539916	0
0	14387	2583.406091781662	1
0	14388	2583.561370506326	0
0	14428	2589.718816206038	1
0	14429	2589.77073119535	0
0	14435	2589.883621824731	1
0	14438	2590.062681157729	2
0	14440	2590.417948248749	3
0	14443	2590.8312877982	2
0	14452	2591.718899673482	1
0	14459	2592.278696096948	2
0	14460	2592.605113786691	1
0	14467	2593.985834450643	0
0	14483	2596.030407349968	1
0	14484	2596.090313331605	0
0	14495	2597.503011150755	1
0	14497	2598.941142589119	0
0	14508	2599.580902414513	1
0	14509	2599.994720255027	0
0	14546	2605.501303752943	1
0	14550	2606.014554919514	2
0	14552	2606.276662310292	3
0	14553	2606.948579767019	2
0	14559	2608.537484994322	1
0	14566	2608.871466474255	2
0	14570	2609.734465218725	1
0	14575	2609.799156570319	0
0	14607	2612.567399062674	1
0	14613	2613.531709719554	0
0	14619	2613.582774052671	1
0	14620	2614.541128741219	0
0	14664	2623.129220836683	1
0	14665	2623.307658046847	0
0	14677	2623.907350166191	1
0	14682	2625.689509995877	2
0	14683	2626.04934424582	1
0	14689	2626.388442026783	2
0	14694	2627.643376916495	3
0	14699	2628.627521561002	2
0	14705	2628.746015242391	3
0	14706	2629.016914419033	2
0	14712	2629.555053915301	1
0	14718	2629.775424308483	2
0	14725	2630.417024173042	1
0	14731	2630.969016424785	2
0	14732	2631.732016210989	1
0	14737	2632.476483379736	0
0	14752	2634.196661050646	1
0	14753	2634.380319867189	0
0	14774	2636.121621876463	1
0	14778	2636.38903561751	2
0	14780	2636.496748071169	3
0	14783	2639.699665442148	2
0	14789	2639.902317519841	3
0	14791	2641.932325955257	2
0	14799	2643.354898314487	3
0	14802	2643.923191905599	2
0	14808	2646.466198119056	1
0	14814	2646.92736707704	0
0	14835	2650.369263789232	1
0	14836	2650.69970809867	0
0	14861	2651.812464261713	1
0	14862	2651.827323924504	0
0	14871	2654.669595782897	1
0	14874	2654.794576860817	0
0	14883	2657.349335706563	1
0	14887	2658.119963278678	2
0	14891	2660.048631747591	3
0	14895	2661.131672721463	4
0	14900	2662.414161996643	3
0	14911	2663.264530238582	2
0	14920	2664.733510584947	3
0	14922	2664.890267507687	4
0	14926	2666.186265491903	5
0	14927	2666.270819458352	4
0	14931	2666.560615072618	5
0	14936	2670.512212306724	6
0	14938	2670.646375167732	7
0	14940	2671.016090102786	8
0	14941	2671.02357489565	7
0	14948	2672.474987277317	6
0	14954	2673.575403563731	7
0	14956	2673.592624248601	8
0	14957	2674.666885579067	7
0	14964	2677.456406953691	6
0	14968	2679.03560830674	7
0	14970	2679.515918180714	8
0	14972	2680.181546215625	9
0	14978	2680.53101826306	10
0	14981	2682.721006878446	11
0	14982	2684.299573305476	10
0	14989	2684.896669158084	11
0	14990	2685.172411194626	10
0	14997	2686.533891550737	9
0	15001	2686.564134765397	10
0	15003	2686.997045046898	11
0	15009	2687.682369594551	10
0	15016	2688.670998191104	11
0	15017	2688.706275488507	10
0	15022	2689.149698288268	9
0	15029	2691.635776601314	8
0	15035	2691.705528144229	9
0	15039	2692.403272242228	8
0	15045	2693.025332196871	9
0	15049	2693.952189327883	10
0	15050	2694.276184945358	9
0	15055	2694.652155021872	8
0	15059	2695.473735904158	9
0	15062	2698.146591998995	8
0	15070	2699.386155341477	7
0	15075	2699.756132451479	6
0	15079	2699.786592791346	7
0	15084	2701.248885055913	6
0	15091	2702.028685042096	5
0	15096	2704.698128378917	4
0	15100	2704.708136162584	5
0	15103	2705.384260659621	4
0	15107	2705.781978225402	5
0	15109	2707.243166417661	6
0	15111	2710.601379391693	7
0	15115	2711.191368383323	8
0	15117	2711.361818775189	9
0	15119	2711.868215908982	10
0	15121	2712.062502839068	11
0	15124	2712.928853056447	10
0	15130	2714.475330511282	11
0	15132	2714.536407789366	12
0	15136	2715.153353106244	13
0	15137	2715.371620038745	12
0	15143	2716.485171893355	11
0	15148	2716.906691747612	10
0	15158	2718.477408588659	11
0	15159	2719.621947239629	10
0	15164	2719.945208502042	9
0	15172	2721.029180316434	10
0	15173	2721.044726326241	9
0	15177	2724.545272661182	10
0	15179	2724.997190007454	11
0	15183	2726.474418466773	12
0	15185	2726.602097562987	13
0	15188	2727.066549348536	14
0	15190	2727.512391541387	15
0	15193	2728.507584015362	14
0	15198	2728.762793222745	13
0	15204	2729.363676683834	14
0	15206	2729.394538560057	15
0	15209	2729.852985369372	14
0	15213	2729.898484041661	15
0	15217	2730.531035578408	14
0	15223	2730.761149562587	15
0	15226	2730.889585181085	14
0	15230	2731.863942414943	15
0	15233	2733.386467414713	14
0	15238	2733.544457655793	13
0	15243	2734.169055116815	12
0	15251	2735.173292909094	11
0	15258	2735.759498052402	12
0	15259	2736.141554160385	11
0	15264	2736.446705056104	10
0	15269	2736.968500238078	9
0	15277	2739.120919202123	10
0	15278	2739.330722755158	9
0	15284	2740.13516846801	10
0	15288	2741.451894554941	11
0	15291	2742.150159901395	10
0	15296	2743.558879852715	9
0	15302	2743.786419096679	10
0	15305	2746.788582322785	9
0	15309	2747.472433870643	10
0	15311	2748.189304750922	11
0	15317	2750.064665223535	10
0	15323	2750.152174526793	11
0	15324	2750.299112597985	10
0	15328	2750.540583100433	11
0	15333	2751.473143075277	12
0	15334	2752.385235247655	11
0	15339	2752.722618496227	10
0	15346	2754.956497477009	9
0	15351	2755.339779322996	8
0	15355	2755.513744116486	9
0	15359	2756.325074946536	10
0	15360	2757.199059634328	9
0	15364	2757.448288844828	10
0	15366	2758.188669696715	11
0	15369	2758.747504432986	10
0	15374	2760.679401003132	9
0	15379	2762.569317914335	8
0	15383	2763.471168405656	9
0	15385	2763.475451179754	10
0	15389	2764.932486923194	11
0	15390	2765.107440938443	10
0	15396	2767.020783526503	11
0	15398	2767.201977762592	12
0	15401	2769.475125300793	11
0	15405	2769.616952418357	12
0	15407	2770.344567175806	13
0	15410	2771.089713186849	12
0	15417	2772.537461203756	11
0	15422	2772.632138554932	10
0	15427	2772.957121424832	9
0	15431	2773.663309941424	10
0	15433	2774.682127517684	11
0	15437	2775.184671956559	12
0	15439	2775.557709696043	11
0	15447	2775.94996508295	12
0	15448	2776.483774623432	11
0	15453	2777.651441900609	10
0	15458	2777.735643806307	9
0	15462	2778.045693978748	10
0	15465	2781.068328304732	9
0	15469	2781.099764338781	10
0	15474	2782.605575286354	9
0	15478	2782.686356270105	10
0	15482	2783.507057843961	11
0	15486	2784.416565228479	10
0	15493	2784.889513882319	11
0	15494	2784.930666699452	10
0	15500	2785.918238289789	9
0	15505	2785.935963157731	8
0	15511	2786.300674334464	9
0	15512	2786.865184493076	8
0	15517	2787.084356863767	7
0	15521	2787.44899964603	8
0	15524	2788.384146573306	7
0	15529	2789.258122130996	6
0	15537	2790.116392243587	7
0	15539	2790.145044922217	8
0	15540	2790.273783848393	7
0	15546	2791.917526626501	8
0	15548	2792.390975771097	9
0	15555	2796.653373877174	8
0	15560	2798.591446590281	7
0	15564	2799.501588161082	8
0	15568	2801.704206460105	7
0	15573	2802.072158823118	6
0	15582	2805.645889986536	5
0	15587	2806.44068461683	4
0	15594	2807.308675549475	3
0	15599	2808.409877867501	2
0	15604	2808.914769183598	1
0	15608	2809.674824708136	2
0	15610	2810.143888562111	3
0	15613	2810.885136422326	2
0	15618	2811.81863749625	1
0	15625	2814.31029842122	0
0	15684	2825.737414597957	1
0	15690	2830.545444924705	0
0	15696	2830.838952046292	1
0	15697	2830.89300811372	0
0	15703	2830.96738778482	1
0	15705	2831.041185280434	2
0	15706	2831.417664831753	1
0	15712	2831.788049259886	2
0	15714	2832.329726315658	3
0	15715	2832.40131442664	2
0	15719	2833.088311735653	3
0	15725	2835.021222402528	4
0	15729	2836.502105291255	3
0	15736	2836.659453318634	4
0	15739	2837.76927431523	3
0	15744	2837.803326529475	2
0	15750	2837.982643667587	3
0	15751	2838.516703575967	2
0	15757	2838.568932318929	3
0	15758	2838.670307561534	2
0	15763	2839.030616412073	1
0	15768	2840.017072172561	0
0	15772	2840.028199081996	1
0	15778	2844.063847141692	0
0	15784	2844.107859857465	1
0	15785	2844.360497802274	0
0	15804	2848.422380512121	1
0	15806	2848.677777987949	2
0	15812	2852.128194164348	3
0	15813	2853.321993275437	2
0	15821	2853.82834961623	3
0	15823	2854.782925229432	2
0	15829	2855.801587324685	1
0	15835	2856.207512813217	0
0	15875	2862.757809258508	1
0	15880	2863.209293477416	0
0	15886	2863.342297426678	1
0	15887	2863.461676103288	0
0	15896	2863.684621464566	1
0	15907	2866.248236724338	2
0	15912	2867.630506810178	1
0	15919	2868.520357140981	2
0	15920	2868.926525138113	1
0	15925	2869.349913682265	0
0	15946	2871.221810373373	1
0	15948	2871.424948954686	0
0	15964	2875.261513585517	1
0	15966	2875.678842793596	2
0	15968	2875.958814614709	3
0	15971	2879.855699992257	2
0	15976	2879.997748852333	1
0	15983	2880.3613561313	0
0	15989	2880.598859844513	1
0	15990	2881.072618619746	0
0	15997	2881.316954971735	1
0	16000	2882.065736405327	0
0	16006	2882.107529860355	1
0	16007	2882.316722356989	0
0	16011	2882.909213515912	1
0	16018	2884.2193435451	2
0	16019	2884.346608083003	1
0	16024	2885.270493498048	0
0	16028	2885.35858028867	1
0	16030	2885.554857047308	2
0	16033	2886.108092246416	1
0	16037	2886.19584033243	2
0	16039	2886.198736477377	3
0	16044	2887.005352167662	4
0	16045	2887.063858993555	3
0	16051	2888.4860322945	4
0	16055	2888.786486293215	5
0	16058	2889.318700659567	6
0	16059	2889.88672080277	5
0	16064	2890.032686159784	4
0	16068	2890.607804276268	5
0	16070	2890.720359098447	6
0	16077	2893.365297762544	5
0	16083	2894.281600923295	6
0	16084	2894.287210671487	5
0	16089	2895.099605005857	4
0	16096	2896.491457461504	3
0	16100	2896.53431096157	4
0	16104	2899.990249979292	5
0	16107	2901.13331050439	4
0	16111	2901.515947975144	5
0	16114	2903.159860796631	4
0	16119	2903.375026409773	3
0	16124	2904.843072598147	2
0	16131	2905.311172916614	1
0	16137	2905.800035456523	2
0	16142	2906.983055351249	1
0	16150	2909.704005366556	2
0	16151	2910.219624237448	1
0	16159	2911.320386714911	2
0	16160	2912.076894421384	1
0	16166	2912.316678934708	2
0	16169	2914.597331044697	1
0	16174	2914.98844817937	0
0	16181	2916.34796504144	1
0	16182	2916.713666434824	0
0	16188	2916.743304134156	1
0	16189	2916.99899925267	0
0	16195	2918.651636252721	1
0	16197	2919.872290456929	0
0	16208	2920.227258959975	1
0	16211	2921.784939693367	0
0	16244	2925.430889938564	1
0	16247	2926.336120308671	0
0	16261	2926.936897555575	1
0	16263	2927.367655687838	2
0	16272	2931.694637964065	3
0	16274	2932.248268236732	4
0	16276	2933.993131434241	3
0	16282	2934.248563076508	4
0	16284	2934.48050494257	5
0	16285	2934.805821887427	4
0	16289	2935.226724068471	5
0	16293	2936.216150467428	4
0	16301	2937.688774487853	3
0	16309	2938.234283661316	4
0	16310	2941.120552358435	3
0	16316	2941.42093692249	4
0	16318	2941.724108468852	5
0	16320	2942.23156033686	6
0	16324	2942.417543742312	7
0	16325	2942.688581698306	6
0	16333	2942.820335819595	7
0	16334	2942.861840402034	6
0	16338	2943.197895883082	7
0	16340	2943.520541056141	8
0	16342	2944.465495342224	9
0	16346	2944.849764010197	8
0	16353	2946.113298950124	7
0	16358	2946.783854561538	6
0	16365	2949.402175305511	5
0	16369	2949.765221225461	6
[...]
5	151341	27482.569162621028	3493.7070363883
5	151346	27483.23468830872	3489.766923385
5	151359	27487.173122761183	3487.8945473264
5	151387	27491.26084742354	3489.76979195
5	151393	27492.229668737104	3488.2368865884
5	151398	27492.527430227643	3481.4043742952
5	151408	27493.281704498315	3476.4150210324
5	151429	27496.446639869216	3477.8497389817
5	151454	27500.097208449841	3471.4361935358
5	151461	27501.386728138938	3462.365002098
5	151498	27507.859903806998	3468.087805308
5	151511	27509.630881837395	3469.8308429088
5	151516	27509.639212077352	3468.0076138735
5	151522	27511.248921731101	3469.4654127707
5	151530	27512.905816702185	3461.982567716
5	151535	27512.937440759814	3453.8318887383
5	151540	27514.542782930713	3454.5371706442
5	151545	27515.565268710877	3454.0734225601
5	151556	27518.911367924408	3448.2143850995
5	151587	27522.850455536109	3435.9276897949
5	151595	27523.894886010352	3431.5175738114
5	151607	27525.83501997626	3432.6384780017
5	151620	27529.793702616103	3436.0772970032
5	151644	27532.08486061617	3437.6443189858
5	151658	27535.214032511174	3432.5648427802
5	151663	27535.510693761936	3428.3025998107
5	151668	27536.671956664204	3422.6004570905
5	151677	27539.002619042292	3423.7187881165
5	151693	27540.999307332643	3425.0955718917
5	151706	27542.605065042725	3420.719958196
5	151713	27543.171327020324	3416.0807553417
5	151725	27544.126954707255	3413.9952525412
5	151732	27545.021880250932	3414.0762591547
5	151737	27546.703132512427	3408.6380610638
5	151748	27550.486936851476	3410.8972750909
5	151780	27553.046534716545	3410.0052712601
5	151792	27554.671416352567	3408.0485668623
5	151805	27555.613864309974	3408.0605944727
5	151810	27555.680854570798	3407.6139764513
5	151815	27556.796298621052	3401.267480267
5	151825	27558.732237043135	3402.9882652185
5	151837	27559.548052190265	3402.3216518959
5	151845	27560.546339480838	3401.3235548002
5	151856	27562.391725531355	3398.1594958853
5	151971	27582.360086229777	3417.313437355
5	151980	27583.903674494647	3417.7226129109
5	151991	27584.154074112942	3408.8668965212
5	151996	27584.321951317924	3407.9403070544
5	152023	27593.488483011419	3417.0349551355
5	152069	27599.404035123238	3422.0786513434
5	152104	27606.202789499928	3426.1689537503
5	152119	27606.653225445008	3424.5487812477
5	152131	27608.725024957472	3416.4277501344
5	152142	27610.560055408107	3416.8412522614
5	152148	27612.033933607763	3406.090646878
5	152159	27615.096603256866	3403.0747915878
5	152200	27619.395004887167	3406.5640959977
5	152212	27620.296922693828	3406.5686738987
5	152224	27622.530115185286	3404.4299464081
5	152245	27625.426926012786	3403.4818543745
5	152260	27629.606768669208	3407.6478208858
5	152405	27652.771839448054	3422.3855995418
5	152415	27655.113871484818	3420.3587148376
5	152486	27665.933005303728	3428.009801689
5	152492	27666.059695760397	3425.1696840813
5	152498	27667.065667034091	3425.6892367104
5	152503	27667.089442487358	3424.7392426038
5	152508	27668.828150242789	3426.3703166254
5	152518	27671.409883137365	3425.359414639
5	152531	27672.104515303699	3424.9029357075
5	152540	27674.251686719069	3426.980962481
5	152555	27677.433994882974	3429.2842872458
5	152562	27678.90643611171	3430.4161068338
5	152583	27681.67416649148	3431.7194554421
5	152595	27684.754693353309	3431.8231294842
5	152609	27688.731320809604	3434.6179763901
5	152713	27711.248290418205	3456.0676592833
5	152719	27711.3006438781	3454.0931534957
5	152724	27711.366948748034	3448.6226564115
5	152732	27712.374154022978	3446.2466392923
5	152739	27713.009451390907	3436.8559897204
5	152745	27714.893686085727	3437.3876758154
5	152751	27715.189635595744	3436.9426266224
5	152756	27715.881813943864	3436.1694723558
5	152771	27718.146890171694	3434.3237056746
5	152812	27723.721745385318	3437.7545797455
5	152817	27723.767709969674	3433.6058619148
5	152830	27728.801796937913	3437.6267089985
5	153023	27768.683050857062	3475.6068768415
5	153036	27772.547321965045	3476.671330126
5	153043	27773.15165589154	3476.784398288
5	153051	27776.313531481824	3478.1918190668
5	153057	27777.06855143072	3466.5914322657
5	153064	27779.165520120741	3466.7088489365
5	153085	27782.5549917722	3461.3132865354
5	153094	27784.665992833411	3462.4474976056
5	153121	27790.124881169539	3467.5035796417
5	153163	27802.320279060123	3474.9605684226
5	153208	27809.831709034383	3482.3554050348
5	153215	27810.477900025445	3481.3159150329
5	153232	27812.087025982071	3478.0015877002
5	153318	27828.978233586333	3491.7914122385
5	153331	27830.371828679837	3492.3557168658
5	154647	28126.340040575028	3788.2597237136
5	154656	28126.9303284807	3787.0643821744
5	154675	28129.399564728606	3788.6075948702
5	154680	28129.41524147907	3774.1294040508
5	154686	28130.993311014406	3770.4670426392
5	154691	28131.257094048685	3768.2268175188
5	154700	28134.290401900058	3770.3786073454
5	154717	28136.413212053644	3771.1749479681
5	154722	28136.515337885708	3768.4101204792
5	154729	28137.40655133014	3767.7654644483
5	154756	28145.568689734918	3770.2750872531
5	154769	28146.503086833492	3766.9266030125
5	154779	28147.439239064514	3763.6338153011
5	154795	28148.559353124861	3764.2038281235
5	154837	28154.673975962437	3764.7068787259
5	154888	28163.626545448185	3771.4628546519
5	154893	28163.994986836787	3765.0907790637
5	154898	28164.030168323099	3760.5683701918
5	154903	28164.53798904877	3754.352792801
5	154914	28165.971494984551	3753.0828770133
5	154919	28167.022926403273	3748.4997542082
5	154936	28171.901530012978	3752.6800230013
5	154951	28172.99005211831	3753.4311933265
5	154964	28175.25755615655	3744.2227888094
5	155009	28184.392683011235	3751.8539636638
5	155044	28188.997251283813	3743.8477195409
5	155051	28191.827025735847	3746.3636346793
5	155061	28192.504963859739	3744.1590292947
5	155070	28193.316778779077	3744.4198050017
5	155096	28199.272534600341	3748.3611512113
5	155231	28220.655385876038	3767.6752492243
5	155238	28221.461362663558	3764.2079279968
5	155248	28223.561366364573	3765.994084851
5	155265	28225.441465016182	3767.7045299936
5	155277	28229.703181719153	3768.0860805581
5	155293	28230.958993115291	3768.4435812985
5	155299	28231.276575896839	3764.1970722097
5	155305	28231.412195498041	3762.4815658889
5	155310	28231.983783390912	3759.9854476168
5	155331	28238.164342046945	3765.5185178813
5	155360	28243.404393400587	3766.4997266204
5	155429	28260.043222963676	3779.874095059
5	155437	28262.212820950686	3781.9245474491
5	155448	28262.789813641302	3779.1797045109
5	155455	28263.408520263706	3763.9536786417
5	155464	28264.923223050267	3761.2146215018
5	155475	28265.646564338063	3759.4584650896
5	155480	28265.750251618248	3758.2094870201
5	155487	28266.228222339331	3755.6134703032
5	155495	28269.074777521106	3757.1024397555
5	155521	28274.164430901392	3760.5699310194
5	155554	28276.034401800656	3762.4351210948
5	155565	28278.177772617947	3762.7466020347
5	155589	28280.862306841323	3760.6133722101
5	155660	28293.901528257585	3772.1810731605
5	155666	28294.063332868479	3771.5173880701
5	155672	28294.87701844269	3767.8734725614
5	155683	28298.334476671907	3762.4984581035
5	155717	28302.361006390732	3762.8805015863
5	155738	28304.252566543589	3760.7568466558
5	155745	28304.671841111573	3755.3008107564
5	155765	28306.880317235057	3757.4782177996
5	155803	28310.570741580594	3757.2057160077
5	155810	28311.391097122839	3755.68691184
5	155910	28327.269408222396	3762.7481922095
5	155920	28327.641620420256	3761.6849273113
5	155926	28328.25890601966	3760.3932824338
5	155932	28329.693330495265	3760.2583969174
5	155943	28331.948756497198	3758.0502303384
5	155958	28333.867440983537	3748.4529497946
5	155991	28340.368868279891	3753.1417362292
5	156157	28379.923837243051	3790.0974119646
5	156166	28383.235953488532	3788.5573447856
5	156174	28384.410664658664	3788.6233632976
5	156181	28385.530215802489	3786.6572981328
5	156196	28387.03070269514	3786.5128194554
5	156206	28391.697710912318	3788.5085255022
5	156215	28395.512713094153	3781.6869318095
5	156227	28396.034425450707	3778.6726943711
5	156240	28398.394656618462	3780.3086940437
5	156248	28399.097271830625	3779.6505528615
5	156253	28399.297149057584	3778.8382340986
5	156262	28402.303854017624	3777.7403298424
5	156269	28403.044896152512	3775.3716064344
5	156283	28406.328742861751	3771.8980566496
5	156294	28407.55923321881	3771.4830782078
5	156314	28409.978065970043	3773.3949481988
5	156329	28410.916265042069	3773.6202718212
5	156345	28413.187774888638	3775.6640854354
5	156352	28415.103467014438	3776.926211269
5	156372	28416.321854894879	3777.9617238636
5	156378	28416.544552802823	3774.2566924996
5	156383	28416.93687185878	3772.8410791895
5	156393	28418.6668022671	3769.1680663081
5	156410	28421.60871095102	3760.9919956341
5	156435	28424.647291815642	3756.9811100638
5	156446	28427.579263263324	3755.809286877
5	156451	28427.79035154886	3754.5637894569
5	156458	28428.367262168744	3754.1966964972
5	156466	28431.29199097119	3754.3903630971
5	156472	28432.431357968382	3746.2061094657
5	156477	28433.207630447311	3746.8457305337
5	156482	28434.39634694951	3743.4238321164
5	156489	28434.95006270844	3737.0605702313
5	156496	28435.961533555467	3733.4174613973
5	156508	28439.781032996556	3735.4214479098
5	156530	28441.924331640828	3733.1315444471
5	156540	28442.973728318038	3730.0959327477
5	156553	28446.577039011525	3733.4481498781
5	156558	28447.291818129587	3729.3585842535
5	156563	28447.45382702535	3723.2792673832
5	156570	28449.17566167935	3724.3317438541
5	156589	28450.995399725977	3723.3043082262
5	156631	28460.553385573527	3731.9412727257
5	156655	28463.706875476111	3732.1367601443
5	156716	28474.957048546177	3743.2482321596
5	156726	28475.365240921335	3740.8018194326
5	156734	28477.233081754193	3740.298063317
5	157033	28540.230724013275	3802.5653466497
5	157041	28542.117548978065	3802.9987249879
5	157056	28543.3062544656	3802.6705791039
5	157064	28544.547037601322	3797.1953552636
5	157075	28550.180730195591	3796.4137586062
5	157091	28551.176531248632	3788.3701985332
5	157101	28555.531768952953	3792.2358474027
5	157123	28559.189883283212	3792.0121294884
5	157136	28560.604374048851	3777.2835008101
5	157164	28562.75369213413	3768.1866406291
5	157170	28565.069378983824	3766.1527493991
5	157177	28566.911061901564	3764.9256104865
5	157182	28569.813703417898	3764.9774714345
5	157192	28571.992394344762	3761.7853994604
5	157202	28573.022414819546	3755.3789513394
5	157208	28575.175497855238	3756.9907041866
5	157215	28578.379800212349	3752.1038080924
5	157261	28583.239975778497	3753.6076786414
5	157277	28584.54618047309	3753.1291265152
5	157283	28585.435894571427	3753.22364276
5	157290	28587.271961895853	3751.104440837
5	157301	28588.489069350126	3744.8573568834
5	157308	28590.052470764458	3745.2951651846
5	157323	28592.611210134774	3744.4863801525
5	157340	28596.086817383032	3745.8206903732
5	157531	28629.079395494378	3776.5113544363
5	157538	28630.604412524134	3768.2533698604
5	157547	28635.193011335627	3761.1149091604
5	157588	28637.684838052219	3760.9583384252
5	157595	28638.551821536936	3761.0412810026
5	157612	28639.991944476047	3757.9712403587
5	157653	28649.574087144616	3764.9716592226
5	157690	28657.136363493601	3769.7962429084
5	157701	28657.801041454203	3768.3334630202
5	157717	28660.399250232106	3766.72518358
5	157728	28661.756036482296	3762.8643727732
5	157735	28663.723011716708	3756.6422700108
5	157748	28665.915930829788	3755.5033292854
5	157755	28668.134658595707	3753.0077657514
5	157769	28670.062858913434	3752.6906803815
5	157803	28674.909685299965	3752.8409646157
5	157812	28676.188186056087	3741.9877256288
5	158564	28830.397057896797	3894.7152820512
5	158571	28831.417239886776	3871.9987439775
5	158576	28831.462272123595	3865.9357814946
5	158585	28836.155877300081	3869.8953274
5	158599	28837.409037344358	3866.8130016855
5	158712	28856.419943561875	3874.103340657
5	158717	28856.634757101003	3860.6013722795
5	158722	28856.923454586101	3852.898001779
5	158727	28858.685604218267	3845.755523451
5	158732	28859.43291746101	3845.1157092911
5	158741	28862.259369311308	3847.5183517135
5	158753	28864.308543214928	3845.9861820234
5	158767	28865.229682927253	3844.6919819976
5	158842	28880.2506955877	3857.5697069394
5	158847	28881.53823487858	3847.4004105553
5	158859	28883.480051749685	3847.2711866028
5	158874	28885.523101191671	3845.0872174409
5	158881	28886.852770838478	3843.6064168091
5	158894	28890.601319155624	3838.4389284834
5	158911	28894.783318638214	3838.9831996804
5	158958	28901.407704730985	3843.0681774016
5	158966	28902.459933090978	3832.8901768688
5	158993	28905.819411713866	3818.2915362462
5	159011	28907.842695704432	3817.2842994412
5	159036	28910.984927886754	3819.6464195336
5	159041	28912.225337705828	3820.5622779084
5	159054	28917.416223289581	3820.3107986897
5	159092	28923.112830161933	3825.4452329799
5	159108	28925.180125488493	3820.1525995948
5	159201	28939.200504824143	3831.6034692276
5	159361	28968.972918982508	3852.0541195255
5	159367	28969.666018888855	3847.5030371302
5	159373	28970.016695281208	3845.0948080389
5	159379	28971.012154230197	3844.2422857958
5	159385	28972.09757171982	3844.9869066693
5	159391	28973.899746033146	3846.7459698462
5	159396	28973.93460956812	3828.0770094531
5	159403	28978.722683945199	3825.1285044905
5	159419	28982.378865173609	3826.3425291728
5	159447	28986.5809290521	3827.1446886075
5	159462	28989.490226047795	3822.2752816236
5	159539	28998.473852603636	3829.0435230872
5	159544	29000.021617216734	3830.1240515678
5	159553	29000.681502587466	3827.9933076812
5	159569	29002.560040179411	3828.2935429942
5	159588	29004.973417571922	3830.0337792292
5	159593	29005.075584450272	3828.0228223911
5	159600	29006.898454727184	3816.281616984
5	159605	29007.201387878876	3816.0318092784
5	159612	29007.837242434954	3813.0720312492
5	159624	29009.332304681752	3810.1783584055
5	159630	29010.504123532655	3811.0100019427
5	159639	29011.943513741117	3811.6095300758
5	159644	29012.45823212086	3810.4058338077
5	159655	29015.461825209991	3811.5160493853
5	159670	29016.268892900582	3810.0767866887
5	159676	29017.229524624443	3802.4372558163
5	159681	29018.503450666191	3802.5987304181
5	159689	29019.971613279689	3803.8076584719
5	159696	29020.419053373794	3798.7100755914
5	159706	29022.450143885382	3792.959306989
5	159724	29028.876661194396	3787.0153445608
5	159758	29032.4919813381	3787.7653132446
5	159768	29033.679906332034	3786.7203934121
5	159775	29034.502824736344	3784.5717954585
5	159784	29035.505256948804	3784.6377975469
5	159793	29037.820232750444	3785.162096946
5	159825	29044.014116301045	3790.8888484244
5	159861	29052.015498634826	3798.6454971597
5	159866	29052.063543015508	3796.0636156861
5	159872	29052.196975676848	3789.79394876
5	159877	29052.616212469202	3786.8411641003
5	159895	29057.125085194474	3786.585467921
5	159930	29060.534546945481	3788.0275486467
5	159945	29062.207963706523	3784.4580674942
5	159956	29064.314066080155	3780.7238668793
5	159969	29066.117624930992	3777.1346729319
5	160017	29074.633016863474	3781.0248639411
5	160022	29076.516366975827	3782.4005928439
5	160027	29076.799882383711	3779.9932175472
5	160034	29077.995066409679	3775.7520757238
5	160045	29079.734279330242	3775.5528431719
5	160052	29083.170076136564	3763.7187344436
5	160065	29086.180026983403	3765.4382938582
5	160106	29091.916134940903	3767.339217195
5	160111	29092.085440463178	3759.6914680433
5	160125	29093.891674997145	3759.2052419572
5	160149	29095.405597406037	3760.1593787253
5	160157	29095.602390457832	3757.0988685115
5	160168	29096.494016761245	3756.0781195676
5	160173	29096.787867510901	3745.9463288481
5	160179	29097.477284513555	3744.8883068831
5	160186	29097.771446533957	3738.464857886
5	160208	29103.692385292345	3743.6505513902
5	160233	29106.809837016833	3741.9463645157
5	160240	29109.118828743344	3740.3513451974
5	160251	29111.603679005003	3734.7773120951
5	160271	29115.8698931602	3737.8391043487
5	160291	29119.76462902125	3740.6942099965
5	160306	29124.504871350507	3732.4840963126
5	160373	29132.006887403465	3734.1427602039
5	160408	29138.967618410428	3736.4281427888
5	161157	29288.520469998353	3881.9104904544
5	161162	29288.636175627304	3872.4340218158
5	161168	29290.570650912564	3872.8705117639
5	161181	29292.93243760571	3869.780987413
5	161247	29301.745862557298	3877.0090163646
5	161254	29302.603749835132	3877.7421173413
5	161259	29303.238688432679	3875.4993694762
5	161270	29305.617384938438	3869.8032164178
5	161281	29306.566974407047	3869.9290261638
5	161286	29307.120417853858	3870.227688806
5	161292	29307.186369397936	3869.1883267264
5	161298	29307.346191638218	3868.9514144954
5	161312	29312.689939328352	3870.9772707148
5	161324	29313.889176138861	3871.8792357751
5	161333	29314.952191031628	3871.527701932
5	161356	29321.133124467311	3876.4477132764
5	163405	29772.021090693715	4327.2832918733
5	163417	29774.119286756525	4324.1467435368
5	163433	29775.222081531906	4316.2934377879
5	163445	29775.327703356831	4315.1974118082
5	163453	29776.796747996464	4310.9228874946
5	163461	29778.215055376862	4310.1561911179
5	163478	29781.587712008226	4312.2312242023
5	163493	29782.39876212627	4309.9783141936
5	163501	29784.378187987939	4310.0385968091
5	163543	29793.779053143873	4317.1596209889
5	163548	29793.907314475448	4317.2295298533
5	163554	29794.675215239486	4315.1417505895
5	163559	29795.331406517511	4315.0991357963
5	163566	29796.892550148863	4313.3358639929
5	163572	29797.204815550833	4313.134341817
5	163589	29801.654141696207	4316.4293547968
5	163624	29805.875222968289	4318.7278338625
5	163632	29811.050588797166	4316.5326761636
5	163641	29812.65791662585	4315.8167336183
5	163671	29816.469351745565	4319.6094415493
5	163716	29824.352359309237	4322.9657104725
5	163724	29824.488687132672	4322.7414307295
5	163736	29824.909328385573	4323.1208552782
5	163741	29824.994039423718	4322.9349428534
5	163754	29828.07270575422	4324.888228714
5	163787	29832.4556466463	4323.7019656322
5	163807	29834.494913528344	4324.8548704708
5	163816	29836.981202869831	4324.2957065017
5	163825	29838.693818637773	4321.6059910358
5	163837	29840.30660730719	4322.4343231783
5	163843	29841.904627441356	4322.0502388054
5	163851	29845.213845192452	4323.6633728713
5	163869	29848.597894090349	4326.5704946877
5	163877	29850.140898832541	4326.8674124242
5	163937	29857.667747453089	4329.9527888751
5	163945	29860.853101252521	4329.4963687192
5	163955	29861.060139105217	4328.0742083987
5	163966	29863.34490339784	4328.3796504609
5	163976	29864.007743903897	4328.3860704827
5	163981	29864.129064715779	4325.0414782632
5	163986	29864.195331202116	4305.4266384522
5	163995	29866.145210366714	4307.2579963483
5	164006	29866.234538013561	4301.0068472725
5	164020	29875.16736247978	4293.4476130878
5	164054	29880.361422560174	4292.2897867173
5	164116	29890.429932863512	4301.1951332467
5	164122	29891.384477100802	4297.4856541559
5	164130	29892.414052178512	4298.0437964045
5	164135	29893.009455016493	4291.8870975566
5	164142	29893.334862067488	4291.6917983702
5	164149	29896.339059758216	4288.279110632
5	164163	29899.691717612496	4290.3748592815
5	164194	29908.762362998841	4295.0963607332
5	164311	29931.328597915273	4316.1703662952
5	164316	29931.610847920932	4316.310997147
5	164325	29933.613691856741	4311.2656937276
5	164390	29945.765929705497	4321.1212000469
5	164397	29947.307323508137	4318.4666229121
5	164406	29949.844931586193	4318.7061082815
5	164430	29956.057501815867	4321.996574381
5	164467	29962.782645352141	4328.1399645619
5	164472	29965.78974117054	4324.6204436459
5	164479	29967.188917217539	4325.5331498403
5	164492	29970.089064135823	4323.7329033999
5	164510	29971.512759815647	4321.3004043165
5	164524	29979.372703843935	4328.7681274645
5	164546	29981.788175537512	4325.5762427163
5	164554	29983.247385106288	4316.1805270657
5	164562	29984.515993144964	4316.3554532429
5	164567	29985.144311728508	4316.5888097631
5	164572	29985.296794487688	4316.2105470448
5	164582	29987.035701771541	4311.3389302276
5	164594	29988.068094418489	4311.4798901311
5	164609	29990.31182925249	4280.8585834294
5	164618	29991.157295126171	4281.1523029639
5	164669	29999.03090315186	4288.6517447426

