version 2
run First-n4-4-20191016-14:52:41-9588
attr configname First-n4
attr datetime 20191016-14:52:41
attr experiment First-n4
attr inifile omnetpp.ini
attr iterationvars ""
attr iterationvarsf ""
attr measurement ""
attr network org.omnetpp.queueing.Pizza
attr processid 9588
attr repetition 4
attr replication ""
attr resultdir results
attr runnumber 4
attr seedset 4
param **.PS.maxInventoriedPS 4
param **.U1.interArrivalTime exponential(2s)
param **.U2.interArrivalTime exponential(4s)
param **.PS.serviceTimeForInventoryU1 exponential(0.8s)
param **.PS.serviceTimeForInventoryU2 exponential(1.0s)
param **.PS.serviceTimeDirectU1 exponential(1.2s)
param **.PS.serviceTimeDirectU2 exponential(1.4s)
param **.PS.probabilityProducing 0.5
param **.CS.serviceTimeU1 exponential(0.8s)
param **.CS.serviceTimeU2 exponential(1.0s)

vector 0 Pizza.EntryQueueU1 queueLength:vector ETV
attr interpolationmode sample-hold
attr title "queue length, vector"
vector 1 Pizza.CS queueLength:vector ETV
attr interpolationmode sample-hold
attr title "queue length, vector"
vector 2 Pizza.EntryQueueU2 queueLength:vector ETV
attr interpolationmode sample-hold
attr title "queue length, vector"
vector 3 Pizza.sink lifeTime:vector ETV
attr interpolationmode none
attr title "lifetime of arrived jobs, vector"
attr unit s
vector 4 Pizza.sink lifeTimeU2:vector ETV
attr interpolationmode none
attr title "lifetime of arrived jobs, vector"
attr unit s
0	0	0	0
0	19	10.287334142778	1
0	25	12.291919922191	2
0	26	12.83773584874	1
0	34	13.565454010872	0
0	45	14.145268517297	1
0	46	15.267922764238	0
0	52	15.291190670384	1
0	53	15.300397349158	0
0	135	29.358370780912	1
0	137	29.897115748726	2
0	138	29.989120957793	1
0	143	30.159127610422	0
0	158	31.926892241597	1
0	159	32.727826180213	0
0	165	33.00526118706	1
0	166	33.080335022446	0
0	177	34.043061499763	1
0	178	35.325353438331	0
0	191	36.778732411074	1
0	193	36.978810869621	2
0	196	38.341468972787	1
0	201	39.262265333744	0
0	207	39.616781124221	1
0	208	39.964355879925	0
0	212	39.972337045933	1
0	216	41.764693967559	2
0	219	42.532629803817	1
0	223	42.668708171625	2
0	225	42.712419778087	3
0	227	42.811922723736	4
0	229	44.282673055733	5
0	235	44.51533200938	6
0	236	45.717121545822	5
0	242	45.961117232453	6
0	244	46.237195354984	7
0	249	49.432592802843	6
0	253	49.949240858276	7
0	256	52.267249325551	6
0	260	52.289312071742	7
0	266	55.928812044746	6
0	271	56.085047985642	5
0	279	57.827827986868	6
0	281	59.348160211133	5
0	286	59.590041834254	4
0	291	59.68552855704	3
0	300	59.757371971602	4
0	302	59.763233744329	5
0	305	61.547209976542	4
0	311	61.717273918246	5
0	312	62.603611425665	4
0	316	63.114188719085	5
0	319	64.501824822997	4
0	325	65.51047558311	3
0	331	65.805930141319	2
0	337	65.866835699014	3
0	338	67.071479065252	2
0	344	68.682765812777	3
0	349	70.004883922394	2
0	363	74.050135375213	3
0	365	74.57259712923	4
0	366	74.58557609539	3
0	371	74.701171022275	2
0	376	74.763151476088	1
0	381	76.852544976978	0
0	417	82.521450043051	1
0	418	82.719678402949	0
0	435	85.563673470759	1
0	436	85.583520050369	0
0	482	94.940085223973	1
0	485	95.709881034006	0
0	502	99.991226299325	1
0	505	101.415307603646	0
0	532	106.063102737775	1
0	534	106.123555223669	2
0	538	106.557251262513	3
0	540	109.232666210691	2
0	545	109.612319048278	1
0	551	109.673339337808	2
0	554	110.393464548372	3
0	558	111.779309421791	2
0	564	111.943168564518	1
0	571	113.013025579239	0
0	636	126.083670211167	1
0	638	126.540764896337	2
0	639	126.863059823985	1
0	646	129.353105147909	0
0	658	131.726242111005	1
0	660	133.488665191153	0
0	673	134.794823111587	1
0	677	136.149332489241	0
0	700	138.340768769989	1
0	703	138.605559103441	0
0	715	139.209757322286	1
0	718	141.383845830259	2
0	720	142.156243587399	3
0	723	143.165378144419	2
0	729	143.25487731305	3
0	731	143.867564430985	2
0	736	144.146578697786	1
0	741	144.293457597463	0
0	750	145.255801636436	1
0	752	145.332753594969	2
0	753	145.573420198069	1
0	758	145.688398360952	0
0	762	146.067373002234	1
0	768	147.262781478755	0
0	792	150.464012224388	1
0	793	150.466785126163	0
0	799	150.471772535816	1
0	800	150.691691336869	0
0	807	150.963359138024	1
0	808	151.38068595417	0
0	834	157.292122682904	1
0	839	159.512437089175	0
0	886	164.021579596471	1
0	887	164.289005244549	0
0	961	176.597174632277	1
0	963	176.950659092734	2
0	965	177.399403462682	3
0	966	177.562457820116	2
0	971	177.983318977885	1
0	976	178.643496549604	0
0	999	181.812360440565	1
0	1002	182.397381262877	2
0	1003	183.087793914312	1
0	1008	183.138681900259	0
0	1027	192.190428075812	1
0	1029	193.644856999504	2
0	1032	194.738080430185	1
0	1038	195.475100927709	2
0	1040	196.217295579699	1
0	1048	196.897288275203	0
0	1071	199.312107310712	1
0	1072	199.604110387759	0
0	1086	201.867160324244	1
0	1091	203.127198481655	2
0	1092	203.528948701922	1
0	1098	203.764560415457	2
0	1101	204.747206450118	1
0	1109	205.641923355593	0
0	1140	211.202157368495	1
0	1141	211.917733198634	0
0	1147	213.072629283579	1
0	1148	213.35843455261	0
0	1174	218.736373263742	1
0	1175	218.911548506003	0
0	1203	222.329322495757	1
0	1206	223.487082465763	2
0	1207	223.82794414052	1
0	1213	224.010503484451	2
0	1215	224.689186309166	3
0	1216	225.312684940456	2
0	1222	225.699087878116	3
0	1224	225.913736129969	4
0	1226	226.548077130398	5
0	1229	227.259749112176	4
0	1234	228.329696626533	3
0	1240	228.567166829813	2
0	1245	228.763839371882	1
0	1250	228.914061113741	0
0	1297	241.782236140313	1
0	1299	242.062239652519	0
0	1312	243.922344404174	1
0	1315	244.963649233677	0
0	1339	251.174316346933	1
0	1340	251.376096882082	0
0	1384	262.422551310835	1
0	1385	263.123288773216	0
0	1431	278.14987396273	1
0	1433	279.604448338391	0
0	1448	287.087589899732	1
0	1453	289.951726716639	2
0	1454	291.701021109322	1
0	1459	292.212484929502	0
0	1479	297.604017697912	1
0	1483	298.823790897198	0
0	1504	302.817249416994	1
0	1510	305.77683679148	2
0	1512	306.035173067912	3
0	1513	306.076554275157	2
0	1519	306.169587724406	3
0	1520	306.975404781376	2
0	1525	306.990401183795	1
0	1530	307.414273054909	0
0	1568	314.376605513632	1
0	1569	314.72281159839	0
0	1581	316.421055743116	1
0	1584	318.201847344196	0
0	1619	324.850154445149	1
0	1621	325.429689257594	0
0	1636	329.326521900681	1
0	1637	329.70142470156	0
0	1643	330.123619400298	1
0	1644	330.21533333088	0
0	1666	340.774765007151	1
0	1668	340.846781697103	2
0	1670	341.096701389629	3
0	1672	341.139503033999	4
0	1674	341.455881094107	5
0	1675	341.556521699436	4
0	1680	342.114554595806	3
0	1684	343.127889404163	4
0	1687	344.177908164334	3
0	1693	345.703992933255	4
0	1697	346.886934172043	5
0	1698	347.109528529522	4
0	1704	347.2704750724	3
0	1710	347.668214101263	4
0	1711	348.320476190508	3
0	1715	349.195740162005	4
0	1719	350.137555979047	5
0	1720	350.140539026207	4
0	1724	350.396089628082	5
0	1728	351.380717882617	6
0	1729	351.551088801469	5
0	1733	351.884633028939	6
0	1737	355.790084323048	5
0	1742	355.876973206796	4
0	1749	356.741718983184	5
0	1751	357.339363522051	6
0	1755	359.148439590097	7
0	1756	359.784693598304	6
0	1761	360.962908714723	5
0	1767	361.840504715714	4
0	1772	361.908961673729	3
0	1780	362.293730482641	4
0	1781	362.628166195587	3
0	1786	362.842063676727	2
0	1792	363.074544965588	3
0	1793	363.589961747938	2
0	1800	363.872085293032	1
0	1807	366.108706343776	0
0	1846	369.281240912661	1
0	1847	369.882597918121	0
0	1879	379.660472478973	1
0	1880	379.969241608167	0
0	1909	386.456415014488	1
0	1913	387.855424986867	2
0	1914	387.912580485994	1
0	1919	388.432948178079	0
0	1975	396.79724205835	1
0	1976	397.094371578558	0
0	1997	399.411997305682	1
0	1999	399.827269467159	0
0	2046	406.388577195644	1
0	2048	407.477697511971	2
0	2049	409.52818490729	1
0	2055	409.808503245998	0
0	2076	412.670954931638	1
0	2079	413.348941654674	0
0	2086	414.540731344335	1
0	2087	414.597570098572	0
0	2114	418.070260799204	1
0	2115	418.182057827311	0
0	2138	420.722151952868	1
0	2139	420.785826356065	0
0	2163	424.392028042145	1
0	2167	425.547242230075	2
0	2168	426.902181964471	1
0	2174	428.699833515606	0
0	2190	430.477414272424	1
0	2192	430.483515527207	2
0	2194	430.657199115065	1
0	2200	430.842642119039	0
0	2259	443.865997711387	1
0	2261	443.978520081079	2
0	2263	444.651286192396	1
0	2268	445.224601780253	0
0	2272	446.147310576881	1
0	2274	446.607841124273	2
0	2278	447.600211350408	3
0	2280	447.649407205161	4
0	2284	447.827771356502	5
0	2285	447.900632575623	4
0	2290	451.312544145928	3
0	2297	452.112436705647	4
0	2300	452.836051628751	3
0	2308	454.515015046014	4
0	2309	457.55737239838	3
0	2314	457.780526950431	2
0	2320	458.090873071471	1
0	2325	458.720440616893	0
0	2329	461.091174468634	1
0	2331	461.752226826962	2
0	2335	462.373610954642	3
0	2336	462.749991445841	2
0	2341	463.464250104911	1
0	2346	464.295332284086	0
0	2370	465.819108356365	1
0	2371	466.015095210939	0
0	2375	466.059145534649	1
0	2377	466.518923740567	2
0	2386	468.226299192547	1
0	2392	469.372674632109	0
0	2410	472.66795526594	1
0	2412	473.068497398458	0
0	2419	473.306591168553	1
0	2420	473.916112847215	0
0	2429	475.397824024464	1
0	2432	476.028266927436	2
0	2433	476.180148617386	1
0	2439	477.930763258654	0
0	2449	480.653700816989	1
0	2451	481.609695126243	2
0	2452	482.03871414538	1
0	2457	482.453129718443	0
0	2469	483.588408564968	1
0	2471	483.669030075365	2
0	2477	485.32434226416	3
0	2479	485.661904923191	4
0	2482	485.716202015662	5
0	2483	485.937048543075	4
0	2488	487.345766655817	3
0	2493	488.129021734645	2
0	2499	490.631627742388	1
0	2506	490.93645365199	0
0	2525	492.447536873446	1
0	2527	495.927901780602	0
0	2535	496.291659843946	1
0	2537	496.488746042139	2
0	2539	497.336757408658	1
0	2544	497.421324574108	0
0	2611	511.709499329901	1
0	2616	513.362843380134	0
0	2672	523.471320719907	1
0	2673	524.259415063432	0
0	2681	524.72916200858	1
0	2683	525.825866633601	0
0	2714	531.148879826718	1
0	2716	531.513593717976	2
0	2718	531.665942333335	3
0	2720	532.162915401606	2
0	2727	533.52627566167	1
0	2732	534.341564593933	0
0	2742	535.610655416793	1
0	2743	535.981650569183	0
0	2779	542.805895083441	1
0	2780	543.199863606001	0
0	2858	557.713762731363	1
0	2859	558.305062004414	0
0	2865	558.381407059503	1
0	2869	559.034283614324	2
0	2870	560.363809487885	1
0	2875	560.41780690627	0
0	2919	566.718229972446	1
0	2920	566.90197163725	0
0	2946	574.315725522803	1
0	2949	575.133029362498	2
0	2951	575.396545042884	3
0	2953	575.745627070954	4
0	2954	576.951356884506	3
0	2961	577.990583375044	4
0	2962	578.048409811562	3
0	2967	578.111191480622	2
0	2975	578.8269549273	3
0	2977	578.842659300271	4
0	2978	579.319087858195	3
0	2983	579.675391470127	2
0	2988	579.683114338007	1
0	2992	579.749175138353	2
0	2997	581.591954246413	1
0	3005	582.591265394419	0
0	3028	584.913451311069	1
0	3029	585.69940643617	0
0	3106	601.197158188089	1
0	3108	601.226632455109	2
0	3111	602.28616601358	3
0	3112	602.43957278747	2
0	3117	602.712060819865	1
0	3123	602.928569830055	2
0	3124	603.303342898272	1
0	3130	604.997192772469	2
0	3131	605.661679709356	1
0	3137	607.010602345449	2
0	3139	607.246353086001	1
0	3146	608.204467926339	0
0	3150	609.21854782473	1
0	3154	611.482444168076	2
0	3155	611.665399739584	1
0	3165	613.870985280552	2
0	3167	614.416909521272	3
0	3171	616.074164345184	4
0	3175	617.69360319818	5
0	3176	617.695855708139	4
0	3181	617.869961922602	3
0	3186	619.142976282909	2
0	3190	619.361707350294	3
0	3192	620.251019588376	4
0	3194	621.209287655822	5
0	3199	622.49601752485	6
0	3202	624.267740559642	7
0	3204	625.072425836507	6
0	3210	625.895457228775	7
0	3213	626.786757100166	6
0	3218	627.033642573399	5
0	3224	627.822861456024	4
0	3229	628.099815417818	3
0	3234	628.64314495687	2
0	3240	629.826327124235	3
0	3242	629.959192372634	4
0	3243	630.951450464088	3
0	3247	631.095673128616	4
0	3250	633.403592324655	3
0	3256	637.638653782114	4
0	3257	637.922898826459	3
0	3261	638.72529132659	4
0	3265	639.707840866362	5
0	3266	639.867739954893	4
0	3270	640.738985839179	5
0	3272	640.880584816961	6
0	3275	642.095559310012	5
0	3280	642.702917987253	4
0	3284	643.431041338193	5
0	3286	643.615152780705	6
0	3289	645.579912042377	5
0	3293	645.982735094477	6
0	3297	646.53198557564	7
0	3299	646.626468054353	8
0	3300	647.168838310718	7
0	3307	648.800628475002	6
0	3316	650.131725146022	7
0	3317	651.201610641535	6
0	3322	653.566195847702	5
0	3328	654.649546991362	6
0	3335	658.705515003541	5
0	3340	659.696793893713	4
0	3348	661.007986971235	3
0	3356	661.351937501998	2
0	3362	661.389896802554	3
0	3363	661.622684174556	2
0	3372	664.84275575989	3
0	3373	665.531919775019	2
0	3378	666.106474510751	1
0	3386	666.695536470056	2
0	3390	668.686389266325	1
0	3395	668.828735534691	0
0	3422	674.509407026453	1
0	3424	674.985829169402	2
0	3425	675.045987035083	1
0	3433	676.019165450562	0
0	3439	676.368541965129	1
0	3441	676.724856607283	0
0	3447	677.008017349239	1
0	3448	677.737153053162	0
0	3452	677.861170774501	1
0	3454	678.436302037748	2
0	3456	679.175975179546	3
0	3460	682.878128461428	4
0	3463	683.117832728347	3
0	3470	684.802052584447	2
0	3475	684.994313234614	1
0	3480	687.410764447231	0
0	3484	687.758907335389	1
0	3494	693.554915042334	2
0	3495	693.650540406781	1
0	3501	695.155818866638	0
0	3507	695.537691473742	1
0	3508	696.158539428547	0
0	3514	698.080269666653	1
0	3516	698.156411191979	2
0	3522	699.08384330351	3
0	3524	699.473484852872	4
0	3527	699.651492584551	3
0	3533	699.722802172169	4
0	3534	700.323704709354	3
0	3539	700.591197004345	2
0	3543	701.156404874607	3
0	3545	702.948417278203	4
0	3549	705.325948207711	3
0	3557	706.481586312517	2
0	3562	706.841173943866	1
0	3567	707.099057698748	0
0	3578	710.639809348271	1
0	3580	710.99755463709	2
0	3581	711.065395552624	1
0	3586	711.205660883519	0
0	3592	712.320807744173	1
0	3594	713.489104092626	0
0	3642	718.172300175877	1
0	3644	718.405950808906	2
0	3645	719.700513429374	1
0	3655	720.718595505253	0
0	3668	721.843962730753	1
0	3672	722.825205131062	2
0	3673	723.050890742868	1
0	3678	723.193281695787	0
0	3689	724.352349026366	1
0	3693	725.401292346069	2
0	3698	727.720492087001	3
0	3700	728.008899646223	4
0	3701	728.707276513898	3
0	3709	728.905254570512	4
0	3712	731.316623757448	3
0	3717	731.772078858886	2
0	3721	732.7022630312	3
0	3725	733.523036640164	4
0	3730	735.375171082075	3
0	3735	736.04193040316	2
0	3739	736.312185483225	3
0	3744	738.988739953343	2
0	3748	741.038396568677	3
0	3752	741.304867862423	2
0	3757	741.803407309061	1
0	3764	742.289278061731	2
0	3765	742.41906702546	1
0	3770	742.86513693674	0
0	3774	742.865216650035	1
0	3778	743.673804043959	2
0	3779	743.712310520873	1
0	3783	743.909322062689	2
0	3786	744.291879563138	1
0	3792	745.484426285879	2
0	3795	746.890861579076	3
0	3796	747.761003627956	2
0	3802	748.479584903356	3
0	3804	748.508951006642	4
0	3805	748.751954039171	3
0	3809	749.444422634803	4
0	3814	750.606867426676	3
0	3821	751.88011288236	2
0	3825	752.064220161265	3
0	3829	753.506561687304	2
0	3834	753.651425528108	1
0	3842	756.484885510718	0
0	3855	758.971027052856	1
0	3856	759.646944525507	0
0	3882	766.167208083604	1
0	3884	766.763361312019	2
0	3885	767.69443827536	1
0	3893	770.087159083439	0
0	3899	770.694639197738	1
0	3902	771.089523079183	0
0	3924	773.184897430657	1
0	3926	773.99208787953	2
0	3928	774.24448829791	3
0	3929	774.894109167491	2
0	3935	775.241730998671	3
0	3936	775.286925383413	2
0	3942	775.546882641881	3
0	3943	775.572592534968	2
0	3950	776.065863291066	1
0	3957	776.158934162652	2
0	3958	776.557895528348	1
0	3965	776.891449936294	0
0	4002	781.057003686306	1
0	4003	781.316744507475	0
0	4009	781.630219424736	1
0	4010	782.059873831403	0
0	4040	785.909273961337	1
0	4045	788.705668839652	0
0	4054	789.555317578509	1
0	4058	792.756938716061	2
0	4060	792.987178773425	3
0	4061	793.100078472557	2
0	4069	795.677215128109	1
0	4075	796.045833355945	0
0	4098	797.389269930162	1
0	4100	798.682808417402	2
0	4105	799.902438246934	1
0	4110	799.921210166614	0
0	4129	801.405706041727	1
0	4130	801.871433745039	0
0	4151	803.031613593719	1
0	4152	803.200563636981	0
0	4161	803.929914396421	1
0	4164	805.26638536095	0
0	4170	805.493614562424	1
0	4173	806.892008631382	0
0	4179	807.332301429133	1
0	4180	807.506972207067	0
0	4187	808.249230359545	1
0	4191	808.634141297587	0
0	4208	810.029605853238	1
0	4209	810.563419355809	0
0	4215	810.725818318179	1
0	4217	811.302843936797	0
0	4231	812.863520292565	1
0	4232	812.876663301972	0
0	4239	813.236730600053	1
0	4245	813.962671766706	0
0	4276	819.647414877661	1
0	4278	819.741976860282	2
0	4282	821.699149675968	3
0	4283	823.257570879963	2
0	4289	823.712201926257	3
0	4290	823.929187530176	2
0	4295	824.567586426281	1
0	4300	824.641387537232	0
0	4306	824.87681976568	1
0	4307	825.072517628996	0
0	4320	826.27933749404	1
0	4322	826.28134019174	2
0	4336	831.487628042204	3
0	4340	833.301428967884	4
0	4345	834.845494213035	3
0	4350	834.916432726871	2
0	4355	835.378720406681	1
0	4362	836.152082360088	0
0	4386	839.588957527949	1
0	4388	839.6625901292	2
0	4389	839.864808062876	1
0	4393	839.901750400252	2
0	4397	841.447862948611	3
0	4399	841.570707197268	4
0	4401	843.124916727956	5
0	4405	845.126918849385	6
0	4406	845.145014875424	5
0	4413	846.059251528322	4
0	4418	846.740887422299	3
0	4422	847.242013259073	4
0	4424	847.339586168091	5
0	4428	847.582065902797	6
0	4431	848.814589251693	5
0	4435	849.206481280442	6
0	4439	850.044823006318	5
0	4444	850.427514708287	4
0	4451	852.307212262528	3
0	4456	852.953907677886	2
0	4461	853.870999901382	1
0	4465	853.983489132044	2
0	4467	853.985237792238	3
0	4469	854.460435004029	4
0	4473	854.672188494052	5
0	4474	855.650322038507	4
0	4479	855.875617412349	3
0	4484	857.465670900513	2
0	4490	858.68420844834	3
0	4494	858.751247830349	4
0	4497	859.135598303654	3
0	4504	860.181244710624	4
0	4505	860.26261745811	3
0	4510	861.667123089806	2
0	4515	861.781780414318	1
0	4519	861.853252101045	2
0	4521	863.829501023701	3
0	4524	865.132567236118	2
0	4531	865.999887628318	1
0	4536	866.985411744596	0
0	4564	868.982001440549	1
0	4566	869.129874466038	2
0	4567	869.263078006078	1
0	4573	869.581774300041	0
0	4607	874.139060878952	1
0	4608	874.287770431471	0
0	4622	874.613067751152	1
0	4626	876.435759925379	0
0	4637	876.54876772513	1
0	4640	877.461600036604	0
0	4651	877.530594253105	1
0	4655	877.590583124209	2
0	4657	877.895482550926	3
0	4659	878.448126458029	2
0	4667	880.640453540953	1
0	4672	881.052430520954	0
0	4676	881.484275391908	1
0	4678	881.676005434601	2
0	4680	882.522055017231	3
0	4683	884.177229991205	2
0	4690	885.822721405204	1
0	4695	886.051179103909	0
0	4718	890.614596771989	1
0	4721	894.97582568424	0
0	4751	902.206162174559	1
0	4754	905.241370450979	0
0	4760	905.254353038677	1
0	4766	905.670567938929	0
0	4790	909.571946344703	1
0	4793	910.333213826083	0
0	4870	922.52959001626	1
0	4871	923.319341409122	0
0	4885	925.249490015997	1
0	4887	925.273420283296	2
0	4889	925.560904155152	1
0	4894	926.316703176501	0
0	4907	927.174377145524	1
0	4909	927.242242382609	2
0	4910	927.301595598039	1
0	4914	927.49599444866	2
0	4917	928.16365121245	1
0	4923	928.310342624497	2
0	4924	928.536605338664	1
0	4928	928.54302152906	2
0	4930	929.247706500847	3
0	4932	929.26787255766	4
0	4938	930.70833917489	5
0	4939	931.395984800707	4
0	4944	933.146245775165	3
0	4949	934.339993567558	2
0	4953	934.606953474487	3
0	4959	935.061232241483	4
0	4960	935.385648849006	3
0	4966	935.942989224632	4
0	4970	937.402147384404	3
0	4975	937.447341765239	2
0	4979	937.702154988167	3
0	4982	937.813095406109	2
0	4986	938.424373821715	3
0	4990	939.425621503852	4
0	4992	939.555140503792	5
0	4996	941.633193899282	6
0	4997	942.500307564264	5
0	5002	942.848727064672	4
0	5006	942.87363252489	5
0	5008	943.744874395992	6
0	5015	945.444877687517	5
0	5021	946.150044264933	6
0	5024	947.406873404467	7
0	5025	947.440776377173	6
0	5030	948.588502999683	5
0	5035	948.774331443634	4
0	5039	949.234911067007	5
0	5041	951.621051691036	6
0	5044	951.865700668077	5
0	5055	953.686215063359	4
0	5060	954.357668824073	3
0	5065	954.435210371212	2
0	5074	955.331600478106	1
0	5078	955.720615592533	2
0	5081	956.620594740091	1
0	5086	956.831433736341	0
0	5124	962.64566775675	1
0	5130	965.773272194096	2
0	5131	965.795080533816	1
0	5140	967.6590946811	2
0	5141	967.863717516861	1
0	5146	968.443190182092	0
0	5164	969.730899553263	1
0	5165	970.051517477421	0
0	5183	970.428368172893	1
0	5186	970.693808500511	2
0	5188	970.752655408075	3
0	5190	970.963223664551	4
0	5191	971.466594360083	3
0	5196	971.542766697171	2
0	5202	971.699005593688	3
0	5203	971.800160056848	2
0	5208	971.909795926741	1
0	5212	972.511644565935	2
0	5215	973.082995519634	1
0	5221	974.880062902396	2
0	5223	975.410440750993	1
0	5229	976.917615654058	2
0	5233	977.058546978112	3
0	5234	977.270384300729	2
0	5241	978.020490909036	1
0	5246	978.403355873592	0
0	5250	980.130280166397	1
0	5252	980.404007266849	2
0	5255	981.744391071552	1
0	5261	982.441650806328	2
0	5265	982.873991850618	3
0	5268	983.761580557872	4
0	5269	983.903773921616	3
0	5275	984.15572422744	2
0	5282	984.588118047178	3
0	5284	984.882454852908	4
0	5286	986.206989207118	3
0	5291	986.60937652426	2
0	5297	986.792475110039	3
0	5298	986.998799848521	2
0	5303	987.262421584484	1
0	5308	988.485650491229	0
0	5345	995.578293529215	1
0	5348	998.019923765517	0
0	5359	999.13272088676	1
0	5361	1000.506785432215	2
0	5367	1001.326743459877	3
0	5368	1001.404177381939	2
0	5373	1002.284905989044	1
0	5377	1006.774780675594	2
0	5379	1007.759061077971	3
0	5381	1008.494697757079	4
0	5383	1008.778250392466	5
0	5385	1009.611884011364	6
0	5387	1010.259405994569	7
0	5389	1011.166024844279	8
0	5393	1011.815286886259	7
0	5398	1012.139209074241	6
0	5403	1012.376895418894	5
0	5410	1014.234184018781	4
0	5419	1016.065283794974	3
0	5424	1016.266412663461	2
0	5429	1018.254275628657	1
0	5435	1020.327763317297	0
0	5448	1021.35524454631	1
0	5449	1022.146818530874	0
0	5465	1023.764646674241	1
0	5468	1024.900842197165	2
0	5469	1024.953320138813	1
0	5474	1025.354344479837	0
0	5520	1032.144060166743	1
0	5522	1032.312586671601	2
0	5524	1032.415649233727	3
0	5525	1033.054983045943	2
0	5531	1033.152545793666	1
0	5537	1033.579611679332	2
0	5538	1033.709685031267	1
0	5548	1036.318515143975	2
0	5549	1036.778703650371	1
0	5554	1036.814281595503	0
0	5566	1037.795804024366	1
0	5567	1037.853140555154	0
0	5578	1038.683976869512	1
0	5580	1039.701235232444	2
0	5585	1040.535850883003	1
0	5591	1040.818612430269	2
0	5593	1041.272636420745	3
0	5596	1041.997208292127	2
0	5604	1043.390929962861	1
0	5609	1043.534006458106	0
0	5626	1045.032605268849	1
0	5627	1045.174873456098	0
0	5633	1045.260765643009	1
0	5635	1045.361046511745	2
0	5636	1045.412790593213	1
0	5642	1047.880541833327	2
0	5644	1048.339881297112	3
0	5648	1049.256294351043	4
0	5649	1049.635310290216	3
0	5656	1051.102511662694	2
0	5663	1052.113830178977	1
0	5669	1052.168654327237	2
0	5671	1052.392970643918	1
0	5677	1052.917240323783	2
0	5679	1053.360832421408	3
0	5681	1053.54193323383	4
0	5685	1054.846474842644	3
0	5690	1054.987128931799	2
0	5695	1055.097954376456	1
0	5699	1055.196147720233	2
0	5702	1056.640370243188	1
0	5708	1059.111585202132	2
0	5709	1059.641094735322	1
0	5715	1060.098798928336	2
0	5718	1060.545615447517	1
0	5723	1061.227161951099	0
0	5760	1067.234190402962	1
0	5762	1067.61311407673	0
0	5769	1068.424410362164	1
0	5770	1069.272991159201	0
0	5784	1071.103417568207	1
0	5785	1071.226109127875	0
0	5797	1072.659793192971	1
0	5802	1073.560360629391	2
0	5804	1075.665799666265	3
0	5805	1075.671123261549	2
0	5812	1076.402397124432	1
0	5817	1078.94306935625	0
0	5821	1081.17627540752	1
0	5823	1081.2069835911	2
0	5825	1081.632875498736	3
0	5827	1082.025495501355	4
0	5831	1083.596460697941	5
0	5832	1083.65561319954	4
0	5840	1085.25384070828	5
0	5842	1085.975327238824	6
0	5843	1086.458182370318	5
0	5849	1086.51591347141	6
0	5850	1086.699540872552	5
0	5855	1087.285168888733	4
0	5861	1089.238877521911	3
0	5866	1089.627709162633	2
0	5874	1090.256492475899	3
0	5878	1090.711215227707	4
0	5882	1091.043726091672	5
0	5883	1091.169663157718	4
0	5887	1092.009308204201	5
0	5895	1097.569228172449	4
0	5901	1097.789970595061	5
0	5903	1098.521497590565	4
0	5908	1099.337524229453	3
0	5913	1100.77292885198	2
0	5918	1101.843588244473	1
0	5923	1104.114193824914	0
0	5939	1106.583537707109	1
0	5940	1106.970207035944	0
0	5965	1110.082905843624	1
0	5967	1110.227464321477	2
0	5968	1110.569941508403	1
0	5972	1112.333985016783	2
0	5974	1114.241542449958	3
0	5977	1116.169093940625	2
0	5983	1116.639035461415	3
0	5985	1117.158804584295	2
0	5990	1117.203760413333	1
0	5996	1119.130492820828	2
0	5998	1120.466807686992	3
0	6001	1120.878914263477	4
0	6002	1121.474203611924	3
0	6009	1121.577196451616	2
0	6015	1122.125305169902	3
0	6019	1123.510665500454	2
0	6025	1123.934470043822	1
0	6029	1124.447238961257	2
0	6032	1126.086964488274	1
0	6037	1127.201485413978	0
0	6081	1133.284879553438	1
0	6085	1133.416546582338	2
0	6094	1136.695424016667	3
0	6096	1137.001242739286	2
0	6101	1137.076277841014	1
0	6106	1137.759052383758	0
0	6115	1138.68182001128	1
0	6119	1139.814181600248	0
0	6128	1140.756419713039	1
0	6131	1141.389651554688	0
0	6145	1142.499323085383	1
0	6147	1142.895699572675	2
0	6149	1143.891398280864	3
0	6150	1144.214649589676	2
0	6156	1145.330305766554	1
0	6161	1145.555676180978	0
0	6192	1150.585984843201	1
0	6195	1151.653739992145	0
0	6215	1154.932212331809	1
0	6220	1155.331527283565	0
0	6231	1156.935908584515	1
0	6232	1157.064498436806	0
0	6247	1159.606629417224	1
0	6251	1160.257388404004	2
0	6256	1163.228145432639	3
0	6260	1163.992385645561	4
0	6261	1164.548254513533	3
0	6267	1165.689986183756	4
0	6269	1166.277807939724	5
0	6271	1167.265798063039	6
0	6272	1167.873176629563	5
0	6278	1168.752942969222	6
0	6279	1169.140613556558	5
0	6283	1169.58928931435	6
0	6289	1173.369005684682	5
0	6294	1173.586671908983	4
0	6299	1175.786826379085	3
0	6303	1179.468444943578	4
0	6305	1180.424924152923	5
0	6307	1180.507260053942	6
0	6311	1180.817233189773	5
0	6320	1181.691257880279	4
0	6325	1182.260996287813	3
0	6330	1183.327347729542	2
0	6334	1186.048382245589	3
0	6336	1186.31021905034	4
0	6338	1187.37187024107	5
0	6341	1188.269020877003	4
0	6349	1189.488454267301	5
0	6351	1190.450756956303	4
0	6357	1190.733617663038	3
0	6362	1191.064734968047	2
0	6367	1193.158190615615	1
0	6372	1193.962209731285	0
0	6391	1195.960052046419	1
0	6395	1197.220411127254	2
0	6396	1197.923140015152	1
0	6402	1198.667380588097	2
0	6405	1199.724262233003	1
0	6411	1199.756606772891	2
0	6413	1201.346965054745	3
0	6415	1201.498974313856	4
0	6417	1201.517657361349	5
0	6419	1202.114317965519	6
0	6421	1204.338909586367	7
0	6423	1204.69697874616	8
0	6424	1204.810893747702	7
0	6429	1204.886199907668	6
0	6436	1206.862782945955	7
0	6437	1206.937060869804	6
0	6444	1207.769138374607	5
0	6450	1210.618467078249	6
0	6452	1211.259465291312	7
0	6453	1211.753641384039	6
0	6459	1212.910253635639	7
0	6463	1215.052717020208	6
0	6468	1215.734494835045	5
0	6473	1215.927392933175	4
0	6477	1216.462362986469	5
0	6479	1217.530756565643	6
0	6482	1218.082371293393	5
0	6487	1218.417170135168	4
0	6492	1219.095379461636	3
0	6497	1219.699124794272	2
0	6502	1220.218043523988	1
0	6506	1220.261831905072	2
0	6508	1221.356159315461	3
0	6510	1221.643491048203	4
0	6512	1221.786761902916	5
0	6515	1223.124610418184	4
0	6522	1223.977414430182	3
0	6528	1225.157321387803	4
0	6529	1226.317901877433	3
0	6533	1227.035883636917	4
0	6536	1228.633584068642	3
0	6541	1233.224743189579	2
0	6545	1233.749868087166	3
0	6551	1234.54091242728	2
0	6557	1234.661255207798	3
0	6558	1235.586169490939	2
0	6563	1235.830123106878	1
0	6567	1237.384138111354	2
0	6570	1240.354759617686	1
0	6574	1241.452358527224	2
0	6576	1241.891853655739	3
0	6580	1244.664313483533	2
0	6589	1245.547162860199	3
0	6593	1246.374353517951	4
0	6594	1247.75233851261	3
0	6602	1249.138802095412	2
0	6607	1249.583771107819	1
0	6617	1251.010682881604	2
0	6619	1251.35598064414	3
0	6621	1252.110588623916	4
0	6624	1253.806150597845	3
0	6629	1253.810186299438	2
0	6634	1254.002450565874	1
0	6639	1254.161747212519	0
0	6663	1256.936371212822	1
0	6665	1257.123042384362	2
0	6668	1257.23030840469	3
0	6671	1257.836067035389	2
0	6677	1258.071247431321	3
0	6679	1258.493483561957	4
0	6680	1259.216167605674	3
0	6685	1259.405246788401	2
0	6690	1260.387180175305	1
0	6696	1261.109953837065	2
0	6699	1262.639408252579	1
0	6703	1263.678962202284	2
0	6706	1264.155469853052	1
0	6712	1265.472228069913	0
0	6725	1267.999647650749	1
0	6727	1268.481896681804	2
0	6728	1268.625006538601	1
0	6732	1268.629883005307	2
0	6734	1268.850493349678	3
0	6741	1271.441933677919	2
0	6749	1273.861737772927	3
0	6751	1274.164437318528	4
0	6755	1275.840537857933	5
0	6757	1277.782634854582	6
0	6759	1277.845270059296	7
0	6760	1279.758791970514	6
0	6764	1280.768765165778	7
0	6767	1281.008867263591	6
0	6772	1282.804461196644	5
0	6777	1285.028825723154	4
0	6782	1285.367449380691	3
0	6796	1288.035832925428	2
0	6801	1288.12672948509	1
0	6808	1291.204235018881	0
0	6826	1292.387435957483	1
0	6827	1292.499262801166	0
0	6839	1295.183751748664	1
0	6842	1295.916889751048	0
0	6848	1296.66764195425	1
0	6851	1297.178333556728	0
0	6855	1297.221966624957	1
0	6863	1300.133175582597	2
0	6865	1300.341199783715	3
0	6867	1300.60651872596	4
0	6869	1301.335381638588	5
0	6870	1301.582195312379	4
0	6874	1301.691701160619	5
0	6876	1302.152301566966	6
0	6878	1302.713195668023	7
0	6880	1302.99843462344	8
0	6882	1303.147513978931	9
0	6887	1303.796833318815	10
0	6888	1303.946032899495	9
0	6893	1304.265840371978	8
0	6897	1305.1657886586	9
0	6900	1306.050500920265	8
0	6906	1307.82889831904	7
0	6913	1308.469551511158	6
0	6917	1309.027215788554	7
0	6921	1311.627227312681	6
0	6926	1311.935244914175	5
0	6931	1312.531991069714	4
0	6937	1313.325047803193	5
0	6939	1313.478736001984	6
0	6944	1314.448165676524	7
0	6946	1314.479901642203	8
0	6947	1314.720241925274	7
0	6952	1316.478938328724	6
0	6967	1320.216368527192	5
0	6972	1320.280828777255	4
0	6978	1322.268708275837	3
0	6983	1322.728165525251	2
0	6989	1324.378859853267	3
0	6994	1325.531818207056	2
0	6999	1327.405604420257	1
0	7003	1328.075180084865	2
0	7010	1330.953333233766	1
0	7016	1332.203410149495	0
0	7022	1333.004382171889	1
0	7023	1333.254885962614	0
0	7027	1333.314556754316	1
0	7030	1333.443699501232	0
0	7057	1335.333914229661	1
0	7061	1336.759399175584	0
0	7074	1340.824312794509	1
0	7076	1340.886705927762	2
0	7082	1341.357192301829	3
0	7084	1342.23599607042	2
0	7091	1343.157427311276	1
0	7096	1344.2629652463	0
0	7113	1346.459814435337	1
0	7117	1347.467368468931	2
0	7118	1348.074399419668	1
0	7127	1348.631736153027	2
0	7130	1348.960204375003	1
0	7135	1349.147543158346	0
0	7146	1349.653149617463	1
0	7148	1351.123265462747	0
0	7172	1353.799764071389	1
0	7174	1354.004527993706	2
0	7177	1355.418062110352	1
0	7186	1357.50849449496	2
0	7187	1357.57890901227	1
0	7193	1357.767954011667	0
0	7199	1358.2865438847	1
0	7203	1358.592744513506	0
0	7210	1359.586792299901	1
0	7211	1359.668708542194	0
0	7230	1362.10028535818	1
0	7233	1362.932015143999	0
0	7239	1363.574336334394	1
0	7241	1363.872561085147	2
0	7242	1364.346898306634	1
0	7247	1364.558129050665	0
0	7273	1366.767504571209	1
0	7277	1367.447435740578	2
0	7283	1368.75305191133	1
0	7288	1368.761943521891	0
0	7309	1370.261579489347	1
0	7312	1370.728479406991	2
0	7314	1370.776393876213	3
0	7316	1371.159715089841	4
0	7317	1371.474453117291	3
0	7324	1371.675672421057	4
0	7326	1373.049430245165	5
0	7328	1373.097263054249	6
0	7329	1373.307575153147	5
0	7335	1374.338548285323	6
0	7338	1375.024397918217	5
0	7344	1377.58775632674	4
0	7350	1378.00242371737	3
0	7355	1378.320092976365	2
0	7361	1378.777320586945	1
0	7366	1379.59251862719	0
0	7372	1380.143948593975	1
0	7373	1380.198736260597	0
0	7389	1380.429695965937	1
0	7391	1381.044995174495	0
0	7399	1381.368660513351	1
0	7401	1382.59467640277	0
0	7426	1386.481693430409	1
0	7428	1387.37914142542	0
0	7442	1389.522973818984	1
0	7445	1390.116906728482	0
0	7490	1394.782531900478	1
0	7498	1396.899135802559	2
0	7500	1396.942237587334	3
0	7501	1397.394589085362	2
0	7510	1398.047566760115	1
0	7516	1398.27957596744	0
0	7554	1407.623402485576	1
0	7556	1407.644965566299	2
0	7563	1410.186343532113	3
0	7564	1410.443475261202	2
0	7569	1410.968202219125	1
0	7577	1413.393697245415	0
0	7588	1416.285848162591	1
0	7590	1416.387595319762	2
0	7592	1416.561878137755	3
0	7593	1416.821421985628	2
0	7599	1417.642879030887	1
0	7604	1418.24601379474	0
0	7615	1418.691611218595	1
0	7616	1419.072152074701	0
0	7645	1420.88405800034	1
0	7647	1422.690694722459	0
0	7666	1425.570678161261	1
0	7669	1426.051806735539	2
0	7671	1426.328841444634	1
0	7676	1426.416535495336	0
0	7682	1427.440606015968	1
0	7683	1427.838046796381	0
0	7719	1432.175314831158	1
0	7725	1433.597603930219	2
0	7728	1434.364936081417	3
0	7730	1434.601168896288	4
0	7734	1435.066206925655	5
0	7736	1436.86784465593	4
0	7742	1438.210497917022	3
0	7747	1439.261607669507	2
0	7752	1439.709339652247	1
0	7757	1440.805704805249	0
0	7774	1442.636808365529	1
0	7777	1443.376361719851	2
0	7779	1443.452536317665	3
0	7781	1443.92867430106	4
0	7784	1444.682995054717	5
0	7787	1445.314587407178	4
0	7792	1446.682405692629	3
0	7797	1446.863650482649	2
0	7802	1447.355742163088	1
0	7807	1447.675207788994	0
0	7811	1447.808397145337	1
0	7817	1450.967132216936	2
0	7819	1451.640249713173	1
0	7824	1451.699011788577	0
0	7842	1454.459279317326	1
0	7846	1454.846596639728	0
0	7850	1455.089103156551	1
0	7853	1455.36474060965	0
0	7857	1456.160406636488	1
0	7859	1457.841484618516	2
0	7863	1459.262974645466	1
0	7867	1459.686341747499	2
0	7869	1460.297742454296	3
0	7876	1462.593279130086	2
0	7881	1464.604750954535	1
0	7888	1465.800815836924	0
0	7897	1467.584221090606	1
0	7899	1467.988971312645	2
0	7901	1468.380343738987	3
0	7902	1468.506711899714	2
0	7908	1468.874485920589	3
0	7910	1468.88761892719	4
0	7911	1469.575858431333	3
0	7917	1469.782299940551	4
0	7918	1469.880595885991	3
0	7924	1472.001185203915	4
0	7928	1472.742653500192	5
0	7931	1473.774611102632	4
0	7936	1474.094726810205	3
0	7940	1474.914038919667	4
0	7944	1477.127567591428	3
0	7953	1478.347865124301	2
0	7958	1479.398229760431	1
0	7965	1480.480444426504	2
0	7966	1480.640289332322	1
0	7971	1480.887597659955	0
0	7991	1484.527661937593	1
0	7992	1484.87687848279	0
0	8028	1492.68523147896	1
0	8032	1492.868098462954	2
0	8033	1493.060369623393	1
0	8038	1493.679741124825	0
0	8044	1494.259068707381	1
0	8045	1494.676839033964	0
0	8052	1495.440612338602	1
0	8056	1496.31039007177	0
0	8074	1497.819970229013	1
0	8078	1499.398717877168	0
0	8097	1500.483711769077	1
0	8098	1500.911328665525	0
0	8119	1501.407409306738	1
0	8121	1501.446522001214	2
0	8122	1501.603911410856	1
0	8130	1502.787892919396	0
0	8154	1506.031637807373	1
0	8155	1506.177944222606	0
0	8166	1507.662783786737	1
0	8169	1508.099061531997	0
0	8178	1508.51569622386	1
0	8183	1510.398475709412	0
0	8194	1513.587815589684	1
0	8198	1514.732403852374	0
0	8207	1515.701538205893	1
0	8210	1515.856651166446	2
0	8211	1515.883824582478	1
0	8217	1516.704937851103	0
0	8231	1518.164916189406	1
0	8233	1519.036395371746	2
0	8235	1520.473412821328	3
0	8237	1520.519675295867	4
0	8240	1522.064228257937	3
0	8246	1522.575097994778	2
0	8252	1522.798944928092	3
0	8254	1522.988573851794	4
0	8258	1523.56376072606	5
0	8260	1524.337652035702	4
0	8267	1526.281167197873	3
0	8273	1527.943659759666	4
0	8275	1528.23568708108	5
0	8277	1528.598002983454	6
0	8278	1528.982003879783	5
0	8284	1529.035488363598	6
0	8289	1530.211869416999	7
0	8291	1530.24969691226	8
0	8294	1532.112995625613	7
0	8299	1533.54429109175	6
0	8304	1533.850283588707	5
0	8311	1534.498802707713	4
0	8316	1534.597926673131	3
0	8321	1534.736815625583	2
0	8326	1535.847481770937	1
0	8330	1536.716492503502	2
0	8332	1537.004175158691	3
0	8335	1539.231869335732	2
0	8343	1540.90852011695	3
0	8344	1541.532711202916	2
0	8349	1542.783309832534	1
0	8355	1544.202673688577	2
0	8358	1545.270525589349	1
0	8366	1548.064308253783	0
0	8383	1549.711641813643	1
0	8384	1550.747088215129	0
0	8393	1550.934871333633	1
0	8395	1551.531800600148	0
0	8408	1552.661938352953	1
0	8409	1552.948460583062	0
0	8413	1553.787176081374	1
0	8416	1555.041415340001	0
0	8420	1555.274359771778	1
0	8426	1556.124842903208	2
0	8427	1556.900429719768	1
0	8432	1556.936896058759	0
0	8446	1558.625304786732	1
0	8449	1560.384152398652	2
0	8452	1560.447207155283	3
0	8453	1560.466968598594	2
0	8458	1560.624063422285	1
0	8463	1560.838911986609	0
0	8503	1565.574623866523	1
0	8505	1565.611162566499	2
0	8510	1567.761749192063	3
0	8511	1567.920617070394	2
0	8518	1568.446789831326	1
0	8523	1570.609111438	0
0	8547	1572.137379410361	1
0	8550	1573.092583636137	0
0	8554	1573.773646349754	1
0	8556	1574.469954047412	2
0	8561	1575.466957843312	3
0	8563	1575.791676887265	2
0	8569	1576.002450864007	1
0	8574	1576.24183749771	0
0	8616	1584.333458287893	1
0	8617	1584.509178457819	0
0	8632	1586.548663842513	1
0	8636	1587.115486114006	2
0	8640	1587.822110470004	3
0	8641	1587.854766082294	2
0	8648	1588.591952593612	1
0	8653	1589.102395602888	0
0	8664	1589.356632388628	1
0	8666	1589.3931594639	2
0	8674	1592.085776925905	3
0	8678	1592.776528162903	4
0	8680	1593.656373161626	5
0	8681	1594.058806906844	4
0	8687	1594.531043631724	3
0	8693	1594.674048684379	2
0	8699	1594.879240579213	3
0	8701	1595.37913935818	4
0	8703	1595.509544272868	5
0	8704	1595.997169076814	4
0	8710	1596.061469666212	3
0	8720	1598.24673286927	2
0	8725	1599.336214836405	1
0	8731	1599.73697589393	2
0	8733	1600.342996900287	1
0	8739	1600.381632039389	2
0	8740	1600.501420968537	1
0	8746	1600.789189774951	2
0	8747	1600.948301817147	1
0	8754	1604.228527288986	0
0	8775	1609.223362063407	1
0	8776	1609.361634206322	0
0	8782	1609.654408293873	1
0	8784	1610.359347469651	2
0	8785	1611.556576386426	1
0	8791	1613.613637619356	0
0	8834	1617.883324695025	1
0	8838	1620.132391432705	2
0	8840	1620.165978832148	3
0	8842	1620.793650677481	4
0	8844	1621.601954749939	5
0	8846	1622.39417145465	6
0	8853	1624.233952840297	5
0	8858	1625.157566587662	4
0	8865	1626.553217559632	5
0	8866	1626.955366393658	4
0	8872	1627.708069024314	5
0	8875	1628.623325511417	4
0	8880	1628.661692398062	3
0	8887	1630.257997505596	2
0	8893	1631.036439300607	3
0	8894	1631.197994447697	2
0	8898	1631.593619684142	3
0	8901	1633.878538387188	2
0	8906	1634.993248649363	1
0	8910	1635.485447161831	2
0	8917	1637.335872283896	1
0	8923	1637.650543735781	2
0	8924	1637.659592651161	1
0	8929	1637.992617599337	0
0	8941	1639.172358389854	1
0	8942	1640.877759883027	0
0	8954	1641.393243921488	1
0	8956	1642.157736215524	0
0	8960	1643.538145962899	1
0	8963	1643.756830104209	0
0	8967	1644.468072222681	1
0	8971	1646.100441628974	2
0	8975	1646.19038212752	1
0	8980	1646.359394499546	0
0	9014	1652.181843682583	1
0	9017	1652.442814155541	0
0	9023	1654.526479061783	1
0	9027	1654.960017441947	0
0	9051	1658.645743823736	1
0	9053	1660.786685518001	0
0	9059	1661.012963732602	1
0	9061	1661.088657429619	2
0	9063	1661.646018443254	3
0	9064	1662.157320229372	2
0	9070	1663.879762071195	3
0	9071	1664.261569105161	2
0	9080	1665.475424327169	1
0	9087	1666.300857159076	0
0	9097	1667.246681484991	1
0	9099	1667.353038286376	2
0	9100	1667.425616048992	1
0	9106	1668.169104237051	2
0	9108	1668.459165107955	1
0	9115	1669.352433172813	2
0	9116	1669.673297735886	1
0	9121	1671.006786311479	0
0	9156	1674.73206128461	1
0	9157	1675.913566386705	0
0	9176	1680.684237060974	1
0	9178	1681.093297946302	2
0	9180	1682.576754362293	1
0	9187	1684.96600598597	0
0	9198	1686.053995855694	1
0	9199	1686.080869219694	0
0	9205	1687.326115056645	1
0	9207	1688.036615344578	0
0	9218	1688.693734814518	1
0	9219	1688.82723134155	0
0	9252	1693.593764698438	1
0	9254	1693.638544128816	2
0	9255	1693.708810733874	1
0	9264	1694.501308189398	2
0	9266	1694.636541896087	1
0	9272	1694.986729335262	2
0	9273	1696.116848324229	1
0	9280	1697.079638134388	0
0	9292	1700.870985717935	1
0	9293	1700.95922971744	0
0	9326	1705.006839437745	1
0	9328	1705.771077982945	2
0	9330	1706.822894383383	3
0	9332	1707.541937133599	4
0	9334	1707.958092354651	5
0	9341	1711.53106353145	4
0	9349	1712.641238575132	5
0	9353	1714.226422161591	4
0	9359	1715.167223369517	3
0	9364	1715.47371583479	2
0	9369	1716.313123684991	1
0	9374	1716.487180397062	0
0	9397	1717.44241440083	1
0	9398	1717.800603892153	0
0	9404	1718.057083979772	1
0	9409	1718.99188615917	0
0	9416	1719.176142421656	1
0	9417	1719.82588673075	0
0	9450	1724.511447650948	1
0	9454	1724.762544043003	2
0	9455	1725.68584471444	1
0	9463	1726.493416539536	2
0	9464	1726.594313736977	1
0	9469	1728.032177824844	0
0	9475	1729.515785221066	1
0	9476	1729.57743967357	0
0	9480	1729.89999697089	1
0	9482	1730.640216488352	2
0	9485	1730.958503480041	1
0	9494	1735.762261708118	0
0	9500	1735.763106027912	1
0	9503	1736.142991052477	2
0	9504	1736.85169518273	1
0	9510	1737.579466309037	0
0	9527	1739.655000612223	1
0	9529	1740.032704466	2
0	9530	1740.169626874229	1
0	9536	1740.315320274824	2
0	9537	1740.640211763752	1
0	9543	1741.232275280811	2
0	9546	1742.446724108721	3
0	9547	1742.612607099586	2
0	9552	1742.652152209931	1
0	9558	1743.031138306861	2
0	9560	1743.886720626368	1
0	9566	1744.836539484194	2
0	9568	1745.262182706541	3
0	9569	1745.391509996811	2
0	9573	1745.481549740841	3
0	9575	1746.448296927817	4
0	9577	1746.58803979887	5
0	9579	1746.660792160428	6
0	9585	1748.254795879776	7
0	9586	1748.874836413342	6
0	9593	1751.128440115102	5
0	9597	1751.555271843987	6
0	9599	1753.444855812722	7
0	9602	1754.443455750744	6
0	9606	1754.919690224325	7
0	9616	1756.425681413969	8
0	9617	1756.825997938567	7
0	9626	1758.941982619357	6
0	9631	1759.035609652832	5
0	9636	1759.383751404894	4
0	9640	1759.582009491871	5
0	9643	1760.310375492783	4
0	9653	1764.552607862314	5
0	9654	1764.673747316979	4
0	9663	1769.925539604305	3
0	9668	1771.136662440203	2
0	9674	1771.424829040125	3
0	9676	1771.667999516386	2
0	9682	1772.885906521573	1
0	9687	1773.002820051092	0
0	9710	1774.30037558685	1
0	9713	1775.347638967935	0
0	9747	1777.138400118751	1
0	9751	1779.448340272197	2
0	9752	1780.114035625393	1
0	9761	1780.650413010776	2
0	9763	1780.791640057888	3
0	9764	1781.193565856385	2
0	9769	1781.26906687943	1
0	9774	1781.4420509055	0
0	9780	1781.788468566944	1
0	9781	1781.806179110292	0
0	9787	1783.166025457249	1
0	9796	1786.214095161788	0
0	9802	1786.236663945245	1
0	9803	1786.68567209743	0
0	9835	1790.403482344761	1
0	9836	1791.746367198893	0
0	9858	1794.790997661116	1
0	9862	1795.369734724555	0
0	9868	1795.550853129259	1
0	9870	1795.701761540707	2
0	9874	1796.118222847571	3
0	9875	1796.439480821728	2
0	9880	1797.256963617483	1
0	9885	1797.502335565127	0
0	9897	1797.828656071026	1
0	9899	1797.875848699774	2
0	9902	1798.405584552048	3
0	9903	1798.819399911806	2
0	9908	1799.244176282109	1
0	9915	1799.368317102693	0
0	9931	1800.238768558636	1
0	9933	1800.534050811332	2
0	9935	1800.967354951059	1
0	9942	1802.474093434571	0
0	9970	1809.310295665306	1
0	9975	1809.912466417328	2
0	9976	1809.91576055585	1
0	9983	1810.391627404126	0
0	9998	1811.033132792021	1
0	10000	1811.244315391116	2
0	10003	1811.39312137912	1
0	10010	1811.655300931478	2
0	10017	1812.866891143968	3
0	10021	1814.137057275381	4
0	10022	1814.173855574462	3
0	10027	1814.608194303247	2
0	10034	1814.980266588661	1
0	10040	1816.341959417497	0
0	10052	1818.048758087505	1
0	10054	1818.826280218073	0
0	10068	1820.547745721598	1
0	10070	1820.895418482745	2
0	10074	1822.10914755965	3
0	10075	1822.158887027029	2
0	10080	1822.397523951098	1
0	10085	1823.421698671236	0
0	10095	1824.775550169818	1
0	10097	1825.199301956585	2
0	10098	1825.895442379996	1
0	10103	1826.738156546327	0
0	10115	1827.652070735831	1
0	10116	1828.077785769475	0
0	10128	1830.027158521332	1
0	10129	1830.105572979768	0
0	10140	1834.824909919374	1
0	10141	1834.951507166003	0
0	10164	1846.58846828141	1
0	10167	1847.567707614626	0
0	10180	1849.131570493727	1
0	10181	1849.339653558793	0
0	10206	1860.403340437421	1
0	10208	1860.875556703281	0
0	10214	1861.223058204406	1
0	10215	1862.240757386882	0
0	10259	1874.462678045297	1
0	10260	1874.826928173356	0
0	10273	1876.179135671736	1
0	10276	1876.813011517449	2
0	10277	1876.892220559105	1
0	10282	1876.958274490258	0
0	10293	1877.366844278472	1
0	10295	1877.970632320734	2
0	10296	1878.050054344804	1
0	10302	1879.091269446526	0
0	10308	1879.157000445037	1
0	10309	1879.538329369537	0
0	10337	1885.033821888454	1
0	10338	1885.157395147529	0
0	10347	1888.109152275788	1
0	10354	1891.736207915036	2
0	10356	1891.858331546774	3
0	10357	1892.020825512329	2
0	10362	1892.160332514331	1
0	10369	1893.132837857941	0
0	10412	1898.734702514518	1
0	10416	1899.493321179432	2
0	10417	1899.777653736863	1
0	10423	1899.88588040304	2
0	10424	1900.153700601681	1
0	10428	1900.442562630729	2
0	10430	1900.915746745297	3
0	10434	1901.350268992315	4
0	10435	1901.628035266687	3
0	10443	1903.479446257989	2
0	10448	1904.603930067714	1
0	10453	1905.939526527025	0
0	10457	1906.317562683284	1
0	10460	1909.486858629733	0
0	10471	1912.701860787157	1
0	10473	1913.718267180207	2
0	10475	1914.694061526463	3
0	10479	1915.537559517384	4
0	10481	1915.852808680992	3
0	10486	1915.902566306009	2
0	10493	1916.064422503426	1
0	10498	1917.017539109775	0
0	10514	1920.084877232687	1
0	10515	1920.258537461288	0
0	10528	1921.850019061356	1
0	10529	1921.961512612027	0
0	10546	1925.152686063472	1
0	10550	1925.908139503585	2
0	10552	1925.994766817162	3
0	10553	1926.151022303025	2
0	10558	1926.36821517376	1
0	10563	1926.706502077753	0
0	10567	1926.721673559184	1
0	10570	1927.242592740884	0
0	10601	1933.632337893672	1
0	10602	1935.101253786397	0
0	10608	1937.427064362945	1
0	10611	1941.351359775123	0
0	10615	1943.248567967742	1
0	10618	1944.247999289386	0
0	10629	1944.727942458583	1
0	10630	1944.969040405368	0
0	10670	1952.650755447068	1
0	10671	1954.066508083971	0
0	10682	1954.326440173595	1
0	10685	1955.012590890704	2
0	10686	1955.433015518669	1
0	10692	1957.281041077505	0
0	10698	1957.556989470206	1
0	10699	1957.766547455929	0
0	10710	1957.95830342885	1
0	10712	1958.466249478693	0
0	10718	1958.826173920698	1
0	10721	1960.098238756257	0
0	10745	1962.999054011581	1
0	10747	1963.101264540797	2
0	10750	1963.979022913441	3
0	10753	1964.98398591976	4
0	10754	1966.283603714626	3
0	10760	1966.952204919847	4
0	10763	1967.622930909174	3
0	10768	1968.077094154909	2
0	10773	1970.054810563089	1
0	10779	1970.126199248734	2
0	10782	1971.125640277863	3
0	10784	1971.261218201981	4
0	10787	1971.853559842825	5
0	10788	1972.101502558118	4
0	10793	1972.117408123243	3
0	10798	1972.737461583167	2
0	10802	1973.243580528986	3
0	10806	1973.349971224048	4
0	10807	1974.214469024498	3
0	10811	1975.117922973403	4
0	10815	1976.696446334227	5
0	10818	1977.550437556163	4
0	10824	1979.716737199667	5
0	10828	1981.910466790978	6
0	10829	1982.185990423533	5
0	10834	1983.532827862268	4
0	10839	1984.126298502959	3
0	10850	1986.468017118169	2
0	10858	1988.219422502318	1
0	10863	1988.565936283081	0
0	10869	1989.004036163962	1
0	10872	1989.544098263429	0
0	10888	1991.351853698023	1
0	10889	1991.613318360732	0
0	10900	1992.299651678139	1
0	10901	1992.414223956651	0
0	10938	1998.766906601263	1
0	10942	2001.084160478446	2
0	10950	2004.649565095337	1
0	10955	2004.65569539956	0
0	10961	2005.439327067618	1
0	10962	2005.538489844533	0
0	10970	2005.914654836927	1
0	10971	2006.418367423595	0
0	10975	2007.318920379104	1
0	10978	2007.429374467611	0
0	10985	2009.183405224565	1
0	10987	2009.663082823441	2
0	10988	2010.205374507291	1
0	10996	2010.635101616161	2
0	10997	2010.824232774461	1
0	11003	2012.338444544773	2
0	11007	2012.976565187207	3
0	11012	2014.052834995916	2
0	11017	2014.499065974721	1
0	11021	2017.057633408991	2
0	11025	2017.448817798089	3
0	11029	2018.658570059623	4
0	11032	2019.359128403578	3
0	11037	2019.866314889709	2
0	11043	2021.298872278325	1
0	11048	2021.371752520196	0
0	11078	2025.855348872505	1
0	11079	2026.710668286136	0
0	11085	2026.890337039979	1
0	11086	2027.42501162017	0
0	11097	2027.530331582898	1
0	11101	2028.417444064693	2
0	11103	2030.595141498125	3
0	11106	2031.516815164218	2
0	11114	2031.928127551414	3
0	11115	2031.943262099308	2
0	11121	2031.988785034559	3
0	11123	2032.033393023757	4
0	11126	2032.57720355283	5
0	11127	2032.841571706351	4
0	11132	2032.9460278072	3
0	11137	2032.981812175197	2
0	11143	2033.513741945383	3
0	11144	2034.083762189454	2
0	11148	2034.972752744551	3
0	11150	2035.176469873876	4
0	11153	2037.005297107067	3
0	11159	2038.743718698998	2
0	11165	2038.867345493076	1
0	11171	2038.899797736997	2
0	11172	2038.977897537451	1
0	11176	2039.209572841015	2
0	11181	2040.047284444761	1
0	11185	2040.053644472489	2
0	11188	2040.746764308022	1
0	11194	2041.58794493668	0
0	11226	2047.203075404565	1
0	11232	2048.053692365533	0
0	11250	2049.504032184423	1
0	11254	2051.264390917838	0
0	11273	2052.524583072647	1
0	11274	2052.770818274762	0
0	11285	2054.218004730394	1
0	11288	2054.476417384421	2
0	11289	2054.715085160165	1
0	11294	2055.605657233152	0
0	11336	2057.638795262891	1
0	11337	2058.527842980378	0
0	11343	2058.86436740806	1
0	11344	2059.008305742163	0
0	11350	2059.48282988482	1
0	11351	2059.603955895453	0
0	11364	2061.963250265178	1
0	11368	2062.514994164401	0
0	11394	2066.622542936051	1
0	11396	2066.649539588756	2
0	11398	2067.453170764939	1
0	11402	2067.780393205569	2
0	11405	2068.682221696506	1
0	11411	2069.042273232018	2
0	11412	2069.229972304523	1
0	11423	2071.277612413801	0
0	11446	2074.185567373285	1
0	11448	2074.557610814713	2
0	11449	2074.857141426842	1
0	11455	2074.890583310377	2
0	11457	2075.923223284485	1
0	11463	2076.284062713866	0
0	11499	2083.642646304293	1
0	11500	2083.885107669849	0
0	11531	2092.749484355708	1
0	11532	2094.039369145918	0
0	11562	2097.946356905402	1
0	11564	2098.698769920771	2
0	11565	2099.387143662452	1
0	11570	2099.978547858286	0
0	11648	2118.975202843926	1
0	11650	2119.326555801033	0
0	11656	2119.599830250995	1
0	11658	2120.484167215901	0
0	11665	2121.437207510974	1
0	11668	2122.27813622268	0
0	11691	2128.069376188814	1
0	11692	2128.093587666739	0
0	11699	2129.800847722643	1
0	11701	2129.931434520247	2
0	11702	2130.031533762453	1
0	11708	2130.704342339712	2
0	11709	2131.354901589009	1
0	11714	2131.417098873774	0
0	11785	2145.18775793051	1
0	11789	2145.793705205854	2
0	11791	2145.917966935351	3
0	11792	2147.350632247542	2
0	11798	2147.396035793684	3
0	11799	2148.120819628387	2
0	11805	2148.834232373806	1
0	11811	2149.615241413925	2
0	11812	2150.000259252999	1
0	11819	2150.54911362811	0
0	11827	2150.713996515668	1
0	11828	2150.790280787398	0
0	11836	2151.208123361394	1
0	11838	2151.290027582849	2
0	11844	2152.461449282566	1
0	11850	2153.277266890792	2
0	11851	2153.705411818497	1
0	11857	2154.7580418924	0
0	11863	2154.909349517679	1
0	11864	2155.744071553527	0
0	11870	2156.121450231867	1
0	11872	2156.27131860826	0
0	11878	2157.008422339609	1
0	11880	2157.738380141569	2
0	11886	2158.387922451312	3
0	11888	2158.800586421179	4
0	11890	2158.839169380124	5
0	11891	2158.981289306589	4
0	11897	2159.053167861708	5
0	11898	2159.236978330057	4
0	11902	2160.028683129212	5
0	11905	2160.424764798688	4
0	11910	2161.671864539846	3
0	11914	2161.816151577292	4
0	11917	2162.951715609591	3
0	11921	2163.883993290596	4
0	11923	2164.615064250249	5
0	11925	2164.916949550749	6
0	11930	2166.595787444155	5
0	11935	2169.015229988371	4
0	11942	2170.125736720245	3
0	11948	2171.322138534328	4
0	11952	2173.133770577463	5
0	11956	2175.756831701456	4
0	11961	2177.69121323844	3
0	11967	2178.427299805394	4
0	11972	2178.866322092143	3
0	11977	2179.3966021144	2
0	11982	2179.489594482683	1
0	11987	2180.616094570975	0
0	12017	2184.918036153652	1
0	12019	2185.381263649383	0
0	12042	2188.091448560281	1
0	12044	2189.033202971228	0
0	12077	2196.064612491517	1
0	12079	2196.115649169274	2
0	12082	2196.609219284874	1
0	12087	2196.933844985827	0
0	12096	2197.567064521316	1
0	12097	2197.6020611823	0
0	12130	2201.84564685567	1
0	12131	2203.713918247988	0
0	12144	2204.230924333245	1
0	12146	2204.46992884796	2
0	12151	2206.681503343098	1
0	12157	2206.73857486328	2
0	12161	2206.969868721954	3
0	12164	2207.191816154771	4
0	12166	2208.302032245584	3
0	12171	2208.603932136686	2
0	12176	2209.466876865749	1
0	12181	2209.488669272645	0
0	12263	2219.040131231334	1
0	12268	2221.612961080037	0
0	12274	2221.907895755895	1
0	12278	2222.651001152834	2
0	12282	2223.865574478643	3
0	12283	2223.97292278986	2
0	12287	2224.053503966872	3
0	12289	2225.974112234923	4
0	12294	2229.557425898592	3
0	12298	2230.181215666348	4
0	12301	2230.292429865286	3
0	12305	2231.404908280364	4
0	12308	2233.726667836333	3
0	12313	2235.263853232186	2
0	12319	2236.069918593941	1
0	12325	2237.056625679543	0
0	12383	2246.361578783355	1
0	12386	2246.872937922731	0
0	12421	2252.604682337624	1
0	12422	2252.850278821721	0
0	12428	2253.028820633534	1
0	12433	2255.019715377977	2
0	12434	2255.203449412662	1
0	12442	2256.171713275785	0
0	12492	2267.160366904141	1
0	12493	2267.171881411666	0
0	12500	2267.631424955156	1
0	12504	2270.329110338097	0
0	12518	2270.781036036111	1
0	12519	2271.567724020683	0
0	12541	2273.984515490512	1
0	12546	2275.466148924573	0
0	12605	2288.033572325564	1
0	12606	2289.964925183644	0
0	12612	2290.235560725943	1
0	12614	2290.401058326371	2
0	12615	2290.814707645015	1
0	12620	2290.848371175409	0
0	12664	2298.328708076482	1
0	12667	2300.133094957318	0
0	12685	2301.426967488302	1
0	12686	2302.005418329017	0
0	12782	2319.625936336835	1
0	12786	2320.377845806373	2
0	12787	2320.847153118814	1
0	12792	2321.520624360367	0
0	12798	2323.911402387549	1
0	12799	2324.474351236237	0
0	12803	2324.887178976412	1
0	12805	2325.14179398646	2
0	12810	2327.015876479418	1
0	12816	2328.266500858725	2
0	12819	2328.737852656502	1
0	12826	2332.054803465754	0
0	12852	2336.695802405494	1
0	12853	2336.783935684598	0
0	12866	2337.814111784425	1
0	12867	2337.835870067704	0
0	12890	2344.071308409044	1
0	12892	2344.473532399334	2
0	12896	2344.846032544718	1
0	12903	2345.391309187009	0
0	12914	2345.858905442975	1
0	12915	2346.191136199181	0
0	12919	2346.755062564532	1
0	12923	2347.551264976445	2
0	12924	2347.932547026075	1
0	12929	2348.36853498112	0
0	12951	2353.130893012834	1
0	12955	2354.049545365086	2
0	12958	2358.544705685353	1
0	12964	2359.636508637502	0
0	12982	2363.052926638517	1
0	12984	2363.600886228204	2
0	12986	2364.860832335581	3
0	12989	2365.366172243342	2
0	12995	2365.589028424451	3
0	12996	2365.623893068177	2
0	13002	2366.624682133857	1
0	13006	2367.253364097145	2
0	13008	2367.27384124818	3
0	13012	2367.496890147396	4
0	13014	2367.626807927448	5
0	13017	2368.320690418595	4
0	13021	2368.778903666658	5
0	13024	2370.402067847793	4
0	13029	2370.978911844764	3
0	13036	2371.711981388186	2
0	13043	2372.534049074425	3
0	13046	2373.442230303598	4
0	13048	2373.601266692641	3
0	13053	2373.939387411577	2
0	13058	2374.277753238015	1
0	13064	2374.559864069396	2
0	13066	2374.927291286171	1
0	13071	2375.73178913417	0
0	13075	2376.132504073312	1
0	13078	2377.221550759293	0
0	13091	2378.98766873956	1
0	13093	2379.357611421439	0
0	13099	2379.549412634248	1
0	13101	2380.152358644511	0
0	13108	2380.694999211839	1
0	13109	2380.970114988476	0
0	13128	2382.487277041616	1
0	13132	2383.468448818106	2
0	13134	2384.869941973145	3
0	13135	2386.23165471435	2
0	13142	2388.940788736541	1
0	13148	2389.474611620057	2
0	13150	2389.558655092044	3
0	13151	2389.780671795444	2
0	13157	2390.505503484217	1
0	13162	2391.098979355596	0
0	13242	2404.535874747081	1
0	13247	2406.647062991388	2
0	13248	2407.356310850536	1
0	13253	2407.533492296354	0
0	13268	2411.340589494182	1
0	13270	2411.908622348616	2
0	13272	2412.24741111994	3
0	13273	2412.357978274491	2
0	13278	2412.497926303301	1
0	13283	2413.694323424324	0
0	13313	2419.346779559831	1
0	13314	2419.701426227768	0
0	13348	2429.16993008731	1
0	13351	2430.290928482281	0
0	13388	2436.939941947289	1
0	13389	2437.270367628917	0
0	13396	2437.833925438374	1
0	13397	2438.791129705817	0
0	13436	2443.342035368624	1
0	13438	2444.253560363244	2
0	13439	2444.266499641292	1
0	13445	2444.893710138811	2
0	13447	2445.344806461119	3
0	13448	2446.204763051271	2
0	13454	2447.291357903369	3
0	13455	2447.504480290348	2
0	13461	2448.944979111826	1
0	13468	2449.040815430961	2
0	13470	2449.077561738507	3
0	13474	2449.971775653572	4
0	13475	2450.230847124741	3
0	13481	2450.818355699359	2
0	13486	2452.098265338287	1
0	13492	2452.651720691963	2
0	13494	2452.657879317163	3
0	13496	2452.858620737675	4
0	13497	2452.952963614012	3
0	13502	2452.970892592774	2
0	13506	2453.309041932406	3
0	13512	2453.715273514716	4
0	13513	2453.728993044596	3
0	13522	2454.375434453686	2
0	13527	2457.967125477262	1
0	13533	2460.111551263467	2
0	13535	2462.203677651071	1
0	13540	2462.382318591216	0
0	13553	2464.904366994518	1
0	13555	2466.409379866043	2
0	13556	2467.036706481212	1
0	13562	2467.06377423159	2
0	13564	2467.621837301542	3
0	13568	2468.241857923227	4
0	13572	2469.104875457804	5
0	13574	2469.278234964068	6
0	13578	2469.695091345142	7
0	13579	2469.928288045117	6
0	13584	2470.364738045335	5
0	13588	2471.071260968767	6
0	13594	2471.908521748114	7
0	13596	2472.004042321028	8
0	13600	2473.59079010783	7
0	13607	2474.308785336861	6
0	13615	2474.579221093297	7
0	13616	2474.785765514854	6
0	13621	2475.130620104295	5
0	13627	2475.197182021377	4
0	13632	2476.146606607017	3
0	13640	2477.547816637574	4
0	13641	2479.989104950665	3
0	13646	2480.144965099109	2
0	13652	2480.507028436467	1
0	13657	2481.320554721612	0
0	13687	2485.777022068923	1
0	13688	2488.949239988651	0
0	13703	2490.783634483914	1
0	13704	2490.86863229152	0
0	13735	2494.073892667421	1
0	13737	2494.709319626558	2
0	13740	2496.102595920209	1
0	13746	2496.509134748834	0
0	13769	2500.417084078884	1
0	13771	2500.419021566366	2
0	13772	2501.030910442807	1
0	13777	2501.931445212876	0
0	13790	2502.650664377669	1
0	13795	2503.984128746066	0
0	13838	2512.183176848623	1
0	13840	2512.25683008472	2
0	13842	2512.270971940158	3
0	13847	2513.962848202525	4
0	13848	2514.753529081918	3
0	13854	2516.161103762552	2
0	13859	2516.529593820149	1
0	13867	2516.61373553109	2
0	13869	2516.894490351826	3
0	13872	2517.31805341848	4
0	13874	2518.352276603872	3
0	13879	2518.660090620118	2
0	13884	2519.294643995963	1
0	13890	2519.456752023147	0
0	13913	2523.631354369282	1
0	13915	2524.335895800078	2
0	13917	2524.519369903564	3
0	13919	2524.781499196988	4
0	13921	2524.790201563116	5
0	13922	2525.277660308593	4
0	13929	2527.186439244833	5
0	13932	2528.160068249633	4
0	13938	2528.937419797145	3
0	13944	2529.022293989662	4
0	13945	2529.187235986693	3
0	13951	2529.905038072171	4
0	13952	2529.954505529144	3
0	13958	2531.175127226035	4
0	13960	2531.195450736156	5
0	13962	2531.355458237332	6
0	13963	2531.735898789173	5
0	13969	2532.509748374049	6
0	13971	2532.653823734877	5
0	13976	2533.078251291877	4
0	13980	2533.269177892865	5
0	13982	2533.486661881472	6
0	13986	2534.407357066006	7
0	13989	2535.052059670565	6
0	13993	2536.190682323443	7
0	13996	2537.259592057951	6
0	14002	2537.603732425184	7
0	14003	2537.695354004909	6
0	14008	2538.304535632781	5
0	14014	2538.510485022591	6
0	14016	2539.349591489857	7
0	14017	2539.65434596836	6
0	14021	2539.726428380665	7
0	14023	2541.910229811156	8
0	14030	2544.367040397415	7
0	14036	2545.90326929558	6
0	14041	2546.497501879835	5
0	14046	2546.815369762734	4
0	14054	2549.264347659781	3
0	14061	2550.080922941874	2
0	14066	2551.281174722305	1
0	14072	2552.084455521085	2
0	14073	2552.49224903702	1
0	14078	2553.309071452506	0
0	14084	2553.734407573215	1
0	14085	2554.576102945102	0
0	14106	2556.337539294279	1
0	14110	2557.201753117924	0
0	14116	2557.25253860814	1
0	14119	2557.895336969306	0
0	14137	2558.38019689155	1
0	14141	2558.507972307421	2
0	14142	2558.935914055304	1
0	14147	2561.292082278713	0
0	14175	2566.914808144648	1
0	14179	2567.57391798776	2
0	14180	2567.643179667801	1
0	14186	2567.89666768993	0
0	14198	2569.032071538896	1
0	14200	2569.161411733298	0
0	14206	2569.169685288655	1
0	14207	2569.279229922507	0
0	14253	2577.662332533789	1
0	14254	2577.736114970064	0
0	14260	2578.841327792121	1
0	14263	2579.64255594957	2
0	14265	2580.593057435513	1
0	14271	2581.369673228857	0
0	14305	2590.776223780026	1
0	14306	2590.985913659672	0
0	14320	2592.247958020408	1
0	14321	2592.313969040432	0
0	14346	2599.524330821905	1
0	14348	2599.645319585669	2
0	14349	2599.980231690404	1
0	14354	2600.018358311679	0
0	14367	2603.470035388243	1
0	14370	2603.949570658412	2
0	14371	2604.068189849765	1
0	14376	2604.578136615194	0
0	14456	2620.435713185396	1
0	14458	2620.810317153968	0
0	14472	2622.101531440743	1
0	14473	2622.143610495736	0
0	14493	2624.818724764165	1
0	14494	2624.823989701733	0
0	14518	2628.417500415823	1
0	14521	2628.922897360014	0
0	14527	2629.118217985762	1
0	14528	2630.607365887126	0
0	14532	2630.740524078921	1
0	14534	2631.108031587402	2
0	14539	2632.56550566652	3
0	14541	2633.923325431613	2
0	14548	2636.430909763402	3
0	14549	2636.461120642421	2
0	14554	2636.821768557582	1
0	14564	2638.219342536907	2
0	14565	2638.310379735105	1
0	14570	2638.918037310973	0
0	14580	2639.288742881701	1
0	14581	2639.963299496553	0
0	14597	2641.193914183258	1
0	14599	2641.54653897892	2
0	14600	2641.995594180574	1
0	14607	2643.320261285819	0
0	14615	2644.828991059398	1
0	14616	2645.30925780001	0
0	14624	2648.149997929862	1
0	14626	2649.096975713345	0
0	14645	2652.579119874648	1
0	14646	2652.678683784384	0
0	14660	2655.776486711477	1
0	14661	2655.991736840626	0
0	14677	2657.0669054959	1
0	14678	2657.719024320751	0
0	14684	2658.28848908221	1
0	14686	2658.369555409484	0
0	14692	2658.618122679273	1
0	14693	2659.532205638248	0
0	14699	2659.917225789638	1
0	14701	2660.118687066095	2
0	14703	2660.88713219766	1
0	14709	2661.325124491266	2
0	14710	2661.357264881757	1
0	14717	2661.902927112696	0
0	14723	2662.020969431415	1
0	14724	2663.039100300818	0
0	14737	2664.489615899556	1
0	14740	2665.396268672508	0
0	14810	2678.002815300686	1
0	14814	2678.294648660282	2
0	14815	2679.596143983886	1
0	14825	2681.071515814875	0
0	14882	2690.488614527811	1
0	14883	2690.699510638582	0
0	14889	2690.772735682524	1
0	14895	2693.228038343333	0
0	14946	2703.411250662705	1
0	14947	2703.831356024897	0
0	14953	2704.40826494567	1
0	14954	2705.992288735653	0
0	14968	2706.690294217277	1
0	14969	2707.25949526602	0
0	14983	2710.164146469105	1
0	14984	2710.366186881985	0
0	14990	2711.045045075983	1
0	14992	2711.073128857441	2
0	14996	2711.920976403129	1
0	15002	2713.816302813064	2
0	15005	2714.414272299705	1
0	15013	2715.315258593567	2
0	15014	2715.519356556558	1
0	15022	2718.981632873073	2
0	15023	2719.14131124158	1
0	15027	2720.305798746273	2
0	15032	2722.046342881304	1
0	15042	2723.511270016436	2
0	15043	2723.805651968891	1
0	15049	2723.971648852672	2
0	15052	2724.065421654021	3
0	15053	2724.164188907549	2
0	15059	2724.317082242062	3
0	15060	2725.075027575072	2
0	15066	2726.479216461488	3
0	15071	2728.969657564249	2
0	15076	2730.407754098198	1
0	15080	2730.500438401333	2
0	15083	2731.341982358995	1
0	15090	2733.628495997145	0
0	15121	2739.31861788736	1
0	15124	2740.863135249715	0
0	15146	2743.412049116467	1
0	15148	2745.06589247643	0
0	15173	2750.248520774146	1
0	15176	2751.130736322987	0
0	15193	2752.36263456969	1
0	15195	2752.37204119939	2
0	15197	2753.09171998453	3
0	15200	2754.734229799935	2
0	15209	2755.333220802207	3
0	15214	2756.512849165432	4
0	15216	2756.839650725151	5
0	15220	2759.143248874334	6
0	15221	2759.261571138458	5
0	15226	2759.388905346201	4
0	15234	2759.800427260075	5
0	15236	2760.639120252463	4
0	15241	2760.7702336667	3
0	15247	2760.785928046236	4
0	15252	2761.300901978649	5
0	15254	2761.802582363548	4
0	15260	2761.918032487637	5
0	15261	2762.259293669667	4
0	15268	2763.007850723577	3
0	15276	2763.222747988686	4
0	15277	2763.771526418045	3
0	15282	2764.913096101776	2
0	15288	2766.023647563596	3
0	15290	2766.107982305582	4
0	15294	2768.160302748787	5
0	15297	2768.504928667098	6
0	15298	2768.582048160432	5
0	15304	2768.62776703475	6
0	15308	2769.872952033864	5
0	15314	2770.898634070072	6
0	15315	2770.899964249093	5
0	15321	2771.627328643715	6
0	15325	2773.54492835773	7
0	15326	2774.611070147194	6
0	15333	2774.959156618934	5
0	15337	2775.430479579865	6
0	15347	2777.969691637761	7
0	15348	2778.688650170749	6
0	15353	2778.752782907079	5
0	15358	2780.276285809669	4
0	15365	2781.686162275937	3
0	15371	2781.958745768515	4
0	15375	2782.831377136546	5
0	15376	2783.940896522826	4
0	15381	2783.942028661789	3
0	15386	2784.59520979563	2
0	15391	2785.679795031775	1
0	15395	2785.889465868464	2
0	15404	2788.850764189474	3
0	15406	2788.98906395663	4
0	15408	2789.085432409446	5
0	15409	2789.57292327136	4
0	15414	2789.787257583011	3
0	15419	2790.484529584665	2
0	15424	2792.383328010792	1
0	15428	2792.68809615468	2
0	15430	2793.036750013163	3
0	15436	2796.446212543883	4
0	15439	2798.723335414341	3
0	15443	2799.550807505787	4
0	15449	2800.114148679246	5
0	15451	2800.387686086783	4
0	15457	2801.566075554264	3
0	15466	2802.795667937004	2
0	15471	2803.255865217557	1
0	15476	2804.194342695666	0
0	15490	2806.988986127867	1
0	15492	2807.255449449259	0
0	15498	2807.486479645296	1
0	15499	2807.509483147863	0
0	15507	2809.556507269458	1
0	15508	2809.676231808473	0
0	15514	2810.221834805082	1
0	15515	2810.670720636031	0
0	15523	2816.898655394006	1
0	15525	2817.401390975465	2
0	15526	2817.432112938543	1
0	15532	2818.814993988805	2
0	15535	2819.39007447916	1
0	15540	2820.285645409213	0
0	15544	2820.777991725523	1
0	15547	2821.003327240067	0
0	15559	2822.046600765558	1
0	15561	2822.343222605174	0
0	15584	2824.86037395061	1
0	15585	2825.072414261646	0
0	15627	2829.961204315225	1
0	15629	2830.785579056577	0
0	15636	2831.423702741347	1
0	15637	2831.827846814761	0
0	15667	2833.743285916584	1
0	15669	2834.674933156838	0
0	15677	2834.709066695172	1
0	15678	2834.891047199442	0
0	15723	2839.18866118925	1
0	15724	2839.235761292514	0
0	15730	2839.648049412381	1
0	15732	2840.760349511847	0
0	15774	2851.225569810625	1
0	15775	2851.813070653416	0
0	15833	2868.659469053123	1
0	15834	2868.813070581303	0
0	15847	2869.953258998188	1
0	15849	2870.139822201572	2
0	15851	2870.17629247175	3
0	15855	2870.833858416715	2
0	15862	2872.132847476339	1
0	15871	2872.734655315289	2
0	15874	2874.639730748354	3
0	15875	2874.658717787662	2
0	15882	2875.708067172088	1
0	15889	2876.252569510078	0
0	15909	2880.192042756746	1
0	15914	2882.318291837635	0
0	15932	2883.823903571915	1
0	15933	2884.425434447497	0
0	15949	2889.636426807489	1
0	15954	2890.658540003525	0
0	15977	2893.977982004227	1
0	15979	2894.128218561686	2
0	15983	2894.379526421595	3
0	15987	2895.776832821081	4
0	15990	2896.365331259717	5
0	15991	2896.73657945813	4
0	15997	2896.824941512795	5
0	16000	2898.598091849431	6
0	16002	2899.255669795587	5
0	16009	2899.795438485698	4
0	16015	2900.319517366608	3
0	16020	2900.609191570279	2
0	16027	2901.851312645003	1
0	16032	2901.860510138328	0
0	16036	2902.270242802077	1
0	16038	2903.009989866951	2
0	16049	2907.547618728731	1
0	16054	2909.376308717151	0
0	16076	2912.300333010973	1
0	16082	2913.478360861608	2
0	16083	2915.145277274801	1
0	16089	2916.315455554742	0
0	16095	2917.107058724346	1
0	16096	2917.387255911712	0
0	16108	2917.975182816415	1
0	16116	2919.897873530949	2
0	16120	2921.554097018748	3
0	16121	2921.694704392199	2
0	16126	2923.289067924852	1
0	16132	2925.182852788556	0
0	16145	2927.292595138691	1
0	16146	2928.140383342837	0
0	16152	2928.860805396	1
0	16153	2929.917478327181	0
0	16159	2930.051281139885	1
0	16160	2930.058555045263	0
0	16164	2930.429261976743	1
0	16166	2931.689927933555	2
0	16168	2932.652091446245	3
0	16170	2932.990072334422	4
0	16174	2934.865018001862	5
0	16178	2936.800700859535	6
0	16182	2938.503865110128	7
0	16184	2939.012611793749	8
0	16185	2939.165067988996	7
0	16190	2941.757232592854	6
0	16195	2942.904188436115	5
0	16199	2943.01383399253	6
0	16202	2944.019529307813	5
0	16207	2945.304570099522	4
0	16213	2945.925928178567	5
0	16218	2947.397710678303	4
0	16223	2948.626438474295	3
0	16227	2948.721289327838	4
0	16230	2949.993656113647	3
0	16238	2951.439533398868	4
0	16241	2952.045990344719	3
0	16246	2954.925760122896	2
0	16250	2956.218299107897	3
0	16253	2956.606406556144	2
0	16258	2957.520985902275	1
0	16264	2958.918489788029	2
0	16266	2959.438988407522	3
0	16268	2960.630896704113	4
0	16272	2961.736824965394	5
0	16275	2962.147979031948	4
0	16281	2963.398660736323	5
0	16282	2963.412144513024	4
0	16292	2965.085315696875	5
0	16293	2965.429920805705	4
0	16298	2966.451539012442	3
0	16305	2967.61470646542	2
0	16310	2967.722085312637	1
0	16318	2968.198782381048	2
0	16319	2968.416310945863	1
0	16325	2970.628293449859	2
0	16327	2971.260035091792	3
0	16330	2972.006674033819	2
0	16335	2972.641304149366	1
0	16339	2972.693852401508	2
0	16343	2973.173133321158	3
0	16345	2973.873273397201	2
0	16351	2974.115919711331	3
0	16352	2974.30449479881	2
0	16357	2974.706041179893	1
0	16363	2975.680371235753	2
0	16366	2976.406352512632	1
0	16371	2976.807579920804	0
0	16375	2978.385130619146	1
0	16377	2978.602304833359	2
0	16380	2979.127441429639	1
0	16384	2980.29503841262	2
0	16387	2982.977351289473	1
0	16391	2983.849998661386	2
0	16394	2985.171835292805	1
0	16398	2986.182912682554	2
0	16400	2986.588382419001	3
0	16402	2989.839504786175	4
0	16405	2990.691896739748	3
0	16411	2992.354444806545	2
0	16416	2993.021374671047	1
0	16422	2994.038752006355	0
0	16428	2994.135432968574	1
0	16431	2995.513433672626	0
0	16435	2995.639603823874	1
0	16441	2997.207900090946	2
0	16442	2997.411380507988	1
0	16447	2997.435209278896	0
0	16453	2997.547515937156	1
0	16454	2997.572632460168	0
0	16458	2997.897367348127	1
0	16461	2997.988186592735	0
0	16467	2998.456019197683	1
0	16468	2998.537675237431	0
0	16474	2999.229097749032	1
0	16477	3001.332390575255	0
0	16490	3002.665184269975	1
0	16491	3002.92767832469	0
0	16524	3006.962263185244	1
0	16526	3007.495775737528	0
0	16532	3007.606303154053	1
0	16537	3008.318191547204	0
0	16548	3009.699743007087	1
0	16550	3010.047780986906	0
0	16556	3010.392635578921	1
0	16557	3010.536122095756	0
0	16561	3011.258999065837	1
0	16564	3012.292777173999	0
0	16570	3013.45305598638	1
0	16571	3013.660585948743	0
0	16577	3017.302367264953	1
0	16578	3018.102168912456	0
0	16599	3021.59678557462	1
0	16603	3023.007890538228	2
0	16605	3023.011976247055	3
0	16606	3024.053753251312	2
0	16610	3024.05702945589	3
0	16613	3024.581304843985	2
0	16617	3025.447501964581	3
0	16619	3027.37936615834	4
0	16621	3027.527068191237	5
0	16624	3027.937231915895	4
0	16629	3028.086966601603	3
0	16633	3028.485842834806	4
0	16636	3029.444472275811	3
0	16642	3030.12287654854	4
0	16644	3030.196894033821	5
0	16645	3030.667735359658	4
0	16649	3031.077427426143	5
0	16651	3031.900422017445	6
0	16653	3031.914075319163	7
0	16655	3032.010498613715	8
0	16658	3032.53469465547	7
0	16663	3032.741966232389	6
0	16667	3034.389330222208	7
0	16671	3035.791586162556	6
0	16678	3037.264960054485	5
0	16682	3038.127296662331	6
0	16687	3040.474572634226	5
0	16693	3041.024257665342	4
0	16699	3041.875026743071	5
0	16702	3042.786355575022	4
0	16710	3044.068524464313	5
0	16712	3044.125343207754	6
0	16713	3044.313595999685	5
0	16718	3045.786685753913	4
0	16724	3046.535970442558	5
0	16727	3047.606777360392	4
0	16734	3049.040632401047	3
0	16740	3051.86248344225	2
0	16746	3053.109153594187	3
0	16747	3053.240907698635	2
0	16751	3053.285595279103	3
0	16753	3055.036123000817	4
0	16757	3057.161051777422	3
0	16765	3057.752886050963	4
0	16766	3058.006512057109	3
0	16771	3058.261405168571	2
0	16776	3058.442486385119	1
0	16782	3058.779392264537	2
0	16784	3060.192935601498	1
0	16790	3060.690070316318	2
0	16791	3061.072912819099	1
0	16796	3063.033216802961	0
0	16818	3067.095641025116	1
0	16819	3067.261155440189	0
0	16830	3067.618279683112	1
0	16832	3067.682712823967	0
0	16853	3070.091818545579	1
0	16857	3071.928121118983	0
0	16892	3080.218640152215	1
0	16895	3081.489475517135	0
0	16904	3082.044245139824	1
0	16905	3082.228837666557	0
0	16919	3084.056419692614	1
0	16923	3084.815251849384	2
0	16926	3085.090972397217	3
0	16928	3085.338782006605	2
0	16933	3085.373865687981	1
0	16939	3085.3771447958	2
0	16940	3085.488046597713	1
0	16946	3086.201741697392	0
0	16957	3086.948198806118	1
0	16958	3087.098698991713	0
0	16962	3087.938944550906	1
0	16964	3088.021755855934	2
0	16969	3089.596808536201	1
0	16977	3090.783189384368	2
0	16979	3091.103052087591	3
0	16982	3092.01490613642	2
0	16986	3092.806074288676	3
0	16990	3093.964978092489	4
0	16992	3094.54105641798	5
0	16994	3095.616355595563	4
0	17005	3099.107908180349	3
0	17010	3100.482438102202	2
0	17017	3103.278193235353	1
0	17022	3103.330862437972	0
0	17039	3107.308778929948	1
0	17043	3108.203498813337	0
0	17072	3110.056470807963	1
0	17073	3110.338600396515	0
0	17092	3112.175665613175	1
0	17093	3112.211357416006	0
0	17104	3112.714330591685	1
0	17105	3113.173221289309	0
0	17156	3121.76905906376	1
0	17159	3122.067629083647	0
0	17168	3123.272528450974	1
0	17172	3123.625717620798	2
0	17173	3124.259466642666	1
0	17179	3124.584266335793	2
0	17184	3126.558955223436	3
0	17185	3126.579834886898	2
0	17191	3127.011637651066	1
0	17196	3127.024332002328	0
0	17215	3129.686278600221	1
0	17218	3131.68158548741	0
0	17244	3135.857664587597	1
0	17247	3136.250742625853	0
0	17257	3136.836776205027	1
0	17259	3137.277712699527	0
0	17299	3139.776910459432	1
0	17300	3142.053609415472	0
0	17309	3142.313920306991	1
0	17312	3144.990610478837	0
0	17325	3146.976533169854	1
0	17327	3151.190912619876	2
0	17333	3152.44588154258	3
0	17334	3152.619734454691	2
0	17340	3153.004558368909	1
0	17346	3154.521972320664	2
0	17349	3155.434236298169	1
0	17354	3155.487142139942	0
0	17389	3162.293167945688	1
0	17392	3163.467524507962	0
0	17402	3165.258979780281	1
0	17405	3167.788334265219	0
0	17419	3168.589067921936	1
0	17421	3169.992865232348	2
0	17422	3171.243289118543	1
0	17427	3171.967331953505	0
0	17433	3172.115684084582	1
0	17437	3173.233602735041	2
0	17439	3173.553657589666	1
0	17445	3173.566310962865	2
0	17446	3173.612520573144	1
0	17453	3174.03516909387	0
0	17464	3175.270086278538	1
0	17465	3175.636273164477	0
0	17534	3188.590226788203	1
0	17538	3189.75452995488	2
0	17539	3190.168176710574	1
0	17544	3190.487916101258	0
0	17553	3190.848095953016	1
0	17556	3193.357667788169	0
0	17564	3194.191147389439	1
0	17567	3195.11641927882	2
0	17570	3196.577127453898	1
0	17575	3197.323091155112	0
0	17589	3199.058631205853	1
0	17592	3200.383333045174	0
0	17676	3215.794616876729	1
0	17678	3215.999905660394	0
0	17684	3216.230201619889	1
0	17686	3217.467673159916	0
0	17692	3217.755960958808	1
0	17693	3218.19190474178	0
0	17699	3218.2601805428	1
0	17702	3218.802697512303	0
0	17716	3220.141970436364	1
0	17718	3220.491066532865	2
0	17719	3220.702366928136	1
0	17724	3221.000552054438	0
0	17731	3222.584822516136	1
0	17733	3223.210175755723	0
0	17741	3224.643524757726	1
0	17745	3226.410945408629	0
0	17764	3229.269381551769	1
0	17766	3229.688662621941	2
0	17769	3230.877282945998	1
0	17776	3233.322247696199	0
0	17809	3242.174907282569	1
0	17810	3242.970770035271	0
0	17832	3245.781162470415	1
0	17833	3246.137444627322	0
0	17882	3255.262779611118	1
0	17884	3255.363808017593	0
0	17890	3255.94243259234	1
0	17891	3256.15686850337	0
0	17945	3266.967128898986	1
0	17946	3268.606968561746	0
0	17966	3272.035427778545	1
0	17969	3274.924394015394	0
0	17980	3275.598261736615	1
0	17982	3276.851035752483	2
0	17984	3278.3321479521	3
0	17986	3279.193418256203	4
0	17991	3280.008062061426	3
0	17996	3281.170236051244	2
0	18001	3281.347666200107	1
0	18005	3282.616510853756	2
0	18007	3283.329468865651	3
0	18009	3283.64240943078	4
0	18015	3284.473508673558	5
0	18017	3284.970946531146	6
0	18019	3285.397980122434	7
0	18020	3286.336244355513	6
0	18027	3287.30926540428	5
0	18033	3287.368321870133	6
0	18034	3287.679366404725	5
0	18042	3288.263425827775	4
0	18051	3288.914259178791	5
0	18055	3289.969615928489	4
0	18060	3292.261547632619	3
0	18065	3292.727969930603	2
0	18071	3293.275741976314	1
0	18077	3293.953672466484	2
0	18078	3294.62086553904	1
0	18083	3294.855005425312	0
0	18087	3295.025017313843	1
0	18093	3297.066293079886	2
0	18094	3299.652825502929	1
0	18098	3299.74231137499	2
0	18102	3300.794725708048	3
0	18103	3300.864293393291	2
0	18119	3303.896113634073	1
0	18124	3305.106168331809	0
0	18138	3306.714127233051	1
0	18140	3307.821489124984	0
0	18178	3313.634120743533	1
0	18180	3314.453462358125	0
0	18191	3314.95297463689	1
0	18194	3315.590259576226	0
0	18230	3323.58200515814	1
0	18233	3324.573515334249	0
0	18245	3326.800470214615	1
0	18247	3327.21345959916	2
0	18248	3328.17337560703	1
0	18253	3328.523207074044	0
0	18266	3331.249605342086	1
0	18271	3332.50389996604	2
0	18272	3332.807536303596	1
0	18277	3332.807829181782	0
0	18304	3336.625736485581	1
0	18307	3336.94736732433	0
0	18313	3337.613827773752	1
0	18319	3339.331407122318	0
0	18333	3340.087533605317	1
0	18337	3341.124049260966	0
0	18355	3341.896374303964	1
0	18357	3342.298339877228	2
0	18361	3343.431985198107	3
0	18362	3344.08492343602	2
0	18367	3344.171548710068	1
0	18373	3344.219577294614	2
0	18377	3344.868921627828	3
0	18378	3345.041853376523	2
0	18384	3345.379371399353	1
0	18390	3345.694518178022	2
0	18391	3346.134978396087	1
0	18396	3346.442625163938	0
0	18426	3349.649971489463	1
0	18427	3349.741055249112	0
0	18466	3353.026318138426	1
0	18468	3353.929851011631	0
0	18479	3354.630000656183	1
0	18481	3355.148017402951	2
0	18486	3356.15877628539	1
0	18494	3356.46659969334	0
0	18500	3356.556579708377	1
0	18501	3359.168307366171	0
0	18507	3359.396232030113	1
0	18510	3360.845623094655	0
0	18521	3361.482723136529	1
0	18523	3361.616764408399	2
0	18530	3363.325051796717	3
0	18531	3363.73332198919	2
0	18538	3365.795742398581	1
0	18544	3366.564252250875	0
0	18555	3368.151808218671	1
0	18558	3369.247877285058	2
0	18560	3371.09877941381	3
0	18561	3371.434320639966	2
0	18565	3371.71199973819	3
0	18569	3372.406054259457	2
0	18576	3372.985626974286	1
0	18580	3373.112101693676	2
0	18583	3373.7068233383	1
0	18587	3374.060170450574	2
0	18595	3376.796929742895	3
0	18600	3378.84823326959	2
0	18604	3378.948496571669	3
0	18607	3379.663048459244	2
0	18611	3379.690019472763	3
0	18613	3380.772317242977	4
0	18622	3384.732131110323	5
0	18625	3386.203016413433	4
0	18631	3386.618922299841	5
0	18632	3386.682305399333	4
0	18641	3387.608818704314	5
0	18642	3388.340195482097	4
0	18650	3389.170686431694	5
0	18651	3389.243282215247	4
0	18656	3391.09903611187	3
0	18660	3391.401894154331	4
0	18662	3392.225492835007	5
0	18668	3394.306270776101	4
0	18675	3394.912940385328	5
0	18677	3394.922371463024	6
0	18678	3395.109506317298	5
0	18684	3396.698984702407	4
0	18690	3397.527539261769	5
0	18691	3397.578994441923	4
0	18699	3400.82585242055	3
0	18705	3401.207032817668	2
0	18710	3401.48580816166	1
0	18714	3402.49458807225	2
0	18719	3402.924724790671	1
0	18723	3403.186449316815	2
0	18727	3404.428926610635	1
0	18733	3404.639466297823	2
0	18739	3406.176968274368	3
0	18741	3406.734625835985	4
0	18742	3406.830561141244	3
0	18749	3407.977860803784	2
0	18757	3411.769117543993	1
0	18762	3412.011771497177	0
0	18774	3412.323667170777	1
0	18776	3413.109246953889	0
0	18782	3413.251189364401	1
0	18785	3415.061854011597	2
0	18787	3415.520497536031	3
0	18789	3415.573324502099	4
0	18792	3415.929072258454	3
0	18797	3416.226958451352	2
0	18806	3417.769766156636	1
0	18813	3418.825960102759	2
0	18814	3422.117284021414	1
0	18819	3422.309522282426	0
0	18848	3427.33126158743	1
0	18850	3429.443300236572	0
0	18861	3431.39291742328	1
0	18867	3433.116622094642	2
0	18868	3433.548206943997	1
0	18873	3433.762855039099	0
0	18899	3436.52746250746	1
0	18901	3436.682316455516	2
0	18905	3437.415893441182	3
0	18906	3437.747950037363	2
0	18913	3437.886353721421	3
0	18915	3438.223037010303	4
0	18916	3438.34200609737	3
0	18922	3439.315249966915	4
0	18923	3439.632709147789	3
0	18932	3440.490911401881	2
0	18939	3441.205835744375	1
0	18944	3441.359442738878	0
0	18961	3442.201625076699	1
0	18962	3442.819264130413	0
0	18970	3443.137387069286	1
0	18971	3443.668057813582	0
0	18977	3444.074427306409	1
0	18980	3444.661140789591	2
0	18981	3444.697834976243	1
0	18985	3444.913195991943	2
0	18989	3446.030141148856	3
0	18990	3446.21116478947	2
0	18994	3446.871127393904	3
0	18997	3447.472675434126	2
0	19001	3447.899506719672	3
0	19003	3447.960767222893	4
0	19009	3449.768767948185	3
0	19013	3449.966603272266	4
0	19016	3451.780419675107	3
0	19021	3454.021342312508	2
0	19026	3455.471859655234	1
0	19034	3456.145480632591	0
0	19071	3461.65444258857	1
0	19075	3463.261108915753	2
0	19078	3463.730014973301	1
0	19084	3464.942255153386	2
0	19087	3465.480237654503	3
0	19088	3466.22111416949	2
0	19096	3467.40690932544	3
[...]
4	161173	28467.602774908967	240.01681951292
4	161210	28475.273542551748	243.13659843058
4	161216	28476.291105026605	232.93573539546
4	161221	28476.725448142926	232.66786894365
4	161226	28477.39896030297	231.90118671911
4	161233	28478.980817789147	233.01426516643
4	161252	28485.09162118345	234.44123256956
4	161310	28495.001567156507	241.98484926283
4	161324	28497.807717627873	242.98397800302
4	161355	28501.077197309784	245.80519581669
4	161360	28501.633929218319	236.31476325858
4	161379	28505.330350564238	232.82664376199
4	161426	28511.690035789234	238.29074318324
4	161436	28513.701679190214	236.24247175835
4	161473	28519.010885653115	219.86725049142
4	161487	28520.401250942998	218.53877495007
4	161494	28521.907407883867	214.33285853937
4	161502	28522.533778492458	212.6983411525
4	161525	28525.686918734884	213.84476965692
4	161532	28526.639832334867	212.59220237588
4	161548	28528.286292265159	213.54812377575
4	161580	28533.971053383127	211.30346235004
4	161586	28534.332058664719	211.37140079507
4	161593	28534.747206327314	206.85945399111
4	161598	28534.882892697372	204.19275630323
4	161606	28537.648083247473	198.66213614586
4	161611	28537.835634281069	194.86482940611
4	161618	28539.326747346324	193.73850700555
4	161627	28541.158317318068	195.37796402964
4	161639	28543.48064851087	192.44489248997
4	161648	28544.75455012549	188.44456717163
4	161653	28544.94731655148	183.89586585384
4	161662	28545.736749446243	179.53257908296
4	161699	28549.143320673145	176.53900327668
4	161728	28555.312604871508	172.53646626395
4	161738	28556.617850805592	168.21452637013
4	161743	28556.673288344819	167.20813365093
4	161759	28561.729570142009	169.9406609589
4	161776	28563.160704648754	165.38673758577
4	161782	28564.146378060493	166.3455951507
4	161795	28566.216105676529	167.95595122324
4	161843	28572.297184238575	172.25102255888
4	161873	28578.736258946583	177.70400738988
4	161878	28579.711340323048	177.93151159016
4	161893	28582.227064895323	176.86649502902
4	161898	28582.228693545235	175.08668508128
4	161903	28582.73992673229	175.27327176218
4	161910	28582.787783277528	172.11226836178
4	161924	28583.962565131432	170.21481062713
4	161931	28584.019937018096	164.65231963245
4	161951	28589.220378683695	167.37905551711
4	162020	28599.163835217661	170.23486677293
4	162029	28599.807367318988	170.51277148085
4	162041	28603.095627201909	171.96085197563
4	162081	28610.375478673711	174.42790438904
4	162094	28611.683689950588	175.11010681991
4	162250	28646.684290732228	202.11285618431
4	162256	28647.247265617241	193.17376247728
4	162265	28648.323935724146	188.8356389554
4	162286	28652.714466205561	181.87670039543
4	162301	28653.964995998233	175.62465270964
4	162321	28655.0975416745	173.95912626153
4	162345	28658.783835506687	176.90031875226
4	162350	28658.903772208476	163.8773032199
4	162366	28662.012122301899	159.97951700421
4	162430	28676.07341211466	172.01318967302
4	162481	28687.401442005627	183.21890190447
4	162637	28719.426304880772	213.96553961448
4	162648	28721.477871668517	215.06317914562
4	162653	28721.496212372905	214.72721949912
4	162658	28721.536828465481	211.86795814913
4	162663	28721.613357411715	201.5177721118
4	162674	28723.288034443983	202.06410091435
4	162690	28725.863323004504	202.18643780416
4	162705	28728.239329458286	200.44101966656
4	162729	28733.988295804881	202.23613799675
4	162742	28735.359447501772	202.51093632157
4	162752	28736.363880758662	201.71257148064
4	162763	28737.574318724533	199.9645554131
4	162860	28757.792235184797	218.73849100487
4	162875	28760.519350464824	216.30908115955
4	163206	28820.231897835208	275.80688855908
4	163212	28821.027559360937	273.63270025214
4	163217	28821.14719596486	267.08732168173
4	163222	28821.223884277965	263.66061415019
4	163229	28822.589512451121	263.63693308698
4	163239	28823.609540722921	263.45254362802
4	163258	28825.993373880559	261.14319643468
4	163298	28830.584740275504	258.93683448855
4	163312	28834.999088679699	260.64521207155
4	163317	28835.535108258455	260.69383360168
4	163328	28838.916873345045	263.74697321865
4	163362	28844.075085532502	263.0217812712
4	163368	28844.237330604545	262.0702421117
4	163378	28846.156671628974	263.93587674855
4	163390	28847.589780334968	263.58493658339
4	163395	28847.872305374425	263.32379358984
4	163402	28849.683099764385	263.23312758271
4	163413	28850.939603162148	256.4421039305
4	163422	28852.95955520846	256.95684593885
4	163458	28858.401113962103	259.1337697382
4	163463	28859.178204886902	258.42113050378
4	163468	28860.013411686464	247.12839095416
4	163473	28860.160775270753	245.96743081148
4	163481	28860.407646714346	245.36149623833
4	163493	28862.74129667073	247.05678976716
4	163503	28864.264709936217	242.23703585343
4	163536	28870.370941765182	243.43537159459
4	163958	28956.619071542995	327.68759077379
4	163971	28957.432527613379	322.35755482111
4	163976	28957.873850913508	320.95887326909
4	163981	28958.772609050846	315.23103626338
4	163987	28959.156582469194	310.12419284453
4	163997	28960.129569956718	300.09566774812
4	164226	28998.157227812658	337.52167455765
4	164284	29005.686237573268	344.27846553302
4	164292	29006.16064675764	339.24630444692
4	164330	29014.471231008043	344.70085035755
4	164342	29019.246917234281	345.9608085735
4	164366	29022.84687289157	349.24133216698
4	164400	29025.363506032258	344.83775092177
4	164415	29026.441475046483	342.85620731644
4	164454	29032.133108176869	344.62285669568
4	164466	29033.087038136679	344.31571415621
4	164473	29034.135355251157	340.90688806823
4	164478	29035.060202206767	339.33892194842
4	164485	29035.745073885582	339.59568450283
4	164490	29036.522151378788	338.21045780528
4	164497	29039.278208306059	340.85254654502
4	164506	29041.649835842622	342.43951738496
4	164533	29048.046049635007	343.39435379756
4	164538	29049.178781431025	344.49180454286
4	164546	29050.325166563344	345.13343693007
4	164556	29050.418882404813	344.32939279095
4	164564	29051.380821106417	332.4877734377
4	164581	29054.992188828538	335.94541242154
4	164606	29057.518281680087	336.0889900615
4	164625	29059.391867847815	337.58979177616
4	164630	29060.434317336778	338.28736845235
4	164655	29069.24023959112	335.74287009723
4	164734	29079.612145074677	339.94210225595
4	164746	29080.727685672803	326.83311840039
4	164758	29081.975800968785	326.10724358658
4	164764	29084.376505141112	320.28812518398
4	164770	29085.314928236471	320.60412148438
4	164785	29088.213320010233	319.1521480979
4	164810	29090.80694128919	321.54579393953
4	164823	29093.394611886687	318.66345643519
4	164889	29102.706549802094	323.92867025066
4	164894	29103.020161045659	312.64074307154
4	164900	29104.194039226078	313.37159338503
4	164907	29104.801030132891	307.80687927681
4	164930	29108.538067674513	295.51461791137
4	164941	29109.321566856378	295.36764134481
4	164946	29109.42137415963	290.73069611309
4	164957	29110.530624738442	290.60746028463
4	164974	29113.93269636007	291.23465826361
4	164984	29114.538909586064	290.62119225151
4	164999	29119.81336031184	291.75437167533
4	165026	29122.736646879414	288.77126174009
4	165038	29123.981872642204	284.92289104011
4	165051	29125.407407236072	286.07556169377
4	165064	29126.626323351309	279.4742618303
4	165071	29127.736909348592	273.01570578158
4	165081	29129.598009790189	266.38316667455
4	165093	29131.236022869685	258.75580318082
4	165106	29135.384489997622	261.80845272815
4	165118	29136.636941425211	261.89495977865
4	165123	29137.457380630793	260.34528566764
4	165128	29137.783682358883	260.27374494757
4	165135	29142.036436926731	264.2073964125
4	165148	29144.134538466776	263.67895336033
4	165161	29146.146328332242	264.4770081352
4	165168	29146.771805274808	262.36223374784
4	165183	29149.675186127979	261.75293286838
4	165211	29152.330337204418	262.50536415146
4	165248	29157.329191542338	262.15260655769
4	165266	29160.341046144884	263.83418782781
4	165271	29160.748791942593	259.46412932598
4	165276	29161.252339599516	258.02873370738
4	165286	29165.749279249495	253.82435713896
4	165297	29166.260798303585	252.95404087012
4	165304	29168.088765123874	250.99184167917
4	165324	29172.233344915522	249.58174271169
4	165352	29175.067427541315	246.14853628194
4	165357	29175.348652220401	245.7230139288
4	165362	29175.694465063362	243.1546360986
4	165372	29178.119177880261	238.94591438359
4	165393	29183.533819561877	240.32678149054
4	165428	29186.770872654717	239.99453600957
4	165442	29189.999647564013	240.86228455281
4	165471	29197.230263728972	240.59790568972
4	165478	29197.890713093264	235.72941599797
4	165483	29198.778559500948	232.75101408855
4	165489	29198.956953428645	222.34671593351
4	165497	29201.650739155942	220.32413825388
4	165529	29206.056603294937	223.9805307543
4	165537	29207.519126621172	223.79541125021
4	165548	29209.188473302583	223.86762915722
4	165556	29211.796503366746	226.00266946128
4	165570	29214.023800822202	227.18376475189
4	165589	29216.919389941162	227.67429315228
4	165598	29219.655844659187	228.54626233728
4	165640	29226.389879058754	235.11666628208
4	165646	29226.969622770669	235.3588923372
4	165651	29227.030690458273	235.14974394826
4	165659	29229.989278527241	234.72414282484
4	165664	29230.028151729447	229.73336595876
4	165675	29231.066930214708	230.05875044443
4	165682	29232.120557531259	223.37123587268
4	165697	29234.662280414815	213.30408866643
4	165702	29234.790991662215	210.91054843791
4	165711	29236.178871046938	208.92772669768
4	165725	29237.78672675461	205.50608046098
4	165736	29240.217793269863	203.46881881488
4	165753	29241.520351030345	198.10094828581
4	165765	29242.407669590001	191.39704387628
4	165770	29243.963176030676	192.4730469347
4	165775	29244.181777268366	192.402138466
4	165790	29248.473392622672	195.35676707438
4	165896	29265.134940747354	210.19878333968
4	165903	29265.892381192108	208.3737122755
4	165908	29267.186415319637	208.98026594988
4	165913	29267.220812257886	208.9020890362
4	165919	29267.77458823112	206.57166793539
4	165936	29270.092240776615	204.21440256042
4	166033	29284.459912696011	215.3670030669
4	166039	29284.611095542685	214.78217601996
4	166044	29285.145045873307	212.10144999867
4	166066	29287.381858802893	214.15738922022
4	166166	29303.335455225608	227.03269878271
4	166182	29306.963243022592	230.45506329089
4	166202	29308.898020349163	222.2266464045
4	166212	29309.510230116582	222.61485556446
4	166217	29309.684526584253	219.83258197846
4	166230	29312.277679748821	217.38404028299
4	166251	29314.849975761855	218.41187367785
4	166288	29318.371707091414	221.13893865631
4	166299	29320.522001590942	222.03129565368
4	166556	29365.257789410311	265.72388924408
4	166589	29370.350121126529	265.38683408359
4	166601	29374.145775158977	268.48797992963
4	166606	29374.335037511937	266.70534673277
4	166612	29375.940676141253	266.01388592536
4	166626	29381.38647016055	262.2000518556
4	166641	29384.318921814296	263.9301480495
4	166675	29392.54800853719	269.69692724032
4	166680	29392.88660759027	269.55287053505
4	166685	29393.026173462505	265.33771756993
4	166692	29393.547212553609	261.43500623016
4	166721	29398.390391807496	265.00177192496
4	166746	29400.920635275957	254.7108877871
4	166751	29401.195608021087	253.94241632853
4	166758	29402.451391654334	254.72667090424
4	166772	29404.505383976326	254.17621666316
4	166777	29404.948428843039	253.16978293934
4	166783	29405.212985861228	249.44014162531
4	166792	29406.949158912292	244.51533532119
4	166803	29409.303162304733	238.07830525343
4	166811	29411.944760855884	239.95778895734
4	166822	29413.845228637764	237.66465110661
4	166827	29415.772448763449	237.91496661848
4	166836	29416.375040168452	237.60231344162
4	166882	29421.611898605011	239.16259775403
4	166908	29423.544032601231	240.87192589796
4	166913	29424.011752334482	239.25928506016
4	166928	29426.566445547388	239.89501055983
4	166962	29433.671398216511	243.24026239331
4	166999	29442.954199908452	251.38846837136
4	167009	29447.055809454088	249.71437650406
4	167019	29447.451167717335	242.04224397371
4	167024	29447.763472927979	232.85863087302
4	167035	29449.52011737526	226.99653842313
4	167052	29450.90501177555	225.81901342372
4	167063	29455.57760925346	227.06168387934
4	167073	29457.083774731977	227.00622145019
4	167082	29458.950011627931	228.38647531035
4	167107	29461.038761165127	230.09771206836
4	167120	29463.488425452452	229.12019799296
4	167165	29468.788569216606	232.75209791549
4	167180	29475.258706030301	235.69187557582
4	167185	29475.816159824802	235.87414377073
4	167193	29477.214863631739	236.09706740439
4	167222	29481.170267514838	239.97249002182
4	167243	29487.267026635592	245.40506896983
4	167320	29500.481643371159	248.01925288453
4	167336	29504.008043363511	250.64504052918
4	167343	29505.04359527409	250.7537432368
4	167353	29505.315131504357	249.9406312087
4	167358	29505.426814824705	249.95459556354
4	167363	29505.944233288992	246.56422081443
4	167368	29507.676320103188	246.92009172983
4	167384	29511.920413650457	248.54699274055
4	167405	29514.066464724374	245.60259700349
4	167417	29514.870341246	245.19657103863
4	167571	29543.880520596521	269.30600103899
4	167576	29543.949539248912	269.16673086079
4	167584	29544.698288977183	264.82324649079
4	167599	29545.974847214119	265.97031639311
4	167611	29550.94417577493	269.9788531179
4	167618	29552.054443733589	265.56560884274
4	167635	29554.392598860056	262.4330607329
4	167657	29556.112782545202	249.98320818865
4	167669	29559.366118539725	253.14773888189
4	167688	29560.343791475633	253.93646762489
4	167695	29560.786883529785	246.10565180145
4	167712	29561.918451037633	244.94454949208
4	167739	29565.338585389625	242.80789622827
4	167748	29566.826784095174	235.55601688045
4	167967	29623.397224500774	289.72297447153
4	167974	29624.935452683288	263.90450489927
4	167979	29624.95208313539	253.99165329859
4	167984	29625.218649680937	249.0729763584
4	167989	29625.491189507733	247.62142806944
4	167996	29626.244867770961	247.44456086508
4	168003	29626.790691565331	243.00832913582
4	168067	29647.598714274652	261.73246342122
4	168088	29648.957135641249	258.63096060517
4	168101	29650.16499172859	254.61511702142
4	168112	29652.167722591287	248.32433330275
4	168133	29657.635734004498	251.44047021761
4	168141	29658.684531127041	242.62634740952
4	168153	29661.318580767745	243.77704911378
4	168164	29663.067439789865	245.22554832114
4	168175	29663.992530232987	242.7878057414
4	168233	29675.194094752143	242.33424076268
4	168255	29678.715500844795	243.56220441629
4	168260	29678.789624506096	236.53138025803
4	168266	29678.941617426897	230.09625454532
4	168271	29678.952011011209	227.30029314511
4	168279	29680.201457172391	222.55867117061
4	168296	29682.783350036032	220.71009260213
4	168330	29686.368539220455	223.92353754629
4	168342	29691.118649912559	226.74071285508
4	168356	29696.188857165561	231.76707848782
4	168367	29699.355535873862	231.22675695257
4	168398	29707.999543810018	237.80584617205
4	168427	29712.457968171432	238.38247760286
4	168483	29723.9260498356	245.58148317783
4	168488	29724.663055697502	243.31439685083
4	168499	29725.703197682416	243.65744074845
4	168517	29728.895615144105	246.36977529854
4	168555	29733.178509077405	246.64906045633
4	168561	29734.436847071678	246.08968935536
4	168572	29737.559164248778	240.5470909295
4	168594	29744.785117963194	245.95152534082
4	168619	29748.370553077193	247.69771057525
4	168635	29749.697837791361	241.62532718504
4	168659	29753.415151464308	243.37731190252
4	168664	29753.71893629762	239.05851924594
4	168669	29753.762678389347	236.39939747609
4	168674	29754.040420953624	236.6327469166
4	168681	29756.057205878006	231.68001893412
4	168686	29756.331765697188	229.43063909751
4	168697	29759.513846754198	229.1653494202
4	168721	29762.373465734203	226.92374182559
4	168737	29764.358683292449	223.26525098847
4	168747	29765.76628968652	211.08632011312
4	168758	29766.235028400853	208.83779280326
4	168770	29768.769048097282	209.06004338083
4	168786	29769.493002272488	208.3904584094
4	168791	29770.468182474317	205.14878411462
4	168796	29770.623307707724	198.51707027586
4	168801	29771.391521869451	192.95663333048
4	168806	29772.040161794817	193.29471831806
4	168828	29777.145689553336	194.59837645236
4	168915	29789.32608733322	205.99550303971
4	168924	29791.951098911837	199.37884945084
4	168930	29792.661106850586	199.5530120417
4	168935	29792.711971898688	195.45067431679
4	168948	29796.79005909577	194.63133891344
4	168977	29799.544541232606	196.78112435252
4	168982	29799.972517373247	193.95048826275
4	168990	29801.960753210434	192.64060189961
4	169008	29803.294723856968	192.80835033537
4	169028	29810.940919843263	197.81533937513
4	169156	29827.432929043619	205.83189218042
4	169162	29827.906323481405	202.12711862569
4	169167	29828.153586159476	201.05388928428
4	169174	29828.506335078502	189.82529254948
4	169181	29828.938282065838	178.26622202623
4	169192	29829.324228856079	164.78458458758
4	169199	29830.278941298503	158.88229516789
4	169207	29831.998281655199	159.90609379722
4	169237	29835.931382028799	163.50516570518
4	169254	29839.895031192424	157.49598499118
4	169281	29841.763832030072	157.92820876151
4	169286	29841.898697617152	156.67336666252
4	169294	29842.900193651858	153.58239802257
4	169311	29847.606210074832	148.85665872536
4	169322	29849.028191321223	149.72250086696
4	169330	29850.509766543611	150.29976412788
4	169337	29852.992432004576	150.27454424091
4	169345	29853.878273017034	149.63883651408
4	169353	29855.206308426832	135.36992061646
4	169398	29861.015547980546	135.49500304037
4	169409	29861.853323116214	134.65047530894
4	169415	29863.392215022107	135.40705845166
4	169420	29864.38115953708	133.65283922362
4	169430	29867.498472717438	136.54744500178
4	169469	29872.97946958645	141.48483914392
4	169475	29873.295449701948	141.11254868699
4	169486	29875.18799910778	142.2828157212
4	169499	29876.363261989089	141.77289921097
4	169512	29877.877747019854	140.54696178272
4	169534	29880.893156215167	126.76691645055
4	169560	29885.725014853131	125.48927386912
4	169592	29888.29340999665	123.28665991384
4	169602	29889.636383356513	117.5329568585
4	169633	29892.585357016973	107.89464533665
4	169651	29895.810559504652	106.40760678584
4	169661	29897.81259867186	101.26265066679
4	169668	29899.499124890432	102.78314096542
4	169683	29902.041205104931	103.59454600082
4	169689	29902.673068734963	93.476288558568
4	169697	29904.706132236565	92.799110373703
4	169702	29905.322111934226	92.565086554319
4	169707	29905.323828158618	87.056500576133
4	169715	29906.784507247281	84.727018530051
4	169726	29907.224193571012	80.599931557875
4	169731	29907.812509705071	79.376462553162
4	169744	29909.368458559052	79.671243473351
4	169781	29912.74926024175	76.815417324212
4	169793	29914.013246807449	70.024305421708
4	169859	29922.378880386573	75.869633499044
4	169882	29925.135196025522	75.555096246476
4	169953	29935.3350001277	76.325624435984
4	169958	29935.488723761944	74.342285636747
4	169967	29937.701673103731	76.091703848713
4	169976	29940.916199438252	79.265277105284
4	169981	29941.487624979925	72.44877684925
4	169990	29942.725285945197	73.643004490483
4	170006	29945.528375913236	72.185683669435
4	170055	29953.707209734204	78.84754872608
4	170061	29955.209130465333	79.122451882423
4	170067	29957.925883295408	81.528722497433
4	170072	29958.168467816286	81.73260400323
4	170080	29959.2559212383	70.734968228601
4	170099	29963.159049728469	68.904905211825
4	170135	29967.725328385984	67.822226849142
4	170146	29968.44284671094	59.237678427599
4	170153	29970.35281225979	60.31467226158
4	170160	29971.723834700064	59.999952660705
4	170174	29975.261712694949	62.73252492263
4	170181	29977.539565207281	54.584431856859
4	170197	29978.387252465486	45.738950322117
4	170221	29980.422773001035	47.671674989777
4	170245	29981.280403890306	45.390629844523
4	170252	29982.255588410129	40.413112228331
4	170273	29986.718540933505	39.850547149218
4	170278	29986.799085882183	26.715147405593
4	170289	29988.574441235355	19.999926331395
4	170294	29988.593940052169	14.008684362314
4	170299	29988.667602450005	10.674591221572
4	170307	29990.478314823669	4.732238590141
4	170333	29991.729590832666	0.958623699569

