version 2
run First-n2-14-20191016-14:53:01-9888
attr configname First-n2
attr datetime 20191016-14:53:01
attr experiment First-n2
attr inifile omnetpp.ini
attr iterationvars ""
attr iterationvarsf ""
attr measurement ""
attr network org.omnetpp.queueing.Pizza
attr processid 9888
attr repetition 14
attr replication ""
attr resultdir results
attr runnumber 14
attr seedset 14
param **.PS.maxInventoriedPS 2
param **.U1.interArrivalTime exponential(2s)
param **.U2.interArrivalTime exponential(4s)
param **.PS.serviceTimeForInventoryU1 exponential(0.8s)
param **.PS.serviceTimeForInventoryU2 exponential(1.0s)
param **.PS.serviceTimeDirectU1 exponential(1.2s)
param **.PS.serviceTimeDirectU2 exponential(1.4s)
param **.PS.probabilityProducing 0.5
param **.CS.serviceTimeU1 exponential(0.8s)
param **.CS.serviceTimeU2 exponential(1.0s)

vector 0 Pizza.EntryQueueU1 queueLength:vector ETV
attr interpolationmode sample-hold
attr title "queue length, vector"
vector 1 Pizza.CS queueLength:vector ETV
attr interpolationmode sample-hold
attr title "queue length, vector"
vector 2 Pizza.EntryQueueU2 queueLength:vector ETV
attr interpolationmode sample-hold
attr title "queue length, vector"
vector 3 Pizza.sink lifeTime:vector ETV
attr interpolationmode none
attr title "lifetime of arrived jobs, vector"
attr unit s
vector 4 Pizza.sink lifeTimeU2:vector ETV
attr interpolationmode none
attr title "lifetime of arrived jobs, vector"
attr unit s
0	0	0	0
0	24	6.460737052775	1
0	25	6.525958632591	0
0	33	7.991959120157	1
0	35	8.486216174331	2
0	37	8.957722274146	3
0	39	9.6554379242	4
0	40	9.741532355706	3
0	50	13.540307653881	2
0	56	15.048400456327	3
0	57	15.175563840734	2
0	63	15.28554400117	3
0	65	15.461008922288	2
0	70	16.072402515417	1
0	75	16.529938886929	0
0	90	18.499168820809	1
0	92	18.553509310611	2
0	101	21.298798199552	3
0	103	22.18844210521	2
0	109	24.012357517708	3
0	110	25.991656346402	2
0	114	26.354598682516	3
0	117	27.060363677923	2
0	122	28.665034896495	1
0	130	29.499523500098	0
0	157	34.552337046271	1
0	158	34.600434067881	0
0	200	45.445016073171	1
0	201	45.524676244386	0
0	207	45.597853001323	1
0	210	45.959203886728	2
0	211	46.410097000204	1
0	216	47.224330470726	0
0	224	47.63753737699	1
0	225	48.400246485059	0
0	248	50.170791611375	1
0	250	50.617074630739	0
0	256	51.100684318914	1
0	260	52.239777068086	2
0	261	52.73513568994	1
0	268	56.981877985384	0
0	284	57.70672738962	1
0	288	59.688166710454	2
0	290	61.359054645543	1
0	296	61.420504619586	2
0	297	61.575402082547	1
0	303	62.456835153493	0
0	323	63.603750556695	1
0	324	64.258266013678	0
0	330	64.28048209051	1
0	331	64.772427560154	0
0	357	68.615495125659	1
0	358	68.734528400041	0
0	379	73.018778905705	1
0	380	73.427235633693	0
0	394	74.609682601874	1
0	395	74.754431446695	0
0	411	75.895943004981	1
0	412	76.082066809625	0
0	486	89.836674143997	1
0	491	91.363075484301	0
0	504	92.169627812813	1
0	507	93.076287584797	2
0	508	93.379978092307	1
0	513	93.424663302079	0
0	536	96.306447178473	1
0	537	96.627982651008	0
0	551	97.773073495008	1
0	553	98.560807326788	0
0	565	102.228511377146	1
0	567	102.54619041972	2
0	570	104.379413528792	1
0	577	106.321002331938	0
0	608	111.242940465984	1
0	611	111.811819917241	0
0	620	113.613858298641	1
0	624	114.802402948787	2
0	628	115.55305786964	1
0	635	115.868727277691	0
0	642	116.46405265165	1
0	644	117.605714307813	2
0	647	118.44936651103	1
0	652	118.532417393234	0
0	672	119.99383513853	1
0	673	120.052301376685	0
0	690	121.655744749772	1
0	692	122.290700572144	2
0	694	122.471666394353	3
0	696	122.55006350018	4
0	700	124.549878552393	5
0	702	124.857450567473	6
0	704	125.327464341923	7
0	708	126.600942372757	6
0	714	126.754511643367	7
0	717	127.929960894865	8
0	718	128.083640238334	7
0	725	128.177714382027	8
0	729	129.112395290374	9
0	732	130.788483424775	8
0	737	131.676353482651	7
0	742	131.837982011656	6
0	747	134.63878160022	5
0	751	134.652192649112	6
0	754	137.150185461839	5
0	760	138.254051874579	6
0	761	138.4704707527	5
0	766	139.274619143936	4
0	771	141.272058675805	3
0	777	143.333440704892	4
0	780	147.457751595337	3
0	786	148.623088528927	2
0	791	148.949446799857	1
0	795	149.121539616451	2
0	797	150.354179210364	3
0	799	150.644097238509	4
0	802	151.04702643098	3
0	807	151.472999214889	2
0	811	152.03290796435	3
0	813	152.950338509273	4
0	816	154.210962319872	3
0	820	154.813906805602	4
0	823	155.374310151554	3
0	829	156.297700254602	4
0	831	156.606499946175	5
0	833	156.651800901773	6
0	836	156.852226731457	5
0	840	157.601010695411	6
0	844	158.109616634457	7
0	845	158.590398652816	6
0	860	162.726722798833	5
0	865	163.934366720585	4
0	870	164.16365770827	3
0	875	164.502787208199	2
0	881	165.437830971561	3
0	882	165.595076051328	2
0	887	166.191749039549	1
0	893	167.657608431907	2
0	895	167.956336629353	3
0	896	169.164142235844	2
0	900	169.665264416121	3
0	903	170.875248578445	2
0	907	173.295141869327	3
0	910	174.139102581065	2
0	915	175.514946339019	1
0	919	175.702820308381	2
0	924	176.350347635372	1
0	929	176.999119873022	0
0	935	178.504258524944	1
0	937	178.814427930043	2
0	938	179.628623671977	1
0	943	180.812731092868	0
0	947	181.184296392852	1
0	951	181.785092266603	0
0	1005	189.472253564092	1
0	1009	190.190113837732	2
0	1011	190.800854626495	3
0	1014	191.694946484924	4
0	1016	192.192160375184	5
0	1017	192.455151233686	4
0	1023	192.55521838691	5
0	1025	192.689566646488	4
0	1031	193.347238642725	3
0	1036	194.113238396498	2
0	1043	198.397603875294	1
0	1047	199.592258994262	2
0	1051	200.94694887157	3
0	1055	202.280766599047	4
0	1059	204.33301799863	5
0	1061	206.581372076246	6
0	1062	207.646785477509	5
0	1068	208.763449785996	6
0	1069	208.780811200305	5
0	1079	210.428086591956	6
0	1080	211.9703536768	5
0	1084	212.893654595067	6
0	1086	214.474304547188	7
0	1088	214.518300719604	8
0	1092	215.877877402607	9
0	1096	216.029448943897	10
0	1101	218.184050544243	11
0	1103	219.140930298202	12
0	1104	219.15663666866	11
0	1109	220.025769463436	10
0	1117	222.783565550018	9
0	1122	222.840780750281	8
0	1128	224.959470449818	9
0	1132	226.671118129165	10
0	1137	228.462499132645	9
0	1141	228.612359192936	10
0	1144	229.385915394056	9
0	1149	229.730116639598	8
0	1154	232.216322507058	7
0	1158	233.12492311864	8
0	1163	236.047555812608	7
0	1169	236.135427297094	8
0	1170	236.226018477967	7
0	1175	237.207179505993	6
0	1185	240.44171870409	5
0	1193	240.698776995647	6
0	1194	240.93130522097	5
0	1199	240.984580191443	4
0	1204	242.31903390841	3
0	1213	244.746154168013	2
0	1218	245.337584278736	1
0	1223	246.181611547054	0
0	1245	249.619072393549	1
0	1247	249.724198357467	0
0	1257	251.20371814892	1
0	1264	252.70615360381	0
0	1290	255.648797437947	1
0	1292	256.802419760977	2
0	1294	259.408775635423	3
0	1299	261.995129625673	2
0	1307	262.794211140041	3
0	1308	262.866415399186	2
0	1315	265.590625244912	3
0	1316	266.354441410695	2
0	1322	266.903597702561	1
0	1327	267.115160919948	0
0	1336	268.923426955279	1
0	1341	270.137700387674	0
0	1355	271.260517029099	1
0	1356	271.312503211872	0
0	1364	272.84886343241	1
0	1367	273.394018521082	0
0	1371	273.803889407281	1
0	1376	275.349706374451	2
0	1377	276.023260284319	1
0	1385	276.720308667582	0
0	1396	277.245795173207	1
0	1398	277.431970070366	2
0	1401	279.10206239168	3
0	1402	281.533528807344	2
0	1406	281.996021824564	3
0	1412	284.143921898692	4
0	1414	284.754580581507	5
0	1416	284.961223278471	4
0	1422	285.340250365902	3
0	1429	285.593321166466	2
0	1433	285.603151233372	3
0	1436	285.913752278627	2
0	1443	288.310983065635	1
0	1448	288.6037558784	0
0	1480	291.502794537902	1
0	1482	291.869051246669	0
0	1488	291.914268152107	1
0	1489	292.173369759076	0
0	1525	297.63285308686	1
0	1532	303.18184383247	2
0	1533	303.460091442143	1
0	1539	303.895118775031	2
0	1542	304.555284174935	1
0	1547	304.605778274368	0
0	1568	308.40300419457	1
0	1569	310.622019565827	0
0	1575	311.141499328807	1
0	1576	312.104537357	0
0	1592	312.519060360272	1
0	1594	312.569549957164	2
0	1598	315.001035974627	3
0	1600	315.457292194356	4
0	1604	316.232481133507	5
0	1605	316.272155553627	4
0	1611	316.582242984608	5
0	1612	316.679906129417	4
0	1617	316.686034854919	3
0	1623	317.908588163392	2
0	1628	319.991408544031	1
0	1632	320.897342268561	2
0	1638	322.505487856175	3
0	1639	324.312476345028	2
0	1645	324.920788432086	1
0	1650	325.205229523555	0
0	1685	333.975906752362	1
0	1688	334.2486282579	2
0	1690	334.261069113098	3
0	1692	336.031687451619	4
0	1693	338.630032404541	3
0	1698	339.054758503436	2
0	1704	339.347072819223	3
0	1709	340.27837988154	4
0	1712	340.608678098959	3
0	1717	342.478918540884	2
0	1722	343.365418500574	1
0	1726	343.388414556179	2
0	1730	344.084883133993	3
0	1731	344.558950018525	2
0	1738	344.921973314991	3
0	1739	345.012289472885	2
0	1744	345.363241539206	1
0	1749	345.56858154055	0
0	1761	346.761914553366	1
0	1762	346.890077821877	0
0	1768	347.2145726652	1
0	1769	347.576215887782	0
0	1780	349.171819870717	1
0	1782	349.339176079578	0
0	1796	350.203066550097	1
0	1797	350.615156596029	0
0	1813	351.482617728229	1
0	1814	352.729874425595	0
0	1823	353.477681088203	1
0	1830	356.765792228203	0
0	1859	362.105036693251	1
0	1860	362.410262883039	0
0	1877	365.254352919924	1
0	1881	366.180837171306	2
0	1883	366.281454924001	3
0	1884	366.791547827462	2
0	1890	367.016542594004	1
0	1896	367.084385461531	2
0	1900	367.341237820235	3
0	1902	367.744860508991	2
0	1907	367.777364637399	1
0	1915	368.321804220966	0
0	1942	372.5400249527	1
0	1945	373.704245887323	0
0	1951	373.890250614699	1
0	1952	373.963090041272	0
0	1960	374.962667789724	1
0	1961	375.316089216787	0
0	1986	377.843066252482	1
0	1988	380.646534591965	2
0	1990	380.963133275161	3
0	1994	381.142473995133	2
0	2000	382.427597657985	1
0	2006	382.767242650347	0
0	2012	385.219966247447	1
0	2013	385.330323060253	0
0	2024	385.807341745091	1
0	2025	386.405425464564	0
0	2029	386.569875525772	1
0	2032	387.033257241158	0
0	2041	388.949155600641	1
0	2043	389.038829044704	2
0	2048	390.56255149019	3
0	2050	390.598395309318	4
0	2051	391.388279564158	3
0	2056	392.241558307325	2
0	2061	392.479497254644	1
0	2070	395.349853725537	2
0	2072	395.548496343461	3
0	2073	396.921591952403	2
0	2079	398.819165456463	3
0	2081	400.812259730498	4
0	2083	401.001072006048	5
0	2084	402.078100724852	4
0	2089	402.294510628477	3
0	2094	403.490115819102	2
0	2100	405.376488351965	1
0	2105	405.55113420012	0
0	2109	407.181954627567	1
0	2111	407.92825860142	2
0	2114	409.22246781675	1
0	2121	411.200193853954	0
0	2132	412.108718906122	1
0	2133	412.390465155933	0
0	2149	414.722864303151	1
0	2151	415.194233397773	0
0	2160	416.573491346492	1
0	2162	416.800902156439	2
0	2164	417.599449299424	3
0	2167	417.833415465284	2
0	2173	419.292209126181	1
0	2179	420.94366484581	2
0	2180	420.991717223786	1
0	2185	422.921181697371	0
0	2189	423.032197085375	1
0	2192	423.607905726063	0
0	2198	424.293728731575	1
0	2200	424.392510183652	2
0	2205	425.787217237917	3
0	2207	425.834822490184	4
0	2209	426.16843496528	5
0	2210	426.856557988704	4
0	2216	428.104405938228	3
0	2222	430.434257869278	4
0	2226	431.552010836819	5
0	2227	431.636976708307	4
0	2234	432.554602018288	5
0	2236	432.99487863861	4
0	2242	433.169322305262	3
0	2247	433.835426817384	2
0	2251	434.197268738807	3
0	2254	435.094210019245	2
0	2260	435.861635935295	3
0	2262	437.335987437216	4
0	2264	437.666840878965	5
0	2267	438.196494441993	4
0	2273	438.893951086378	5
0	2274	439.00773313189	4
0	2280	440.460675538095	5
0	2281	441.449808155412	4
0	2285	441.488736386804	5
0	2287	443.458546376025	6
0	2291	444.543291085533	7
0	2293	445.397249891392	6
0	2299	445.43544063495	5
0	2304	446.153653974891	4
0	2308	446.493005784855	5
0	2311	446.809012593518	4
0	2317	447.574649010619	5
0	2323	449.737936700112	4
0	2330	451.252831183115	3
0	2335	451.6860082187	2
0	2342	452.263500415008	1
0	2348	452.368786223462	2
0	2351	453.270525776313	3
0	2355	453.391064453174	4
0	2356	453.4764215527	3
0	2362	454.233405334233	2
0	2367	454.6340957877	1
0	2373	454.99252627254	2
0	2374	455.28483213013	1
0	2380	456.14826195084	2
0	2381	456.428574738118	1
0	2387	456.438354302919	2
0	2388	456.517664112491	1
0	2395	458.937526250774	0
0	2399	459.46509154609	1
0	2404	461.533648273654	0
0	2415	463.983795132884	1
0	2418	464.417366602243	2
0	2419	464.724831926157	1
0	2423	466.257402155053	2
0	2425	467.721881698113	3
0	2429	467.844871293847	4
0	2433	469.043292516884	5
0	2434	469.774657241217	4
0	2441	470.163574239732	5
0	2442	470.326035326098	4
0	2448	470.505424366487	5
0	2449	470.791044085438	4
0	2456	471.255356969565	3
0	2460	471.456427652486	4
0	2467	472.968555626761	3
0	2472	476.032423514411	2
0	2477	476.100672726014	1
0	2481	476.170459454767	2
0	2484	478.171003643977	1
0	2489	479.837697791944	0
0	2493	480.696860437184	1
0	2498	481.393586873081	0
0	2502	482.637042872419	1
0	2507	485.591595447328	0
0	2525	488.148875647772	1
0	2526	488.386253143343	0
0	2545	490.370339795301	1
0	2552	493.06192619685	0
0	2558	494.327581959912	1
0	2562	494.600886719693	2
0	2565	495.183169748191	1
0	2569	497.416808446871	2
0	2571	497.649177239944	3
0	2574	498.062521436739	2
0	2579	499.227353581404	1
0	2587	500.649670677857	0
0	2604	503.557587242007	1
0	2605	503.600347347272	0
0	2611	504.582283213749	1
0	2613	505.703350262641	0
0	2624	507.487518024662	1
0	2625	507.856585253124	0
0	2629	507.880263961803	1
0	2632	508.611613329973	0
0	2639	509.163975562632	1
0	2640	509.233259420638	0
0	2652	510.015115905425	1
0	2654	511.062622923399	0
0	2687	516.892805711175	1
0	2688	517.103459399725	0
0	2694	517.185571772798	1
0	2698	517.773064989497	2
0	2699	518.760139391064	1
0	2704	519.036533699744	0
0	2721	521.375573639617	1
0	2723	521.694166437314	2
0	2728	523.136556481913	1
0	2733	523.466423879917	0
0	2753	526.273384920537	1
0	2756	527.251039670356	0
0	2760	527.329652089019	1
0	2764	527.526430326659	2
0	2766	527.568607796195	3
0	2767	527.689496139242	2
0	2771	527.77192712191	3
0	2774	528.848655685564	2
0	2780	529.091864068047	3
0	2783	529.250066648707	2
0	2788	531.875212341093	1
0	2793	532.181202172095	0
0	2854	546.943460550257	1
0	2855	547.627212353444	0
0	2864	547.852193584353	1
0	2866	549.409783349582	2
0	2874	550.773432846283	3
0	2877	551.277782772693	2
0	2883	551.438752919117	3
0	2886	551.8064767494	4
0	2888	552.277025069629	3
0	2896	553.360241693368	2
0	2901	553.717408324626	1
0	2910	555.025556817526	0
0	2932	558.867495432425	1
0	2934	559.858653510201	2
0	2937	560.17214132686	1
0	2943	560.742739990821	0
0	2952	562.55786620242	1
0	2954	563.282871459954	2
0	2958	565.474237828616	3
0	2960	566.199156578634	2
0	2965	566.242490774357	1
0	2971	566.442166040651	2
0	2974	566.694157612708	1
0	2978	567.629564018634	2
0	2980	568.895741631147	3
0	2985	570.876078551409	2
0	2989	571.168709977051	3
0	2991	571.590944099374	4
0	2993	572.673569319777	5
0	2995	572.788821871407	6
0	2998	573.526855323957	5
0	3003	573.898079492288	4
0	3010	576.545543243895	3
0	3014	576.873726295382	4
0	3020	578.709969727614	3
0	3027	579.27837138728	4
0	3029	579.306434454711	5
0	3033	579.800820829655	6
0	3035	580.698636217734	7
0	3038	583.580288855493	6
0	3043	583.80852736738	5
0	3048	584.001865136688	4
0	3052	585.453863304629	5
0	3057	585.883171181532	6
0	3061	587.418033453409	7
0	3062	587.491988885019	6
0	3070	587.542006299104	7
0	3075	589.095543753958	6
0	3082	589.953922414107	7
0	3083	590.395868720357	6
0	3089	591.207242924849	5
0	3094	591.240595717362	4
0	3099	592.388049943701	3
0	3105	592.964304290665	4
0	3111	596.090911621981	5
0	3113	598.54303719809	6
0	3117	599.504135269824	7
0	3120	599.604908985738	8
0	3121	599.927682494368	7
0	3126	600.339222002324	6
0	3138	601.584146664228	7
0	3139	601.869766212728	6
0	3146	603.068391185434	5
0	3151	603.950531495176	4
0	3156	604.396065673244	3
0	3160	606.053255519998	4
0	3165	607.084282362827	5
0	3166	607.705936214771	4
0	3171	608.081638138256	3
0	3178	609.249854602717	2
0	3185	609.7032515953	1
0	3189	610.408170161138	2
0	3193	612.494376709452	1
0	3198	613.001543444876	0
0	3219	616.832488215132	1
0	3223	617.294604753066	0
0	3232	617.710523058274	1
0	3239	619.6449661126	2
0	3241	620.005339633178	1
0	3246	620.029305179316	0
0	3265	623.387174780356	1
0	3266	624.639887699743	0
0	3287	629.599262722508	1
0	3289	629.611331609985	2
0	3292	631.906113608655	3
0	3294	632.537094016404	4
0	3296	633.42378625531	3
0	3301	634.299948914164	2
0	3309	635.758836109688	3
0	3312	636.243076330265	2
0	3321	637.817546319601	3
0	3322	638.008475503983	2
0	3327	639.694812542399	1
0	3331	640.096292228328	2
0	3338	640.692985688378	1
0	3342	641.066813589211	2
0	3344	641.461839197509	3
0	3346	642.236958683279	4
0	3351	643.775723598318	3
0	3357	645.36736094647	2
0	3362	645.502248622588	1
0	3366	645.747553551376	2
0	3371	649.467288668243	1
0	3376	651.243895983334	0
0	3380	653.434067208672	1
0	3385	654.264381032742	0
0	3407	657.676511999884	1
0	3408	657.800058322107	0
0	3418	659.606665064974	1
0	3422	660.36861147765	2
0	3423	660.542836048757	1
0	3428	660.657834924647	0
0	3444	662.941572288625	1
0	3446	663.018753484515	2
0	3449	663.564613159703	1
0	3455	664.177847405613	0
0	3462	664.192229973165	1
0	3463	665.080286684571	0
0	3467	665.110825059649	1
0	3469	665.517288026065	2
0	3474	667.452562229348	1
0	3481	668.451453532929	2
0	3483	668.895584334777	1
0	3489	670.319696632077	0
0	3495	670.39192029537	1
0	3497	670.870814485388	0
0	3517	673.666161598684	1
0	3518	674.280648684747	0
0	3524	674.354320447643	1
0	3525	674.856338074351	0
0	3529	675.874224763403	1
0	3532	677.066098348645	0
0	3538	679.294039440963	1
0	3541	679.867054510175	2
0	3542	679.982640188809	1
0	3547	680.102161142438	0
0	3560	681.435252281631	1
0	3563	682.100425157918	2
0	3564	682.17309064911	1
0	3569	682.287642223637	0
0	3598	687.329535682039	1
0	3600	687.464495153987	2
0	3604	687.873156454405	1
0	3610	689.135501328199	2
0	3614	692.073099908493	1
0	3620	692.205944337743	2
0	3621	693.380618608152	1
0	3626	693.427742216679	0
0	3634	694.678638015758	1
0	3637	694.896472021855	0
0	3643	696.282182285908	1
0	3645	698.941526836959	2
0	3646	699.795485460443	1
0	3654	701.244830800809	2
0	3655	701.26949165099	1
0	3662	702.717069941767	0
0	3666	704.069562297064	1
0	3671	705.676626775806	0
0	3719	710.068450952082	1
0	3727	711.558633340411	2
0	3729	711.893672752413	3
0	3733	712.307749323069	4
0	3734	712.428711421882	3
0	3739	712.658920148017	2
0	3748	713.376090237775	3
0	3749	713.598042542941	2
0	3758	717.667877175376	3
0	3760	717.890519971221	2
0	3765	718.499894453229	1
0	3771	720.183970179267	0
0	3790	722.451686397186	1
0	3795	727.882898507848	0
0	3807	728.100433805285	1
0	3810	728.860888339222	0
0	3819	730.413989986286	1
0	3824	731.455636044905	0
0	3835	732.16282982858	1
0	3837	732.638902254016	2
0	3840	733.329070674815	1
0	3848	734.639388048928	2
0	3849	734.745647017163	1
0	3854	735.608519912826	0
0	3862	737.064027837069	1
0	3863	737.401630449263	0
0	3867	737.483706407377	1
0	3871	738.777749873139	2
0	3873	738.989528568604	3
0	3875	739.545250548425	2
0	3880	739.748702670206	1
0	3885	742.184809092005	0
0	3891	743.311645734112	1
0	3893	743.52107332339	2
0	3896	744.31023313613	1
0	3900	745.605705068731	2
0	3902	745.724032339502	3
0	3906	746.39941290934	4
0	3908	746.60629717869	5
0	3909	746.690793785396	4
0	3913	748.98675772034	5
0	3916	749.206417458384	4
0	3921	750.086768502312	3
0	3926	751.892125115308	2
0	3932	752.824722349565	3
0	3934	752.859807237164	4
0	3935	753.077864140947	3
0	3939	753.937048444468	4
0	3944	756.447377581303	3
0	3949	757.564556344717	2
0	3955	758.408652845355	1
0	3960	758.640768123612	0
0	3981	762.006322390969	1
0	3983	763.474328041067	2
0	3987	763.822051592436	3
0	3991	764.773022811989	2
0	3997	765.212494781725	3
0	4000	767.675011827888	2
0	4008	769.499376744545	1
0	4014	772.095098501907	0
0	4029	776.847829663516	1
0	4031	776.981233989094	2
0	4038	781.556002309193	1
0	4043	782.089954459069	0
0	4049	782.407510034064	1
0	4052	782.92280366361	0
0	4075	785.636998686231	1
0	4078	787.986355665121	0
0	4087	789.742429295993	1
0	4089	790.99266980517	2
0	4095	795.606881989356	3
0	4097	795.706672416269	4
0	4100	796.320506989378	5
0	4101	797.277545332741	4
0	4106	797.896026000571	3
0	4111	799.344891246532	2
0	4115	799.653374542598	3
0	4117	801.197266176596	4
0	4119	801.629596972985	5
0	4121	801.894736732914	6
0	4123	803.191393974726	7
0	4126	803.460872961522	6
0	4133	806.043595409115	7
0	4134	806.099841616158	6
0	4139	808.005152487424	5
0	4147	809.387718162873	6
0	4149	809.629378204573	7
0	4152	809.77683733087	8
0	4154	810.689048015002	9
0	4156	811.358829285258	8
0	4161	811.558056671639	7
0	4166	811.71156573596	6
0	4172	813.232169484151	5
0	4177	813.558127488804	4
0	4183	814.337178418288	5
0	4185	814.59799131092	6
0	4187	814.938556611972	7
0	4190	815.573215136274	6
0	4195	816.463021312739	5
0	4202	818.286629019803	6
0	4207	820.561112812074	7
0	4208	820.794689815753	6
0	4213	820.889430448265	5
0	4218	821.713406810746	4
0	4225	822.59491065715	3
0	4233	823.807467257542	4
0	4235	824.006103556956	5
0	4236	824.971445575454	4
0	4240	826.665192797669	5
0	4247	827.561433552818	6
0	4249	828.015543484704	7
0	4250	828.185615679841	6
0	4255	828.941890769816	5
0	4261	830.316830171806	6
0	4262	831.058263283236	5
0	4266	831.18541956596	6
0	4269	832.472211902053	5
0	4275	835.158600069261	6
0	4278	837.742409936849	5
0	4287	843.371404579736	4
0	4293	845.142793254144	5
0	4297	848.137714055439	6
0	4299	848.425460722626	7
0	4300	849.299700331666	6
0	4306	851.089437853744	5
0	4311	851.175133950003	4
0	4319	851.803452843459	5
0	4321	852.041467347913	6
0	4322	852.947155640037	5
0	4326	854.622473212701	6
0	4334	856.660398646196	5
0	4341	858.609386799893	4
0	4349	861.495922296434	3
0	4354	862.432522252239	2
0	4359	863.110172119887	1
0	4364	863.712450913372	0
0	4394	868.377899503842	1
0	4395	869.882501882181	0
0	4404	870.121552326618	1
0	4406	871.283227789854	2
0	4407	871.401314728178	1
0	4417	873.381925223161	2
0	4419	873.531293422489	3
0	4420	874.239854775197	2
0	4427	875.170774222067	3
0	4428	875.187076217497	2
0	4434	875.911955913546	3
0	4436	876.269271634158	4
0	4437	877.093947429722	3
0	4445	878.013393798844	4
0	4447	878.06003883319	5
0	4448	878.842478062143	4
0	4454	879.053829804588	5
0	4455	879.217903011987	4
0	4460	879.366489095918	3
0	4466	879.67042526839	4
0	4467	879.738082552314	3
0	4471	879.825138521432	4
0	4477	881.295321005286	5
0	4478	881.400964215022	4
0	4485	882.562084878548	3
0	4490	883.446188631713	2
0	4494	883.713683630684	3
0	4503	886.151831011774	2
0	4508	887.217386622487	1
0	4515	889.463949561856	0
0	4521	889.864784071436	1
0	4526	892.461582248319	0
0	4530	892.97140325648	1
0	4533	894.179064434762	0
0	4557	899.528467444641	1
0	4559	900.701372993492	0
0	4565	901.948651954627	1
0	4568	902.473577272455	0
0	4589	905.481041678066	1
0	4592	906.545790891452	0
0	4601	907.330170656653	1
0	4603	907.803747941053	2
0	4606	909.603291369108	1
0	4612	910.654092441249	2
0	4613	910.720374695608	1
0	4622	913.983977448176	0
0	4626	914.042197643932	1
0	4630	915.572774663833	0
0	4644	916.412588082148	1
0	4645	916.51512865275	0
0	4665	920.054390884957	1
0	4668	920.304330245911	0
0	4685	923.391299829383	1
0	4689	925.19309115002	0
0	4707	928.346313907722	1
0	4710	928.750183722178	0
0	4724	929.092018273455	1
0	4726	929.50977836081	2
0	4734	934.853222231008	1
0	4741	935.737819642919	0
0	4747	936.161287020345	1
0	4749	936.427388366868	2
0	4751	937.136153535071	3
0	4753	938.494854998012	2
0	4757	938.706592827838	3
0	4761	941.095412499854	2
0	4767	941.225853392294	3
0	4769	941.341831223412	4
0	4771	942.358175604143	3
0	4776	942.466563791819	2
0	4783	943.11142005168	1
0	4789	944.227959326474	0
0	4795	945.488281888787	1
0	4796	945.529331689998	0
0	4816	947.92728348296	1
0	4818	948.07988762479	2
0	4820	948.507341944474	3
0	4823	949.019984646358	2
0	4828	949.390589133176	1
0	4832	949.505761872965	2
0	4835	950.697659199199	1
0	4843	952.365723691167	0
0	4861	954.669321632899	1
0	4862	954.926207286198	0
0	4885	958.859972038451	1
0	4887	959.36506431303	2
0	4892	960.247189830532	1
0	4899	961.82862577915	2
0	4900	962.258345515275	1
0	4905	962.27123581948	0
0	4909	964.155446117329	1
0	4911	966.451332180846	2
0	4916	966.993107578868	1
0	4920	968.379340157939	2
0	4924	968.664558587054	1
0	4929	969.519126078428	0
0	4933	969.770053613247	1
0	4938	970.925250827158	0
0	4960	974.153217215471	1
0	4961	975.750628301891	0
0	4972	976.942990093862	1
0	4974	977.308747720031	2
0	4976	978.377725569148	1
0	4981	978.410622246963	0
0	5000	982.177611240857	1
0	5002	982.188699054223	2
0	5005	984.434309778565	1
0	5011	984.664459529571	2
0	5012	984.860991275225	1
0	5017	984.986877396414	0
0	5021	985.86812047642	1
0	5025	987.800679050428	2
0	5026	988.022780790507	1
0	5035	991.999718527357	2
0	5036	992.068331716029	1
0	5043	992.381874560886	0
0	5070	995.023555336665	1
0	5071	995.296672468057	0
0	5092	999.344009457528	1
0	5093	1002.700859742546	0
0	5099	1002.92333130043	1
0	5100	1003.112795699554	0
0	5104	1003.242038453162	1
0	5107	1003.998601445302	0
0	5131	1008.152928810873	1
0	5134	1008.891497155616	0
0	5138	1009.381384819782	1
0	5141	1011.703311411457	0
0	5145	1013.439331891895	1
0	5149	1015.848871669878	0
0	5156	1016.306790064357	1
0	5158	1016.459890107904	2
0	5159	1016.850750100219	1
0	5169	1019.680183464661	0
0	5180	1020.330315940355	1
0	5181	1020.770378718153	0
0	5185	1020.914007539508	1
0	5191	1021.698839448735	0
0	5239	1033.897121628669	1
0	5243	1034.650248708912	2
0	5245	1034.953755113029	3
0	5248	1036.317261587646	4
0	5249	1038.45222632422	3
0	5254	1038.504928487732	2
0	5260	1039.153227663431	1
0	5265	1040.215315023574	0
0	5271	1042.49583335749	1
0	5277	1043.478039609124	2
0	5279	1043.786486032653	3
0	5280	1044.086844887779	2
0	5286	1046.724061447086	1
0	5290	1047.506939641686	2
0	5292	1049.844044268839	3
0	5295	1051.595510291988	2
0	5300	1052.770082429141	1
0	5305	1054.164922558847	0
0	5311	1054.566088071134	1
0	5313	1055.332833144878	2
0	5314	1055.643344114771	1
0	5318	1055.690165990638	2
0	5323	1058.480252983998	1
0	5328	1059.828359266175	0
0	5348	1062.42967753695	1
0	5349	1062.69740511208	0
0	5358	1062.833018536237	1
0	5361	1063.270296703365	0
0	5370	1064.536032942301	1
0	5374	1065.841984565791	0
0	5393	1067.742017138294	1
0	5398	1069.130838861825	0
0	5409	1069.956216408501	1
0	5415	1072.686339782498	2
0	5418	1072.983221659453	1
0	5423	1073.558935568001	0
0	5429	1074.581119542065	1
0	5431	1074.75300862261	2
0	5438	1076.405193638066	3
0	5440	1076.743356625114	4
0	5444	1078.178313771899	3
0	5450	1078.848820320003	2
0	5456	1079.326901531764	1
0	5462	1079.473001725105	2
0	5463	1079.601780376011	1
0	5469	1079.631266408064	2
0	5471	1079.73649262251	3
0	5472	1080.048520586524	2
0	5477	1080.827860943147	1
0	5484	1082.052699476848	0
0	5488	1082.167878654511	1
0	5490	1082.367447911856	2
0	5495	1085.380659637189	1
0	5499	1085.91295077376	2
0	5504	1089.36173612637	1
0	5509	1090.163468779608	0
0	5513	1090.764489299716	1
0	5516	1091.250221510461	0
0	5530	1092.290005761827	1
0	5531	1092.603563937005	0
0	5554	1095.590236563646	1
0	5557	1096.434086904927	0
0	5563	1096.474129301572	1
0	5564	1097.200275131262	0
0	5570	1097.345681390729	1
0	5572	1099.680144039328	2
0	5574	1100.353581750599	3
0	5576	1101.062103365033	4
0	5580	1102.630370503207	3
0	5584	1102.695746471651	4
0	5586	1103.132125202974	5
0	5588	1103.388511385267	6
0	5590	1103.398404977753	7
0	5594	1104.877014375758	8
0	5596	1105.503390879962	9
0	5598	1105.884803238962	10
0	5602	1108.263980481997	11
0	5604	1109.054693571376	12
0	5606	1109.813484129709	13
0	5608	1109.961121208425	14
0	5612	1111.391248232329	13
0	5617	1112.067814961392	12
0	5623	1113.149525286342	13
0	5624	1113.327436757053	12
0	5628	1113.772363961478	13
0	5634	1116.077020581395	14
0	5635	1116.563446436075	13
0	5641	1118.194286980327	14
0	5643	1118.578052253416	15
0	5644	1118.771934379139	14
0	5648	1119.027933125263	15
0	5650	1119.432314584676	16
0	5653	1121.365673583855	15
0	5658	1122.039361671579	14
0	5664	1123.808872637069	15
0	5666	1126.003767877503	16
0	5667	1127.108995354568	15
0	5675	1130.268515440528	16
0	5677	1131.199892987755	17
0	5678	1131.269647367452	16
0	5682	1131.534513164071	17
0	5684	1132.281300064449	18
0	5687	1132.716751298283	17
0	5693	1133.594913677584	18
0	5695	1133.74355052777	19
0	5699	1134.616798037361	20
0	5700	1135.489402055933	19
0	5706	1136.264933139615	20
0	5707	1136.350491901838	19
0	5714	1137.930245218764	18
0	5719	1138.954994703938	17
0	5728	1142.669283524068	16
0	5734	1142.869704143574	17
0	5736	1143.377608202887	18
0	5738	1143.802473238002	17
0	5746	1144.221013890592	18
0	5748	1145.106906822274	19
0	5749	1145.373900862438	18
0	5754	1145.476348181575	17
0	5760	1146.841389244266	18
0	5761	1146.93414557612	17
0	5766	1148.167963795911	16
0	5772	1148.727333257633	17
0	5781	1150.214674655308	16
0	5785	1150.868052210949	17
0	5788	1152.023135707198	16
0	5793	1152.633449115311	15
0	5798	1153.863550806239	14
0	5804	1155.649759459995	15
0	5805	1155.872438543032	14
0	5810	1155.95635461565	13
0	5814	1156.327786225287	14
0	5817	1159.044590785239	13
0	5826	1163.199282210622	12
0	5833	1165.542034716322	11
0	5839	1165.952870806488	12
0	5841	1166.623659714003	13
0	5846	1167.640612405424	12
0	5854	1169.476861303845	13
0	5855	1169.543092531855	12
0	5861	1170.923696501846	11
0	5868	1171.296523896086	10
0	5873	1171.81203725468	9
0	5878	1173.53111718607	8
0	5882	1173.699761765435	9
0	5885	1175.275133311757	8
0	5889	1175.340124020764	9
0	5891	1176.572051794115	10
0	5897	1179.918362919351	11
0	5898	1179.946222073887	10
0	5908	1183.420725903784	11
0	5909	1183.562547186781	10
0	5916	1184.535580533489	9
0	5922	1186.505672679774	8
0	5927	1186.574786812078	7
0	5931	1186.84004110495	8
0	5937	1189.5587171471	9
0	5938	1189.891931643542	8
0	5944	1191.959439590399	9
0	5945	1192.246855500884	8
0	5951	1192.430741574387	9
0	5955	1194.558468475315	8
0	5960	1195.261989362031	7
0	5966	1196.026724678913	8
0	5967	1196.126290509454	7
0	5971	1196.67541714165	8
0	5974	1198.103853596732	7
0	5981	1198.361512347955	6
0	5986	1200.08467573618	5
0	5990	1202.000167730769	6
0	5993	1202.189189427013	5
0	6000	1203.868546112427	4
0	6005	1204.35846760648	3
0	6009	1205.278431045739	4
0	6014	1205.906688540089	3
0	6020	1206.946442890343	4
0	6021	1206.952886753803	3
0	6026	1210.164192451022	2
0	6032	1211.191753213544	3
0	6036	1212.954112126738	2
0	6043	1213.696030597373	1
0	6050	1215.262454156688	0
0	6082	1219.560466474623	1
0	6084	1221.087123103637	2
0	6088	1221.863468366898	3
0	6092	1222.324222592475	2
0	6102	1223.466360421802	3
0	6105	1224.16020136759	4
0	6106	1224.325300920072	3
0	6111	1224.460253721193	2
0	6116	1224.476117812938	1
0	6120	1225.130653606354	2
0	6122	1226.077562755369	3
0	6125	1227.585504524488	2
0	6129	1228.205578608398	3
0	6134	1229.000839890159	2
0	6139	1229.582621296093	1
0	6143	1229.874847205585	2
0	6145	1230.229895805423	3
0	6148	1231.477384993718	2
0	6156	1231.751500033412	1
0	6161	1233.308931315276	0
0	6177	1238.958276222223	1
0	6180	1239.305049452808	0
0	6184	1240.098459246001	1
0	6193	1241.217264397752	0
0	6206	1242.53010776562	1
0	6207	1242.819379265785	0
0	6221	1243.053422152558	1
0	6226	1245.288713219805	2
0	6227	1245.480686451563	1
0	6232	1245.51101982771	0
0	6242	1246.947129263689	1
0	6245	1247.78714137732	0
0	6256	1248.496059830794	1
0	6258	1249.467327470199	2
0	6262	1250.32390797465	3
0	6269	1252.468187475987	2
0	6276	1252.81078662506	3
0	6279	1253.707254549107	4
0	6280	1254.296541818688	3
0	6290	1256.19880182668	4
0	6293	1257.54606805134	3
0	6298	1257.704327681678	2
0	6304	1259.650852610586	3
0	6306	1260.281762564987	4
0	6311	1261.164827332606	3
0	6315	1261.369362793512	4
0	6318	1262.882149800132	3
0	6322	1263.073702446974	4
0	6324	1263.980297847483	5
0	6327	1265.964249223421	4
0	6335	1266.752283320005	3
0	6340	1266.986291599269	2
0	6346	1267.358119596434	3
0	6349	1269.221977348196	2
0	6353	1269.245409480176	3
0	6355	1269.787311091001	4
0	6359	1270.526600490634	3
0	6364	1270.634674107498	2
0	6373	1272.028889011364	1
0	6380	1272.363376297493	0
0	6384	1273.495339658113	1
0	6389	1276.027193444538	0
0	6393	1276.151997545424	1
0	6395	1276.356234636092	2
0	6397	1276.507980818266	3
0	6400	1277.99441118933	2
0	6405	1278.235810810437	1
0	6409	1279.496787355757	2
0	6411	1279.653232892709	3
0	6415	1281.14680232622	4
0	6417	1281.668384102585	5
0	6418	1281.784170169309	4
0	6425	1283.716210442784	3
0	6431	1285.541669896885	4
0	6434	1286.167257359943	3
0	6439	1287.53853123603	2
0	6444	1289.753521823344	1
0	6450	1290.792222895845	2
0	6452	1291.918561114199	1
0	6457	1292.1975942142	0
0	6461	1293.274528865342	1
0	6468	1294.919506723654	0
0	6474	1295.146235165948	1
0	6478	1295.803498902908	2
0	6488	1301.601202682225	1
0	6493	1302.530034935674	0
0	6509	1306.114989547645	1
0	6511	1306.3713984821	2
0	6512	1307.084953491718	1
0	6517	1309.709449980523	0
0	6536	1311.505161916822	1
0	6537	1311.830722033861	0
0	6551	1313.315011545429	1
0	6555	1314.064224147441	0
0	6569	1316.00863490665	1
0	6571	1316.984401286923	0
0	6609	1321.97381194388	1
0	6610	1322.186218955301	0
0	6622	1324.596416486943	1
0	6625	1325.258085121335	0
0	6644	1327.528550458521	1
0	6645	1328.159865814379	0
0	6659	1329.089218779105	1
0	6661	1329.859983952649	2
0	6667	1330.94128575556	1
0	6672	1331.126790044204	0
0	6705	1335.988797271105	1
0	6706	1336.434377321973	0
0	6714	1336.923822724648	1
0	6715	1337.681195837605	0
0	6726	1340.248460772755	1
0	6730	1342.2851525597	0
0	6736	1343.152655794026	1
0	6739	1343.819700380767	0
0	6760	1346.548767414184	1
0	6763	1346.951770050227	0
0	6767	1347.56626338547	1
0	6769	1347.694727004761	2
0	6771	1348.514541231914	3
0	6775	1349.042705151606	4
0	6778	1349.505360000685	3
0	6783	1350.489500005624	2
0	6789	1351.65317043192	1
0	6794	1351.964694733244	0
0	6802	1353.192214458069	1
0	6803	1354.066685812408	0
0	6820	1355.268186385983	1
0	6821	1356.993641133427	0
0	6827	1357.133574424716	1
0	6829	1357.148131577782	2
0	6832	1358.537784053285	1
0	6837	1359.105231809926	0
0	6845	1360.058366245028	1
0	6846	1360.728294408992	0
0	6852	1361.681889843624	1
0	6854	1362.335861640022	2
0	6855	1362.785275753989	1
0	6862	1363.469211134766	2
0	6863	1364.949906724264	1
0	6869	1365.65518876376	2
0	6870	1366.148597096423	1
0	6874	1366.936672770666	2
0	6876	1367.511487619964	3
0	6880	1368.527528660793	4
0	6883	1368.732509027008	3
0	6889	1369.470716544346	4
0	6892	1370.744582247653	3
0	6900	1372.044090466413	4
0	6902	1372.527152471626	5
0	6903	1373.011697883951	4
0	6909	1375.276522137278	5
0	6914	1376.619283371032	4
0	6923	1377.505197565421	3
0	6929	1378.436429922062	2
0	6934	1378.906205451104	1
0	6942	1381.691046363181	0
0	6948	1381.749685367764	1
0	6950	1383.419294698585	0
0	6966	1384.590780967082	1
0	6968	1385.056638662813	0
0	6975	1388.478868080933	1
0	6977	1389.418130252387	0
0	7002	1391.33056752161	1
0	7004	1391.561891631073	2
0	7007	1393.090807262596	1
0	7013	1393.58654227322	2
0	7014	1393.685699292029	1
0	7020	1394.525254299134	0
0	7024	1394.990484954412	1
0	7027	1396.828689536109	0
0	7031	1397.673414318921	1
0	7036	1398.373882450475	0
0	7063	1401.574375628494	1
0	7067	1402.056009457108	2
0	7068	1403.325311430053	1
0	7074	1403.375369184481	0
0	7097	1404.377875139293	1
0	7099	1405.156745452784	0
0	7112	1406.173757740453	1
0	7114	1406.338789402738	2
0	7116	1406.45826189315	3
0	7121	1408.085568585485	4
0	7122	1408.225105792472	3
0	7128	1408.230504896066	4
0	7129	1408.248452636747	3
0	7135	1408.986352461271	2
0	7141	1409.388203001314	3
0	7142	1410.488739048547	2
0	7147	1411.15152743972	1
0	7152	1411.9823159958	0
0	7158	1413.98089310122	1
0	7159	1414.057525910491	0
0	7189	1418.602879865552	1
0	7192	1419.873147290899	0
0	7208	1421.805381681732	1
0	7209	1422.142413740379	0
0	7233	1424.784354500533	1
0	7239	1426.870503931134	0
0	7248	1427.255904475619	1
0	7251	1427.921534053411	0
0	7272	1434.378222105124	1
0	7273	1434.521607803023	0
0	7332	1444.196107060675	1
0	7333	1444.629210034098	0
0	7342	1445.108172654854	1
0	7345	1445.478868795041	0
0	7356	1446.641557653662	1
0	7358	1447.99505817462	0
0	7386	1454.127711388334	1
0	7387	1454.240825969414	0
0	7396	1454.910118447735	1
0	7398	1454.938329530979	2
0	7402	1457.02757499923	1
0	7407	1457.279569202444	0
0	7420	1459.474870007655	1
0	7421	1459.852452691313	0
0	7432	1461.091696384946	1
0	7434	1461.724346114777	0
0	7440	1463.616542211413	1
0	7442	1464.299127459211	0
0	7467	1469.708674053512	1
0	7468	1470.969909701897	0
0	7485	1472.151650277798	1
0	7490	1472.919187222559	0
0	7509	1474.625000900905	1
0	7511	1474.675629944422	2
0	7514	1474.854668557456	1
0	7521	1475.375961179905	0
0	7525	1476.429812982268	1
0	7528	1478.204980621682	0
0	7534	1478.347268054175	1
0	7538	1479.071263318976	2
0	7539	1479.20756748672	1
0	7543	1479.268717071992	2
0	7547	1480.036363284728	3
0	7548	1480.092079049334	2
0	7555	1482.490977217424	3
0	7556	1483.000070209174	2
0	7561	1483.700326356372	1
0	7565	1484.193360853394	2
0	7567	1484.612578961633	3
0	7571	1487.038535165521	4
0	7578	1489.525157222736	5
0	7580	1491.870047040548	6
0	7581	1492.280255300184	5
0	7586	1492.601439623871	4
0	7590	1493.316855851202	5
0	7593	1493.861475219128	4
0	7603	1496.827752381263	5
0	7604	1497.738330233482	4
0	7608	1497.738435402199	5
0	7612	1500.940192842925	6
0	7614	1501.049851841513	7
0	7616	1501.233652622337	8
0	7620	1502.149915911407	9
0	7623	1503.352729239302	8
0	7633	1504.12212700685	7
0	7639	1504.845742820088	8
0	7641	1504.854672121788	9
0	7643	1505.021103336716	10
0	7644	1505.435695411517	9
0	7649	1507.775065005384	8
0	7653	1508.596752279851	9
0	7656	1510.286185068933	8
0	7661	1511.925209449144	7
0	7665	1513.11216949715	8
0	7667	1513.372809039599	9
0	7669	1513.373953767003	10
0	7676	1516.300255537076	9
0	7682	1517.32384215151	10
0	7683	1517.520420304182	9
0	7688	1519.125976559787	8
0	7694	1520.238488845997	9
0	7695	1520.370083442025	8
0	7701	1521.334752879649	9
0	7702	1521.464201213222	8
0	7707	1523.198967477143	7
0	7712	1523.438724604058	6
0	7716	1523.474830699734	7
0	7720	1523.86935889554	8
0	7723	1523.948491628501	7
0	7727	1524.176429176433	8
0	7735	1528.409369541561	7
0	7742	1528.689754556497	6
0	7746	1528.860194389462	7
0	7750	1529.182871679907	6
0	7755	1529.403208452238	5
0	7760	1529.527413507813	4
0	7765	1530.569138804137	3
0	7773	1531.394398517337	4
0	7776	1532.506082915336	3
0	7780	1532.936852231651	4
0	7785	1533.974007043026	3
0	7791	1536.544696116288	4
0	7793	1536.734698217516	5
0	7794	1536.880814936586	4
0	7799	1537.250266237412	3
0	7804	1537.299622901493	2
0	7808	1538.313619170874	3
0	7810	1539.805092161303	4
0	7820	1543.034320388401	5
0	7822	1543.147841269101	6
0	7826	1544.380883145433	7
0	7829	1544.794295807881	6
0	7836	1545.796327065257	5
0	7842	1546.146468981867	6
0	7845	1546.783146512602	5
0	7852	1547.241128983184	6
0	7853	1547.472989516229	5
0	7861	1548.833446475535	6
0	7864	1549.667026953583	5
0	7871	1550.766981867273	4
0	7877	1551.6502389122	3
0	7884	1552.248578856182	4
0	7886	1552.963494982401	5
0	7887	1553.050435227228	4
0	7892	1554.061393244963	3
0	7896	1554.649734139641	4
0	7899	1555.136896905158	3
0	7903	1556.125279095762	4
0	7907	1557.101838325074	3
0	7912	1559.352717568873	2
0	7918	1560.558936885057	3
0	7919	1560.834857144322	2
0	7924	1561.404398509857	1
0	7931	1561.944789854591	0
0	7937	1562.543860118615	1
0	7940	1563.160458028184	0
0	7944	1563.265835144286	1
0	7947	1564.014432279714	0
0	7951	1565.352945971649	1
0	7954	1568.464915325174	0
0	7967	1570.796901147445	1
0	7969	1570.881811601179	2
0	7970	1571.46781912723	1
0	7975	1571.962584631996	0
0	7997	1574.820488309225	1
0	8000	1576.672491871396	0
0	8012	1578.241228607312	1
0	8014	1578.774610764471	2
0	8015	1579.484114956062	1
0	8020	1579.951226251585	0
0	8027	1581.438430902081	1
0	8030	1583.248326792072	2
0	8031	1583.255011461009	1
0	8038	1583.907746913683	0
0	8042	1583.954349226633	1
0	8047	1584.678883719709	2
0	8049	1585.224426477845	1
0	8055	1585.986792664332	0
0	8071	1588.924064228852	1
0	8074	1589.908063759666	0
0	8087	1590.644739065653	1
0	8088	1590.783552043008	0
0	8092	1592.983575727725	1
0	8094	1592.988481646744	2
0	8098	1594.070147219753	1
0	8104	1594.119571967306	2
0	8106	1594.679072191806	3
0	8107	1594.946791235895	2
0	8113	1595.932906278373	3
0	8115	1596.142191878875	4
0	8119	1596.670049407122	3
0	8124	1596.74062433229	2
0	8134	1598.979076398815	1
0	8139	1599.280233598652	0
0	8153	1602.035901921653	1
0	8155	1602.359299299776	2
0	8157	1602.580005089329	3
0	8165	1603.949470980415	4
0	8166	1604.652376288327	3
0	8172	1605.984647660659	2
0	8177	1606.132122487088	1
0	8183	1607.186734971016	2
0	8184	1607.475960107391	1
0	8189	1608.307469505626	0
0	8195	1608.929143939107	1
0	8196	1610.322092483183	0
0	8207	1613.278962383528	1
0	8209	1613.484071715492	2
0	8210	1613.857993261044	1
0	8220	1615.349483749922	0
0	8235	1617.443283439022	1
0	8236	1617.516107627282	0
0	8249	1619.096389093019	1
0	8251	1619.161826394242	2
0	8254	1620.085298260789	3
0	8255	1620.599634675238	2
0	8261	1622.76076159666	3
0	8267	1624.321108080613	2
0	8272	1624.422542225582	1
0	8278	1625.283211460362	2
0	8280	1625.579128824605	3
0	8283	1625.805698464102	2
0	8288	1626.153642826902	1
0	8292	1627.762960983216	2
0	8297	1629.932123192878	3
0	8298	1631.189253738975	2
0	8303	1632.839859961145	1
0	8307	1633.182125574735	2
0	8311	1633.418324846379	3
0	8312	1633.516742640848	2
0	8316	1633.585058905124	3
0	8323	1637.108590517424	2
0	8328	1637.216287996495	1
0	8333	1637.646030594364	0
0	8337	1638.005320020874	1
0	8340	1638.199169589641	0
0	8344	1638.781195497301	1
0	8348	1641.849718679279	2
0	8349	1643.349009025747	1
0	8353	1643.771243789249	2
0	8357	1646.22837931526	3
0	8360	1647.431493931971	2
0	8366	1648.127500248231	3
0	8368	1648.815259088549	4
0	8373	1655.330538678813	3
0	8377	1655.83828624241	4
0	8379	1656.539457237383	5
0	8382	1658.250830842139	4
0	8390	1658.930138366141	5
0	8394	1659.276683701641	6
0	8396	1659.35589575114	7
0	8397	1659.775363777224	6
0	8403	1660.414415652567	7
0	8405	1661.57737180236	6
0	8411	1662.066776341331	5
0	8416	1662.322035802469	4
0	8422	1662.442224102479	5
0	8423	1663.182214328427	4
0	8429	1663.53217853147	5
0	8430	1663.568006368583	4
0	8436	1666.497962934605	5
0	8437	1667.585628646318	4
0	8444	1669.954669767491	3
0	8453	1672.021741723081	2
0	8458	1672.136127836558	1
0	8463	1674.427606062099	0
0	8467	1674.890155045839	1
0	8469	1675.421500433456	2
0	8471	1675.810985174832	3
0	8474	1677.973200756924	2
0	8481	1678.504927296527	3
0	8483	1679.070907843242	2
0	8488	1679.24054474511	1
0	8493	1680.193133116284	0
0	8497	1681.817628736848	1
0	8506	1685.074633568604	2
0	8508	1685.39767060814	1
0	8513	1686.273348051711	0
0	8519	1686.742032818687	1
0	8520	1686.840636872019	0
0	8538	1690.093530055771	1
0	8541	1690.47171295224	0
0	8550	1691.322088318396	1
0	8551	1691.785184704413	0
0	8559	1692.329642136207	1
0	8560	1692.468700652726	0
0	8572	1693.252591703741	1
0	8574	1694.123419630475	2
0	8576	1694.149689570669	3
0	8577	1694.31752139483	2
0	8584	1695.110533198806	1
0	8589	1695.330451218159	0
0	8620	1699.274548083274	1
0	8622	1699.302178174513	2
0	8624	1699.754715749114	3
0	8626	1699.858969400995	4
0	8632	1700.771483220278	5
0	8633	1700.866259389591	4
0	8638	1702.839655681205	3
0	8645	1706.201755444836	2
0	8649	1706.912410280195	3
0	8654	1708.597214857319	2
0	8658	1708.631523401166	3
0	8663	1709.999782006821	4
0	8666	1712.338866228818	3
0	8672	1712.929164937202	2
0	8677	1714.104101351458	1
0	8682	1715.392989324006	0
0	8702	1717.600609692452	1
0	8703	1717.974306309285	0
0	8714	1718.962247579734	1
0	8716	1719.25184844412	2
0	8718	1719.925188999239	1
0	8723	1720.207702876418	0
0	8766	1728.138601620315	1
0	8768	1728.518964959944	2
0	8770	1729.049513324838	3
0	8772	1729.489695313739	4
0	8774	1730.227562948632	5
0	8775	1730.759061837769	4
0	8781	1731.310673579101	3
0	8787	1731.703083301231	4
0	8789	1731.852628545532	5
0	8790	1732.330184629746	4
0	8796	1732.820361735896	3
0	8802	1732.956391065133	4
0	8803	1732.959876982709	3
0	8807	1735.153531008458	4
0	8809	1735.35776348544	5
0	8819	1738.842621643372	4
0	8827	1740.674098392045	5
0	8830	1741.863713187939	4
0	8837	1742.816688692758	3
0	8842	1745.874986266928	2
0	8848	1746.158789245483	3
0	8851	1746.361629438126	2
0	8855	1747.429054804354	3
0	8859	1748.222499949681	4
0	8861	1748.542464121499	5
0	8866	1750.67388248162	4
0	8870	1750.808335181362	5
0	8873	1751.181814934585	4
0	8878	1751.538600471419	3
0	8882	1751.80344566467	4
0	8884	1752.21849330948	5
0	8888	1752.59494826171	6
0	8889	1752.760026837381	5
0	8893	1753.188932604185	6
0	8899	1754.108463809459	7
0	8903	1755.018267249425	8
0	8904	1756.265786022269	7
0	8911	1756.914376784837	6
0	8917	1757.80667569789	5
0	8922	1757.974982799855	4
0	8927	1758.418859817994	3
0	8931	1758.798853695097	4
0	8933	1759.836155727036	5
0	8938	1761.067331605529	6
0	8942	1762.448483535083	5
0	8947	1762.462995276517	4
0	8952	1762.731846145638	3
0	8958	1763.552449977981	4
0	8960	1763.832427674432	5
0	8963	1764.396843840682	4
0	8970	1766.108730020535	3
0	8976	1766.444199297377	4
0	8977	1766.542804680669	3
0	8983	1766.611151655729	4
0	8984	1766.823567424526	3
0	8990	1767.383315847442	4
0	8995	1768.633048351724	3
0	9000	1769.21710261553	2
0	9004	1769.469767472562	3
0	9007	1771.330280720459	2
0	9012	1773.914837495204	1
0	9016	1773.927036225782	2
0	9020	1773.985434049868	3
0	9021	1774.581975136678	2
0	9026	1774.874900714376	1
0	9032	1777.372757659553	2
0	9034	1779.005551220836	3
0	9035	1779.375535275228	2
0	9040	1780.752062839384	1
0	9046	1782.065229605252	2
0	9048	1783.245558384923	1
0	9056	1783.449622404003	2
0	9057	1784.432837877097	1
0	9062	1784.913032282245	0
0	9074	1787.38398312694	1
0	9075	1787.848293130585	0
0	9081	1788.288527779853	1
0	9086	1789.24240951817	0
0	9101	1790.802789681537	1
0	9106	1796.486003583607	2
0	9108	1797.036180750445	3
0	9109	1797.051995404823	2
0	9114	1797.074321837903	1
0	9119	1797.658646370562	0
0	9137	1799.489065510533	1
0	9138	1799.609994299757	0
0	9147	1802.418828730504	1
0	9149	1802.752470408829	2
0	9151	1803.303496967184	3
0	9156	1804.463773413821	2
0	9161	1805.125168647833	1
0	9165	1805.210792994637	2
0	9167	1805.854046604436	3
0	9170	1806.244101060619	2
0	9174	1806.89636443615	3
0	9176	1807.248225829049	4
0	9178	1808.264917350038	5
0	9181	1808.6029459585	4
0	9185	1808.840862143363	5
0	9187	1809.276109278744	6
0	9192	1810.411536077291	5
0	9199	1811.461397899054	4
0	9203	1812.481603574815	5
0	9208	1813.698061238463	6
0	9210	1814.117818207951	7
0	9211	1814.942123226421	6
0	9217	1815.617266428239	7
0	9219	1815.947527792332	8
0	9220	1816.33026309309	7
0	9226	1816.724382617802	8
0	9229	1816.895357123424	9
0	9230	1817.088807221722	8
0	9235	1817.314410702502	7
0	9241	1818.10238988651	8
0	9243	1818.525000356729	9
0	9244	1818.543648879528	8
0	9250	1818.899527456139	9
0	9251	1819.223413490177	8
0	9255	1819.765761199033	9
0	9260	1820.353729387294	8
0	9265	1821.000567321751	7
0	9271	1823.699388209647	8
0	9276	1825.507946685859	7
0	9280	1826.600308482854	8
0	9285	1827.770514427076	7
0	9291	1828.606748738058	8
0	9292	1828.912817322435	7
0	9298	1829.322401849223	8
0	9299	1829.512492270336	7
0	9304	1831.760775325829	6
0	9310	1832.873248498695	7
0	9311	1832.928812245817	6
0	9317	1833.410162377655	7
0	9318	1833.509448070504	6
0	9322	1833.698487477211	7
0	9326	1834.370847599248	8
0	9327	1836.824650964262	7
0	9333	1839.294466733711	6
0	9338	1839.424526579763	5
0	9345	1841.169138523755	4
0	9349	1841.229854342838	5
0	9353	1841.758103343528	6
0	9357	1842.797202388189	7
0	9359	1843.263558890222	8
0	9360	1843.483809382266	7
0	9364	1843.609475364113	8
0	9366	1844.061953731107	9
0	9370	1844.436224812849	10
0	9372	1844.897933121343	11
0	9373	1845.021806718552	10
0	9377	1845.915876048091	11
0	9379	1845.999726549152	12
0	9381	1847.148086966522	13
0	9384	1847.997057442095	12
0	9390	1849.983941659713	13
0	9391	1850.204791294068	12
0	9396	1851.860877570817	11
0	9403	1853.995611669203	12
0	9408	1854.959841352088	11
0	9415	1857.884031993881	12
0	9417	1858.242431475388	13
0	9418	1858.366524908311	12
0	9423	1858.491697035781	11
0	9429	1858.957892518929	10
0	9434	1859.355786571816	9
0	9438	1859.707628424812	10
0	9440	1860.546611784098	11
0	9444	1862.02826096571	10
0	9455	1863.763650659042	9
0	9461	1863.905159779693	10
0	9462	1864.155144847018	9
0	9470	1865.879524104792	10
0	9472	1866.38263316082	11
0	9475	1867.129297410908	10
0	9480	1867.235910282079	9
0	9486	1867.459411643975	10
0	9488	1869.072759451481	9
0	9496	1869.369833771451	10
0	9497	1870.127776775909	9
0	9502	1871.141993907679	8
0	9508	1871.319020423991	9
0	9509	1871.530204613845	8
0	9514	1873.181981897279	7
0	9518	1873.603118307826	8
0	9520	1873.619478058435	9
0	9524	1875.988544322339	10
0	9530	1877.40728730571	11
0	9531	1878.159162759811	10
0	9535	1879.200023808134	11
0	9537	1880.407003261678	12
0	9539	1880.591230668686	13
0	9542	1880.665378754624	12
0	9552	1883.693435565762	13
0	9553	1885.902831989279	12
0	9558	1886.124662063796	11
0	9565	1886.494898923936	10
0	9570	1886.969343318176	9
0	9575	1888.241955773939	8
0	9583	1889.484578949318	9
0	9584	1889.529190586184	8
0	9588	1889.992787072519	9
0	9593	1892.107435763236	10
0	9596	1892.912798148017	9
0	9601	1892.942300591864	8
0	9607	1893.684043591926	9
0	9611	1894.160063534612	10
0	9612	1894.206936456435	9
0	9616	1894.540440206428	10
0	9618	1895.478238992258	11
0	9622	1896.090949948414	12
0	9626	1896.785828307476	11
0	9636	1897.884132382842	12
0	9637	1898.287107800907	11
0	9641	1900.342635000733	12
0	9650	1902.830222012584	11
0	9655	1903.021377658474	10
0	9660	1903.057936811256	9
0	9664	1904.668069579177	10
0	9669	1905.610655567783	9
0	9673	1906.747071606484	10
0	9678	1909.147651430885	9
0	9686	1910.733321454709	10
0	9687	1910.82600953544	9
0	9693	1912.540926282066	8
0	9700	1913.397344603823	7
0	9706	1913.574044255795	8
0	9710	1914.858086853453	9
0	9713	1915.497746695553	8
0	9718	1917.061344955779	7
0	9723	1917.192085703289	6
0	9727	1917.432067559952	7
0	9730	1918.134996543812	6
0	9735	1918.860819288531	5
0	9739	1921.707352469033	6
0	9743	1922.359529668246	7
0	9745	1923.113924944733	8
0	9748	1923.546578476039	7
0	9752	1923.994685051663	8
0	9757	1925.32059019227	7
0	9761	1927.001642186612	8
0	9764	1927.946203743978	7
0	9769	1928.418395748712	6
0	9777	1932.686637035381	5
0	9783	1933.470214710917	6
0	9784	1933.727796376364	5
0	9788	1933.960959746452	6
0	9794	1936.692912887984	7
0	9795	1936.825912421111	6
0	9800	1938.260050789627	5
0	9804	1938.33047788687	6
0	9807	1940.070597007425	5
0	9815	1941.176044853013	6
0	9816	1941.517966430143	5
0	9823	1942.234912471054	4
0	9827	1942.325236631224	5
0	9831	1943.081179986962	6
0	9835	1947.099543530283	7
0	9837	1947.536729294642	8
0	9839	1947.663694639825	9
0	9841	1947.730172632663	10
0	9842	1947.862764768379	9
0	9851	1949.416216660615	10
0	9852	1951.027558873986	9
0	9857	1951.28485152666	8
0	9862	1953.423147933688	7
0	9870	1956.487181707134	8
0	9872	1956.534952573664	9
0	9877	1958.128577718641	8
0	9881	1958.77455969888	9
0	9887	1959.576867558919	10
0	9888	1959.820381395676	9
0	9892	1959.880798713084	10
0	9894	1959.998600635376	11
0	9899	1960.385788164838	10
0	9905	1961.765852658814	11
0	9906	1962.676606907251	10
0	9910	1963.819378732479	11
0	9914	1965.573504896549	12
0	9916	1965.593562246252	13
0	9917	1965.658221704318	12
0	9921	1966.04231623987	13
0	9923	1967.387974065712	14
0	9927	1968.7641845611	15
0	9929	1969.838902782302	16
0	9932	1970.687282303391	15
0	9936	1971.03486152277	16
0	9938	1973.04713460698	17
0	9942	1975.039373675627	18
0	9945	1975.795460463676	17
0	9952	1976.609587235924	16
0	9958	1976.93485582415	17
0	9959	1977.05745050202	16
0	9964	1977.063211333007	15
0	9968	1977.126940843959	16
0	9971	1979.061072659932	15
0	9976	1979.516723509552	14
0	9980	1980.612487179034	15
0	9983	1981.857441430635	14
0	9987	1982.054148718578	15
0	9993	1982.33560611809	16
0	9995	1982.48287688239	17
0	9999	1983.865559856825	18
0	10002	1985.119875565328	17
0	10006	1985.477106216743	18
0	10010	1987.484287922652	17
0	10015	1988.814616043631	16
0	10020	1990.141262401832	15
0	10024	1992.095572614672	16
0	10028	1993.47632983729	17
0	10029	1994.153838308574	16
0	10038	1996.81852035328	15
0	10043	1997.184284367862	14
0	10049	1997.569606878732	15
0	10054	1999.748426161929	16
0	10055	2000.273760724686	15
0	10061	2000.288025028889	16
0	10062	2000.402237522039	15
0	10066	2001.823109323865	16
0	10068	2005.954911718925	17
0	10071	2006.193448289747	16
0	10075	2006.831919444165	17
0	10078	2006.989564309883	16
0	10085	2008.270237580498	15
0	10090	2009.01481651103	14
0	10094	2009.866601362902	15
0	10100	2010.640930714247	16
0	10103	2011.024153894066	15
0	10112	2015.195325946143	14
0	10116	2015.783068520255	15
0	10118	2017.046566558708	16
0	10120	2018.202389981136	17
0	10123	2019.158456369403	16
0	10129	2020.448954899601	17
0	10132	2020.721873215979	16
0	10141	2022.730152102153	15
0	10147	2023.631110775035	16
0	10148	2024.401114820177	15
0	10154	2025.303667845625	16
0	10156	2025.482235375679	17
0	10158	2026.724577982365	16
0	10163	2027.169673119937	15
0	10169	2027.480196208592	16
0	10173	2028.445303130573	17
0	10174	2028.652976115685	16
0	10179	2028.743501935023	15
0	10184	2028.749879712702	14
0	10189	2029.894420163321	13
0	10193	2030.144189232632	14
0	10197	2030.419701626017	15
0	10202	2030.786495189803	16
0	10203	2031.357670147011	15
0	10210	2032.352270890125	14
0	10215	2033.701827310074	13
0	10223	2034.139585648803	14
0	10224	2034.579161839032	13
0	10231	2035.387181699586	12
0	10236	2037.837527539086	11
0	10241	2042.106634939092	10
0	10246	2043.316112346894	9
0	10250	2046.199219999063	10
0	10254	2047.911846733537	11
0	10255	2047.929751374931	10
0	10259	2049.178569811889	11
0	10262	2049.705673797013	10
0	10267	2050.500901956977	9
0	10271	2050.957797524054	10
0	10274	2052.236424945619	9
0	10279	2053.77156746474	8
0	10285	2054.917885221453	9
0	10287	2055.035844083858	10
0	10293	2056.269807207769	9
0	10298	2056.330543068293	8
0	10302	2057.4726894011	9
0	10307	2057.820000673328	8
0	10312	2060.127298323441	7
0	10318	2061.368749649823	8
0	10321	2061.875196429332	7
0	10326	2064.013737956405	6
0	10331	2065.252802653213	5
0	10335	2065.558728300787	6
0	10340	2066.073871355517	5
0	10345	2066.655828600813	4
0	10352	2068.289002004698	3
0	10359	2071.280200569159	4
0	10361	2072.074024361185	5
0	10363	2072.12899383575	4
0	10369	2072.580179381342	3
0	10374	2072.865185407364	2
0	10383	2074.465638692537	3
0	10385	2074.729224316314	4
0	10386	2075.654692253542	3
0	10393	2076.679001355987	4
0	10394	2076.889035189302	3
0	10402	2077.90690935903	4
0	10404	2078.645898180363	5
0	10405	2078.680324683375	4
0	10411	2078.834737068484	3
0	10417	2079.320429816269	4
0	10418	2079.661983879086	3
0	10425	2081.352331123276	2
0	10431	2083.567446149348	1
0	10436	2084.031800342432	0
0	10444	2086.228754071137	1
0	10445	2087.598682463759	0
0	10465	2089.206256241483	1
0	10466	2089.221032570902	0
0	10478	2091.596208179094	1
0	10481	2093.068977858764	0
0	10495	2094.047592654173	1
0	10497	2095.661179826907	2
0	10499	2098.229606278802	3
0	10501	2098.660305023996	4
0	10507	2101.063754796627	5
0	10513	2102.040853458262	4
0	10518	2102.166443214456	3
0	10523	2102.816631086092	2
0	10532	2105.153406890465	3
0	10534	2105.769128660777	4
0	10537	2107.017617850596	3
0	10543	2107.14891215575	4
0	10544	2107.324614463715	3
0	10549	2107.555437120693	2
0	10554	2107.7673792778	1
0	10559	2108.843278356681	0
0	10563	2108.882489349529	1
0	10566	2109.001442858325	0
0	10598	2114.492315252928	1
0	10605	2115.2586186859	0
0	10622	2117.020816403679	1
0	10624	2118.560314981393	0
0	10635	2120.324951442658	1
0	10637	2120.887234506961	0
0	10646	2121.854099211272	1
0	10647	2121.863534478818	0
0	10655	2122.378627785933	1
0	10660	2124.128855914969	2
0	10661	2124.177296312326	1
0	10668	2124.868046343808	0
0	10676	2127.049943941437	1
0	10677	2127.086453920881	0
0	10714	2131.395826967566	1
0	10717	2132.863120481856	2
0	10718	2133.695850056373	1
0	10723	2136.432248873572	0
0	10729	2136.966161643366	1
0	10730	2137.077354025832	0
0	10736	2137.916702875625	1
0	10740	2138.065789499729	2
0	10742	2138.703080738377	3
0	10746	2139.153241197819	4
0	10747	2139.469512499199	3
0	10752	2140.804972221778	2
0	10758	2141.414685522564	3
0	10760	2141.449258307354	4
0	10761	2142.163953177039	3
0	10768	2143.449294988794	2
0	10773	2143.923638613031	1
0	10779	2144.249799844947	2
0	10780	2145.080765721308	1
0	10784	2146.108629840022	2
0	10791	2147.059049914766	1
0	10797	2147.276779521817	2
0	10800	2147.753400757437	1
0	10806	2148.398074698127	2
0	10808	2148.740974768266	3
0	10810	2148.805096824418	4
0	10813	2149.92049462334	3
0	10818	2150.237153607822	2
0	10824	2150.57163862472	3
0	10825	2150.879736267576	2
0	10830	2151.794976862024	1
0	10839	2154.136505993345	0
0	10845	2154.371711385534	1
0	10849	2155.946169611969	0
0	10860	2156.215849730469	1
0	10861	2156.489213405284	0
0	10879	2157.974250089512	1
0	10881	2158.73500516784	0
0	10887	2158.824098522015	1
0	10890	2159.685806736054	0
0	10904	2163.227059992623	1
0	10910	2164.258758859527	2
0	10912	2164.345106971166	3
0	10915	2165.438767921041	2
0	10920	2165.997775790941	1
0	10927	2166.619397256166	0
0	10934	2167.45321176471	1
0	10936	2167.51424640209	2
0	10937	2167.669856623401	1
0	10942	2167.980423573379	0
0	10959	2168.806122392018	1
0	10961	2168.961844351512	2
0	10962	2169.291123035179	1
0	10969	2170.839777801049	0
0	10995	2175.87331842304	1
0	10999	2177.784962435263	2
0	11001	2179.843896477678	3
0	11007	2180.716179121605	4
0	11008	2181.47751262112	3
0	11015	2182.403543059343	4
0	11017	2182.516880252809	5
0	11018	2182.578800846128	4
0	11024	2183.27880913052	3
0	11035	2185.98273305782	2
0	11040	2186.118305318439	1
0	11047	2188.84699956923	0
0	11060	2191.14196138678	1
0	11062	2191.219546296909	2
0	11063	2191.428371819456	1
0	11068	2193.70672098588	0
0	11074	2194.415549840073	1
0	11075	2194.604796401064	0
0	11081	2196.088925268122	1
0	11085	2196.732636970104	2
0	11087	2197.925430128068	3
0	11089	2198.429586713675	4
0	11090	2200.106410569674	3
0	11097	2201.474524576374	4
0	11100	2202.067836300838	3
0	11105	2202.645452747625	2
0	11114	2203.736397934607	1
0	11120	2203.975638025096	2
0	11121	2204.530384383428	1
0	11127	2205.586176979551	2
0	11128	2206.481875150988	1
0	11132	2206.559736907056	2
0	11134	2207.778469715992	3
0	11136	2208.268928304651	4
0	11138	2208.489047572181	5
0	11141	2209.371692122064	4
0	11148	2211.047107100426	3
0	11154	2213.940685000144	4
0	11157	2215.13837025705	3
0	11162	2215.746808649743	2
0	11169	2216.22273521312	3
0	11170	2216.505120578292	2
0	11177	2217.48914154039	1
0	11181	2217.797628365296	2
0	11184	2218.933620964853	1
0	11189	2219.408947179505	0
0	11193	2219.681656800411	1
0	11197	2222.878197530455	0
0	11220	2226.096875696658	1
0	11223	2226.215871277398	2
0	11225	2226.965864494827	3
0	11227	2228.438719445583	4
0	11231	2229.186147224539	5
0	11232	2229.245443046723	4
0	11237	2229.45998517227	3
0	11242	2229.554552449354	2
0	11253	2232.302970357777	1
0	11258	2234.030623095594	0
0	11294	2239.296257168915	1
0	11300	2240.585845773867	2
0	11301	2240.725070970624	1
0	11308	2241.538271088212	0
0	11329	2244.104059309145	1
0	11331	2244.433648595111	2
0	11335	2247.431477795103	3
0	11337	2248.455713060397	4
0	11343	2252.239305385308	3
0	11351	2253.304406838413	2
0	11356	2253.923177306895	1
0	11360	2254.158148893996	2
0	11365	2255.522132951435	1
0	11369	2255.83959808797	2
0	11371	2256.381676900014	3
0	11374	2260.637467636199	2
0	11380	2262.443454750867	1
0	11384	2262.530301048525	2
0	11386	2263.21170336949	3
0	11388	2263.298516331631	4
0	11394	2264.634684008944	5
0	11395	2265.353165918734	4
0	11401	2265.376480248662	5
0	11403	2265.414053459739	6
0	11405	2266.455033801508	7
0	11408	2268.64205547275	6
0	11413	2268.907736490226	5
0	11417	2269.012250409058	6
0	11423	2271.03612894354	7
0	11425	2271.95806704209	8
0	11427	2272.075791938151	9
0	11428	2272.146316567525	8
0	11433	2272.487904588539	7
0	11445	2274.526511007132	8
0	11447	2275.006435273153	9
0	11448	2277.022351505619	8
0	11454	2277.360355310965	9
0	11455	2278.123990917201	8
0	11463	2278.289528678066	9
0	11466	2279.824870279001	8
0	11470	2281.096793143171	9
0	11472	2281.103813649291	10
0	11475	2281.640848894823	9
0	11479	2281.737664519702	10
0	11482	2282.260476463657	9
0	11487	2283.343271594719	8
0	11493	2284.011375236971	9
0	11494	2284.121255641655	8
0	11502	2285.925866412849	9
0	11504	2287.189285959044	10
0	11507	2287.685466264528	9
0	11514	2289.882968548128	8
0	11518	2290.224988423981	9
0	11522	2291.042402158737	10
0	11524	2291.382274342143	11
0	11526	2291.413964167421	12
0	11528	2291.471777616446	13
0	11530	2291.734641100481	14
0	11532	2291.90903169009	15
0	11535	2292.111388234624	14
0	11541	2293.099023164872	15
0	11544	2293.802211556897	14
0	11553	2295.788179381958	13
0	11557	2295.912184179895	14
0	11564	2298.156402657809	13
0	11569	2299.201739471047	12
0	11573	2299.331503468167	13
0	11576	2300.090941145834	12
0	11580	2300.424592152921	13
0	11582	2301.349904938287	14
0	11585	2302.804777861476	13
0	11590	2303.781166388981	12
0	11595	2304.590169048243	11
0	11602	2307.879681954841	10
0	11609	2309.630258364012	9
0	11615	2310.304803346779	8
0	11621	2310.389233503879	9
0	11622	2310.511302789301	8
0	11627	2311.098747022841	7
0	11634	2312.853109476653	6
0	11638	2313.282831612576	7
0	11642	2314.690380480937	8
0	11644	2315.775882395928	7
0	11650	2317.676376756654	8
0	11651	2317.942886570073	7
0	11657	2318.760238710015	8
0	11659	2319.141816317836	9
0	11660	2319.383383528024	8
0	11667	2321.926682801745	7
0	11672	2321.96475269917	6
0	11677	2321.973626297246	5
0	11683	2322.981439994555	6
0	11684	2323.733262647681	5
0	11689	2325.401942871935	4
0	11693	2328.406242428956	5
0	11698	2330.675846247624	4
0	11705	2331.315307989985	5
0	11707	2332.088320603576	4
0	11712	2332.145513371869	3
0	11717	2332.476460331	2
0	11721	2332.791799677795	3
0	11724	2333.848013966249	2
0	11729	2334.478410043301	1
0	11735	2336.166554921549	2
0	11737	2336.439016960102	3
0	11739	2336.531665283971	4
0	11740	2336.826915307592	3
0	11746	2338.845616658465	4
0	11747	2339.877552949295	3
0	11752	2340.742885276294	2
0	11757	2341.250647171606	1
0	11763	2342.055217006499	0
0	11769	2342.699485959632	1
0	11771	2343.316673508977	2
0	11775	2343.684871658858	3
0	11776	2344.646666313328	2
0	11785	2348.135391669715	3
0	11786	2348.290172594523	2
0	11791	2348.56551122255	1
0	11797	2351.080854989772	0
0	11808	2352.283056808542	1
0	11809	2352.753380198753	0
0	11815	2353.263714087631	1
0	11817	2353.331510029028	2
0	11818	2353.361200656978	1
0	11825	2354.673224610666	0
0	11829	2355.195977924	1
0	11835	2355.646993237869	2
0	11836	2356.333781653932	1
0	11842	2356.448603071709	2
0	11843	2356.562941293541	1
0	11848	2357.49733212494	0
0	11855	2358.998116768697	1
0	11858	2361.562177854314	0
0	11875	2361.877505575008	1
0	11877	2362.527879619995	0
0	11889	2365.909845911375	1
0	11891	2365.977034373884	2
0	11892	2368.268374141015	1
0	11898	2368.330572177965	2
0	11900	2369.205219557851	1
0	11908	2369.720589466859	2
0	11909	2370.026249519624	1
0	11915	2371.169175443948	2
0	11919	2371.503950787765	3
0	11922	2372.066592863004	2
0	11926	2372.295626472813	3
0	11929	2373.859510114818	2
0	11933	2373.886687350525	3
0	11935	2373.962219513877	4
0	11939	2376.207831585293	5
0	11941	2376.482364965906	6
0	11943	2376.615874052785	7
0	11944	2376.727178194111	6
0	11949	2376.932283595514	5
0	11955	2377.347862611012	6
0	11956	2377.500215823374	5
0	11965	2379.377634297768	4
0	11970	2379.871051865912	3
0	11977	2380.685532034504	2
0	11983	2381.877573797713	3
0	11985	2381.959537303047	4
0	11988	2383.074788988235	3
0	11992	2383.595289422907	4
0	11994	2383.699413084045	5
0	11996	2383.761294879904	6
0	11999	2384.516254873752	5
0	12005	2385.838838876591	4
0	12010	2386.424557249058	3
0	12014	2386.711486950908	4
0	12018	2387.152913656354	5
0	12022	2388.002294419909	6
0	12023	2388.411891492264	5
0	12029	2388.967287277568	4
0	12034	2389.001688113465	3
0	12040	2389.235311896142	2
0	12045	2389.768798741308	1
0	12051	2390.778576793583	2
0	12053	2391.539376994428	1
0	12059	2392.629785578883	2
0	12060	2393.125646299334	1
0	12065	2393.736817919892	0
0	12085	2396.524000322631	1
0	12086	2396.749679949692	0
0	12092	2396.934757632517	1
0	12093	2397.101493488091	0
0	12113	2401.349159128248	1
0	12118	2403.101957089068	0
0	12124	2403.232054253505	1
0	12126	2403.573677986655	2
0	12129	2404.390593103872	3
0	12130	2404.678055639711	2
0	12135	2404.99624281967	1
0	12140	2405.247122552874	0
0	12152	2407.618124468235	1
0	12153	2407.652463970875	0
0	12166	2408.558429702111	1
0	12168	2409.926465024563	0
0	12184	2410.958269191322	1
0	12187	2411.501111750195	0
0	12222	2416.535090001463	1
0	12227	2418.440801566524	0
0	12240	2420.006186046478	1
0	12242	2420.579593542909	2
0	12243	2421.277218893722	1
0	12248	2421.559482827165	0
0	12252	2421.71021767727	1
0	12255	2422.005357199269	0
0	12259	2422.40069050419	1
0	12261	2423.210762140093	2
0	12267	2425.636009626018	3
0	12269	2426.688662485709	4
0	12273	2427.06234017903	5
0	12274	2427.391150147153	4
0	12278	2427.41752106122	5
0	12284	2428.9530585277	6
0	12285	2429.023160079176	5
0	12289	2429.0733616381	6
0	12296	2429.573784859224	5
0	12301	2430.00101027426	4
0	12305	2430.001756385902	5
0	12312	2431.604179286875	4
0	12317	2433.602995028641	3
0	12322	2435.727896006957	2
0	12326	2435.812715338944	3
0	12328	2436.574756050097	4
0	12335	2439.127241518168	5
0	12337	2439.161850458925	6
0	12338	2439.36373675813	5
0	12344	2439.74398335769	6
0	12346	2439.917629443924	7
0	12348	2440.107157810414	6
0	12353	2440.421180091156	5
0	12358	2441.096332996292	4
0	12364	2442.207082617171	3
0	12369	2442.710491999178	2
0	12373	2443.644435841228	3
0	12376	2444.264751306409	2
0	12382	2444.319320741168	3
0	12384	2444.384544892195	4
0	12387	2445.425400127703	3
0	12393	2448.338260381142	4
0	12394	2448.486399437274	3
0	12398	2448.546314734763	4
0	12403	2450.323250267026	3
0	12407	2450.509179494604	4
0	12411	2451.192091834156	5
0	12413	2451.619223786831	6
0	12414	2452.349101127335	5
0	12418	2452.843037612426	6
0	12420	2453.884169779863	7
0	12422	2454.282328725425	8
0	12425	2455.026969902604	7
0	12432	2456.08257774151	6
0	12436	2456.382143116465	7
0	12438	2456.760739572263	8
0	12442	2457.163916764159	9
0	12444	2457.243856664871	10
0	12447	2458.729006826189	9
0	12452	2460.275441568841	8
0	12459	2462.814106007182	7
0	12464	2463.353759794617	6
0	12472	2465.805883330445	7
0	12474	2466.42821261915	8
0	12475	2467.22468535771	7
0	12482	2468.453696918851	6
0	12486	2468.853823422124	7
0	12488	2469.021462879653	8
0	12493	2469.932450070977	9
0	12495	2471.194666311141	8
0	12501	2472.18815555027	7
0	12506	2472.619935017171	6
0	12512	2473.249938534152	7
0	12513	2474.058181902351	6
0	12519	2476.256180274931	7
0	12521	2476.527317632506	8
0	12523	2477.885360402308	9
0	12524	2480.093569436524	8
0	12533	2482.006622860288	7
0	12538	2483.237035936023	6
0	12544	2484.451478691707	5
0	12549	2484.518425318167	4
0	12553	2485.172885364151	5
0	12557	2486.012433276219	6
0	12561	2486.9094812388	7
0	12562	2486.944709566494	6
0	12567	2487.433386598233	5
0	12573	2487.676798059349	6
0	12574	2487.68339666761	5
0	12578	2488.269111335934	6
0	12580	2488.455167661141	7
0	12583	2489.633366583304	6
0	12587	2490.103505100553	7
0	12591	2491.612679963669	6
0	12596	2491.663783200353	5
0	12602	2493.872844636341	4
0	12607	2494.687656250391	3
0	12612	2496.912306164439	2
0	12616	2497.159946529381	3
0	12619	2497.822084297382	2
0	12628	2501.96100435509	1
0	12633	2502.077281127883	0
0	12648	2505.311103639656	1
0	12651	2506.065987023314	0
0	12665	2506.763131581869	1
0	12668	2507.173036195295	2
0	12669	2507.810735840088	1
0	12676	2508.538472312643	2
0	12679	2509.680017851452	1
0	12684	2510.740288969131	0
0	12690	2512.128740617089	1
0	12692	2512.939842063824	0
0	12709	2513.835179501561	1
0	12714	2515.478101797253	0
0	12735	2518.539807315387	1
0	12737	2518.944056074652	2
0	12738	2519.309976865952	1
0	12743	2520.280105415469	0
0	12770	2523.66340036527	1
0	12773	2524.968163825459	2
0	12776	2526.08886413386	3
0	12778	2526.657515077608	4
0	12782	2528.360678890626	5
0	12784	2528.753259619771	6
0	12785	2528.980473655949	5
0	12790	2529.033932357053	4
0	12795	2530.328239179388	3
0	12799	2530.781980585645	4
0	12804	2531.768245789977	3
0	12810	2532.786565420563	2
0	12815	2532.824583224927	1
0	12821	2533.748314108083	2
0	12822	2533.822403577164	1
0	12828	2534.332558276024	2
0	12831	2535.095817056351	1
0	12836	2535.418776725618	0
0	12848	2536.419048712318	1
0	12849	2536.914186539577	0
0	12869	2538.678302140279	1
0	12875	2540.504444905118	2
0	12876	2542.086013185683	1
0	12882	2543.261480359964	2
0	12885	2544.272660214209	1
0	12890	2545.023357667149	0
0	12909	2547.964868913391	1
0	12911	2548.344535908377	2
0	12913	2549.134530294421	1
0	12920	2549.547352545461	2
0	12923	2549.84640600322	1
0	12928	2550.041771178756	0
0	12936	2551.380714689501	1
0	12938	2551.484142830352	2
0	12941	2552.325832103725	1
0	12948	2553.475530409175	2
0	12949	2553.814625741088	1
0	12954	2554.086495845044	0
0	12995	2559.443812328937	1
0	12997	2560.472758748032	2
0	12998	2561.082463547989	1
0	13004	2561.247985645777	2
0	13005	2561.37639549882	1
0	13012	2562.225194589554	2
0	13014	2563.623682116064	1
0	13019	2564.431363652971	0
0	13049	2570.886356745242	1
0	13051	2571.318756197351	0
0	13065	2572.08023211423	1
0	13066	2572.568673103187	0
0	13092	2577.50827080538	1
0	13095	2578.029617691184	0
0	13107	2578.833232090314	1
0	13108	2579.157577327694	0
0	13114	2579.279530642306	1
0	13115	2579.815885233461	0
0	13122	2580.158019051862	1
0	13127	2582.565977652692	0
0	13175	2589.631059750759	1
0	13176	2589.874811506632	0
0	13186	2590.092994523861	1
0	13192	2591.251091014879	2
0	13193	2591.859540338064	1
0	13198	2592.115261169771	0
0	13218	2594.598600499935	1
0	13219	2595.035042765546	0
0	13260	2604.789301367934	1
0	13264	2606.410692546143	2
0	13267	2606.721838087657	1
0	13272	2607.036497842619	0
0	13278	2607.913995873551	1
0	13283	2609.853167454596	0
0	13289	2609.95078443894	1
0	13290	2610.044801755538	0
0	13307	2614.408958348738	1
0	13308	2614.492213212851	0
0	13321	2615.239022364136	1
0	13323	2615.744543490662	2
0	13331	2617.953197170191	1
0	13335	2618.671221017357	2
0	13342	2621.012145991133	1
0	13347	2621.207129340422	0
0	13383	2627.673650639743	1
0	13388	2631.341845941408	2
0	13392	2633.998714669134	3
0	13394	2634.373827323564	4
0	13395	2635.015920761964	3
0	13400	2635.819659580305	2
0	13405	2636.073456471119	1
0	13409	2636.12102446802	2
0	13411	2641.06295077134	3
0	13414	2641.525347128809	2
0	13420	2642.192493694101	1
0	13426	2642.699395794164	2
0	13427	2643.285387728639	1
0	13435	2645.581156745504	2
0	13436	2645.799001091366	1
0	13440	2647.315087872798	2
0	13444	2647.812841366272	3
0	13446	2647.859527079714	4
0	13449	2649.051349631243	3
0	13454	2650.428730539544	2
0	13459	2651.855617176539	1
0	13466	2654.966442666127	0
0	13472	2655.892986334395	1
0	13473	2656.047916438334	0
0	13491	2658.763316637405	1
0	13492	2659.110171473836	0
0	13499	2659.664678089974	1
0	13500	2660.141688527523	0
0	13517	2660.454754127404	1
0	13518	2660.464031341554	0
0	13524	2662.203506581946	1
0	13528	2664.703193096404	0
0	13535	2666.26525956804	1
0	13539	2666.733907219615	2
0	13542	2667.994587088289	1
0	13549	2668.625699026034	2
0	13551	2668.978346582856	1
0	13556	2669.22588396234	0
0	13572	2670.073250238393	1
0	13573	2670.356309952134	0
0	13577	2670.665187835769	1
0	13579	2671.872740644283	2
0	13583	2672.472489401567	3
0	13585	2672.516678747789	4
0	13590	2674.917604865719	3
0	13594	2675.134684242359	4
0	13596	2675.688960661123	5
0	13599	2676.631123565148	4
0	13606	2678.726803210372	3
0	13613	2681.209305499615	2
0	13617	2681.659805099679	3
0	13619	2682.333050754585	4
0	13621	2682.567886980474	5
0	13625	2683.214779922869	4
0	13632	2683.441134773611	3
0	13637	2683.492200337091	2
0	13642	2683.58833941015	1
0	13648	2685.744946875885	2
0	13650	2686.14847756485	3
0	13654	2687.058767466977	4
0	13655	2687.635835113537	3
0	13661	2687.656797708315	4
0	13662	2687.657556617941	3
0	13668	2688.741479089257	2
0	13674	2689.138854590631	3
0	13675	2689.167265800963	2
0	13683	2691.234236367799	3
0	13685	2691.630986032367	2
0	13692	2692.520828005186	1
0	13700	2693.550982203851	2
0	13702	2693.557015050679	3
0	13703	2694.185120364538	2
0	13710	2694.574715908806	1
0	13720	2696.932382465116	2
0	13721	2697.278622512938	1
0	13726	2700.142995221404	0
0	13730	2704.500988561977	1
0	13732	2707.218295541574	2
0	13735	2708.725346362312	1
0	13739	2709.45440971211	2
0	13743	2710.727963732738	1
0	13749	2711.369203155883	0
0	13768	2715.369165918731	1
0	13770	2715.819787422783	2
0	13774	2718.95054288767	3
0	13778	2719.971339165631	4
0	13780	2721.168352927747	5
0	13784	2721.692671343293	6
0	13786	2722.59453603514	7
0	13791	2724.476649430188	8
0	13792	2724.508793110801	7
0	13798	2725.017036667818	8
0	13799	2725.08013861843	7
0	13805	2726.408286668546	6
0	13811	2727.150874493706	5
0	13817	2727.605474858501	6
0	13818	2727.810508251499	5
0	13823	2729.957822882846	4
0	13827	2730.072069011191	5
0	13830	2730.378251002229	4
0	13840	2733.296682518805	3
0	13845	2733.36907605166	2
0	13856	2736.638334536478	1
0	13862	2737.004197468574	0
0	13888	2739.886016536341	1
0	13889	2740.686178178197	0
0	13913	2745.554119574012	1
0	13918	2747.566024615799	0
0	13933	2749.612810058458	1
0	13936	2750.371216596	0
0	13949	2752.791128599448	1
0	13950	2753.086378223378	0
0	13980	2757.560573854287	1
0	13981	2758.70722936354	0
0	13996	2759.84664594582	1
0	13998	2760.17603532434	2
0	13999	2760.538930987732	1
0	14011	2765.25237204593	2
0	14012	2765.609708784011	1
0	14017	2765.797457140308	0
0	14031	2766.844251697122	1
0	14037	2769.049142520184	2
0	14039	2769.517178738148	3
0	14043	2769.73844948614	4
0	14044	2770.360123055483	3
0	14048	2772.032351801235	4
0	14053	2773.708080195162	3
0	14061	2774.062887768138	4
0	14062	2774.630861946843	3
0	14067	2775.879958529437	2
0	14072	2776.055304728462	1
0	14080	2777.948369808808	2
0	14082	2778.109582920142	3
0	14085	2778.314441557751	2
0	14090	2779.046758628322	1
0	14097	2782.604502704358	2
0	14098	2782.605110511669	1
0	14103	2782.859004316347	0
0	14107	2782.99575364183	1
0	14109	2783.136296290093	2
0	14112	2783.499546271344	1
0	14117	2783.760914280761	0
0	14123	2784.10786687324	1
0	14126	2785.405745150468	0
0	14172	2790.889466321052	1
0	14173	2791.903845381542	0
0	14184	2792.526132376097	1
0	14186	2792.755476249301	2
0	14190	2793.565492173337	1
0	14197	2794.221499343118	0
0	14215	2795.905413923199	1
0	14217	2796.400381088156	2
0	14221	2796.927894555165	3
0	14222	2797.319028538124	2
0	14227	2797.837923595748	1
0	14232	2798.115222867842	0
0	14242	2799.277288545162	1
0	14244	2799.644803208615	0
0	14250	2799.955966678221	1
0	14254	2800.151362192723	2
0	14255	2800.974400999093	1
0	14260	2801.573377097292	0
0	14276	2807.033522294642	1
0	14280	2808.160087908471	0
0	14284	2808.735488246096	1
0	14286	2809.037086928574	2
0	14292	2810.3216032418	1
0	14298	2811.110555614287	0
0	14305	2811.468059331163	1
0	14307	2813.001346934621	0
0	14313	2813.382442794482	1
0	14318	2814.034650604394	2
0	14320	2814.534616726047	1
0	14325	2814.589646161391	0
0	14331	2814.610079174264	1
0	14332	2815.594670420821	0
0	14339	2816.867460636181	1
0	14340	2816.908644685431	0
0	14346	2817.055427661473	1
0	14348	2817.11118322833	2
0	14351	2817.917286846348	1
0	14357	2819.460512939914	2
0	14358	2820.723101885266	1
0	14362	2821.210442519764	2
0	14366	2822.084717211867	1
0	14371	2822.944773168978	0
0	14375	2823.123628335863	1
0	14379	2824.571405201943	2
0	14380	2824.894899303458	1
0	14384	2824.94931368549	2
0	14387	2827.123270236016	1
0	14393	2830.178368276662	0
0	14401	2831.48061133303	1
0	14402	2831.958966321997	0
0	14422	2834.918144435929	1
0	14429	2839.103826402448	0
0	14435	2839.209994306194	1
0	14437	2839.214338539361	2
0	14438	2839.415239997448	1
0	14444	2840.081925700789	0
0	14468	2841.788932998187	1
0	14470	2841.813676688327	2
0	14473	2842.323746399182	1
0	14478	2842.397675640024	0
0	14484	2843.062412696577	1
0	14487	2843.164698833946	2
0	14488	2843.975629333761	1
0	14493	2844.039246043097	0
0	14499	2844.334370402975	1
0	14500	2844.481834326729	0
0	14504	2844.845417384143	1
0	14506	2845.523222812858	2
0	14508	2846.291642897446	3
0	14512	2846.507702103683	4
0	14513	2846.713643593152	3
0	14520	2847.774181316488	2
0	14526	2849.816817554292	3
0	14528	2849.840439049969	4
0	14533	2853.074105835992	3
0	14538	2854.053294506033	2
0	14544	2854.664819478804	3
0	14548	2855.264845453728	4
0	14551	2855.946599447054	3
0	14557	2856.173134664352	4
0	14560	2856.48276881768	5
0	14562	2856.527283056177	6
0	14564	2856.905698137646	7
0	14567	2858.424644941198	6
0	14573	2858.837541585065	7
0	14575	2859.109772771901	8
0	14578	2859.316305853512	9
0	14579	2859.71907209061	8
0	14584	2860.470346286048	7
0	14589	2860.55820259022	6
0	14596	2863.047391968019	5
0	14601	2863.075582987975	4
0	14607	2863.116677278079	5
0	14608	2865.967298278229	4
0	14614	2866.928832012583	3
0	14620	2867.071917955968	4
0	14622	2867.597647308291	3
0	14629	2868.516654218668	2
0	14634	2870.017724311472	1
0	14638	2870.277249702569	2
0	14640	2871.459699518653	3
0	14642	2871.588498724732	4
0	14646	2873.817977173068	3
0	14652	2873.975179074313	2
0	14658	2874.13446692361	3
0	14659	2874.396148014294	2
0	14664	2874.627534290898	1
0	14671	2875.524457316894	0
0	14677	2876.237712824005	1
0	14678	2876.280593563631	0
0	14699	2878.015056435531	1
0	14701	2879.553623537032	0
0	14733	2885.727324266455	1
0	14736	2887.539127042222	0
0	14745	2887.818597629567	1
0	14747	2888.828676608721	2
0	14749	2889.189518857633	3
0	14751	2889.331128047365	4
0	14753	2890.081157259624	5
0	14755	2890.085350095989	6
0	14759	2890.683781921759	7
0	14762	2890.884793750041	6
0	14766	2891.823567019308	7
0	14771	2894.21534430516	6
0	14778	2894.772805014263	7
0	14781	2897.180199375794	8
0	14782	2897.22407707532	7
0	14788	2897.754497042292	6
0	14792	2897.962686483223	7
0	14797	2898.604719960262	6
0	14803	2898.978141127275	7
0	14804	2899.027611596987	6
0	14808	2901.474425354975	7
0	14812	2902.365873134666	8
0	14813	2905.953244170009	7
0	14820	2906.613808292741	6
0	14827	2907.415676161723	5
0	14831	2908.448864555929	6
0	14835	2909.193137529358	7
0	14836	2910.030884676817	6
0	14842	2910.740319855895	5
0	14847	2911.256813935678	4
0	14852	2911.586012009502	3
0	14856	2912.171381426606	4
0	14858	2912.332947497487	5
0	14860	2913.030201593827	6
0	14863	2913.378420325325	5
0	14867	2913.49707325961	6
0	14870	2914.580641909084	5
0	14875	2915.154278682569	4
0	14880	2915.6937640007	3
0	14889	2917.691271424249	2
0	14895	2918.858853050965	3
0	14896	2919.823255733983	2
0	14900	2922.216315815314	3
0	14903	2922.611111113702	2
0	14907	2922.814891270284	3
0	14914	2925.911233165946	2
0	14920	2926.928063711296	3
0	14924	2928.644473858477	4
0	14925	2929.499679951274	3
0	14929	2931.550898092045	4
0	14932	2932.920887085984	3
0	14938	2933.09009712445	4
0	14941	2933.59854951901	3
0	14945	2934.171851305294	4
0	14949	2935.123621422453	5
0	14951	2935.552263225174	6
0	14952	2936.016262527657	5
0	14959	2937.384859192397	4
0	14963	2937.748802500046	5
0	14967	2938.494100653555	6
0	14968	2938.734809672843	5
0	14973	2939.943762513894	4
0	14978	2942.401572104645	3
0	14984	2944.049905119347	2
0	14989	2944.551046595737	1
0	14996	2945.601186433606	0
0	15000	2946.937185817881	1
0	15002	2947.614672299903	2
0	15004	2947.657494192099	3
0	15006	2948.622853461598	4
0	15012	2951.005020063843	5
0	15015	2951.287778761783	4
0	15020	2953.489182917676	3
0	15026	2954.311791396648	2
0	15031	2955.334687012275	1
0	15035	2955.727616448745	2
0	15037	2956.049729399096	3
0	15039	2956.067512697729	4
0	15041	2956.405957655134	5
0	15043	2957.415475495869	6
0	15050	2962.079430890344	5
0	15055	2962.60498135276	4
0	15062	2964.012797726552	3
0	15068	2964.471083932742	4
0	15069	2964.47433826872	3
0	15074	2964.561215813425	2
0	15078	2966.079071770837	3
0	15080	2966.905878861339	4
0	15084	2967.682504880374	5
0	15086	2968.533309647316	6
0	15087	2968.721248642835	5
0	15091	2969.349486163196	6
0	15094	2971.410484606309	5
0	15099	2971.611742764858	4
0	15103	2973.914774904351	5
0	15105	2973.92187260177	6
0	15107	2975.6770773427	7
0	15111	2975.716459114787	8
0	15114	2976.16072107701	7
0	15119	2976.362154448263	6
0	15125	2976.536277689068	7
0	15127	2976.580604429346	8
0	15130	2977.466080931746	9
0	15131	2977.718328193246	8
0	15136	2978.080429351073	7
0	15141	2978.283975852015	6
0	15145	2979.395441005445	7
0	15148	2979.763714453767	6
0	15154	2980.100885265313	5
0	15159	2980.355086850293	4
0	15163	2980.384126769423	5
0	15168	2984.203479239382	4
0	15172	2986.822435507267	5
0	15176	2988.30059625258	4
0	15182	2988.411192149613	5
0	15184	2988.559207088074	6
0	15186	2990.677226959884	7
0	15187	2990.883763813295	6
[...]
4	141524	27515.568577951123	8868.0354945781
4	141529	27515.599196232543	8865.8934482927
4	141538	27518.204474824852	8864.5812125031
4	141566	27523.540362410751	8867.4970302392
4	141671	27539.750528456098	8881.3112651554
4	141678	27540.818407560283	8880.2108419462
4	141696	27542.795619611809	8877.3858240189
4	141711	27546.688579293615	8879.3305018101
4	142429	27708.268161278763	9038.6796490591
4	142435	27709.007374728771	9022.5941016185
4	142440	27709.032372150935	9022.5363679706
4	142445	27709.041209466546	9018.6941691211
4	142453	27709.774783455702	9018.9158277228
4	142463	27711.339964935168	9013.7680844152
4	142529	27718.8574400357	9019.7490881327
4	142536	27719.511788375503	9017.7129110828
4	142543	27720.638296809291	9016.8640331269
4	142550	27722.483276575866	9007.6911871856
4	142564	27724.02722974523	9004.4326393727
4	142571	27724.289335503722	8995.7600468663
4	142578	27724.947919458778	8994.9949133826
4	142598	27728.221929987327	8994.6313865066
4	142645	27733.148625709596	8989.6280177404
4	142659	27736.608446934216	8989.937054755
4	142690	27746.491838981343	8996.4963990487
4	142695	27746.512255896093	8995.9884946375
4	142700	27746.614296114627	8995.6545675643
4	142706	27747.372195187561	8994.1421701785
4	142716	27748.609149552698	8983.057571805
4	143007	27816.819559653287	9048.4388519307
4	143012	27816.892912306624	9047.2961716767
4	143019	27817.008974472528	9045.3758981038
4	143035	27818.738690560569	9045.4900598231
4	143040	27818.758206836568	9041.8613358062
4	143046	27819.760971420596	9041.234400709
4	143051	27819.898003453057	9036.4915458949
4	143060	27822.885367814039	9031.7175846678
4	143078	27824.697646300228	9032.3874866715
4	143083	27825.898208921143	9031.4897101822
4	143088	27827.126761137911	9027.4366612851
4	143093	27828.07393517457	9014.0235265175
4	143098	27828.909100134317	9008.6947666726
4	143103	27832.311891931316	9010.3011454184
4	143112	27833.414922167423	9004.5455110418
4	143145	27840.71974090047	9011.7904519075
4	143155	27842.694965849042	9011.7394143096
4	143183	27848.287947742366	9010.6569610944
4	143411	27898.994761976537	9059.3534173741
4	143416	27899.244034604668	9056.6039421831
4	143421	27901.084165493036	9056.5959636512
4	143437	27904.745080856258	9053.2156555208
4	143536	27927.304647770941	9073.5848444688
4	143541	27927.463746093609	9069.9423498799
4	143548	27928.888074623272	9069.7830616273
4	143553	27929.303141535771	9065.3302028198
4	143559	27930.072041146212	9065.1542664344
4	143564	27930.482909681795	9065.1998904863
4	143577	27935.369870340209	9067.5698245199
4	143582	27937.58146317933	9068.8897678201
4	143599	27943.287419692488	9072.3698394294
4	143630	27948.980125079777	9065.2241066577
4	143640	27951.990185558079	9068.1866577144
4	143787	27973.304482786154	9088.8429688887
4	143815	27976.821339418326	9087.5266187005
4	143820	27976.968125509221	9079.0080353046
4	143826	27978.58778755808	9079.9228688089
4	143833	27980.174971102176	9077.9860211678
4	143845	27982.272000010545	9074.0267762952
4	143868	27990.947034442702	9081.9647828197
4	144018	28019.838809696313	9109.3028611357
4	144037	28022.71671077595	9108.6803375334
4	144090	28039.133085137152	9118.6532423834
4	144102	28041.27537724496	9117.516037999
4	144131	28045.597156632431	9117.6297750396
4	144141	28046.30178684871	9116.2798470982
4	144147	28046.481407736889	9115.9937587573
4	144152	28046.614161584347	9113.9706312045
4	144167	28051.362938172551	9115.3641985273
4	144420	28099.843114875301	9163.6224934917
4	144437	28101.294678117276	9163.7745385181
4	144450	28103.77346690118	9162.5901765718
4	144463	28105.083646935542	9161.6127163594
4	144542	28116.500859479391	9172.541127818
4	144550	28118.209412038253	9172.1742990725
4	144557	28120.518219438972	9168.1132016965
4	144562	28120.757038002112	9164.7048416419
4	144575	28123.580004879677	9166.5021390678
4	144605	28128.290674500844	9166.5612355059
4	144625	28130.179751908701	9168.0443453876
4	144630	28130.230425698176	9168.0053667381
4	144635	28130.729200613759	9164.3290842128
4	144647	28135.815689049634	9156.7972046199
4	144751	28157.046227390848	9170.7716399012
4	144756	28157.497706318569	9168.9886870281
4	144764	28159.383598740029	9170.619683476
4	144783	28165.44965889916	9160.6471537957
4	144799	28168.44070133238	9162.9448635276
4	144815	28171.88600292621	9162.8448037572
4	144828	28177.600339744345	9166.4692185066
4	144901	28193.140991838726	9170.6050491799
4	144914	28196.377629776183	9171.7550500961
4	144941	28199.807872729032	9169.831268992
4	145004	28209.909491552489	9177.8783921071
4	145009	28209.99188760424	9173.9745977439
4	145020	28212.569109712676	9165.3412363317
4	145375	28289.577792188278	9238.9238910614
4	145417	28299.12914456551	9246.5939565669
4	145422	28299.163004430723	9246.0424456163
4	145429	28300.902966405453	9239.8739440108
4	145434	28301.586127351696	9239.8844062905
4	145439	28302.267058718841	9239.5345836535
4	145448	28303.672518567669	9235.7428359258
4	145465	28306.436243393696	9236.3687701896
4	145580	28330.385814188083	9256.9651099315
4	145593	28332.427434331776	9253.1018013074
4	145606	28334.041346286019	9253.9132978328
4	145625	28335.067131305016	9253.401784576
4	145633	28336.379793692532	9253.6911088308
4	145645	28338.156887177971	9254.1158685059
4	145681	28346.109076069206	9257.2712809634
4	145687	28346.687956043825	9256.3735753763
4	145693	28347.392189464925	9244.9064147309
4	145704	28350.95500932067	9247.633420027
4	145715	28353.301117474407	9245.9406924239
4	145732	28354.421001701842	9244.4305487835
4	145742	28356.009154076311	9230.8023457245
4	145764	28360.621327995961	9235.3169242743
4	145798	28363.687280836257	9238.3717692983
4	145812	28366.342205085057	9240.7508671134
4	145819	28366.942332130642	9233.3505990086
4	145831	28367.575864030363	9222.577405965
4	145838	28367.951540962389	9221.289466389
4	145847	28369.988803650217	9206.8644222798
4	145868	28373.648254488213	9203.49656779
4	145946	28384.715418188897	9211.348695436
4	145952	28386.55260403788	9212.9251942344
4	145957	28387.095311779037	9206.8931818477
4	145968	28392.507460984489	9212.143284022
4	146134	28427.176379856545	9242.3626807283
4	146142	28430.143929153488	9238.2311896023
4	146153	28431.524072088131	9237.6056255476
4	146162	28432.328219878144	9236.1502897794
4	146180	28437.279909667819	9236.1617463627
4	146513	28510.182498032993	9304.5398695305
4	146521	28510.380311669123	9303.495525977
4	146527	28510.851997832612	9301.5634415305
4	146532	28510.912356155091	9297.459023338
4	146553	28517.299860355187	9298.4052750998
4	146592	28522.642676236208	9298.4980366311
4	146597	28522.85312690312	9298.6518222712
4	146603	28524.500985509684	9299.3691898606
4	146609	28524.95445072325	9299.0292991335
4	146621	28527.050024498392	9298.4164457029
4	146626	28527.133319317482	9297.0552849113
4	146632	28527.94322388115	9297.5865132405
4	146639	28528.970186555071	9283.2065255727
4	146648	28531.876606676635	9285.4580180627
4	146658	28532.255160432406	9285.7679207366
4	146663	28532.68744924274	9282.8031050035
4	146670	28533.798172101499	9278.1531486907
4	146695	28538.699663188465	9281.145768683
4	146941	28588.132811026745	9328.9186502917
4	146946	28588.259606791608	9326.9908520211
4	146953	28588.804848187967	9323.8243215502
4	146962	28590.431028288952	9315.8821561616
4	146973	28592.536144095307	9311.4236282915
4	146978	28593.47407534657	9301.2040537406
4	146985	28593.890160912228	9300.8909758024
4	147010	28598.197912602328	9296.3499691274
4	147039	28601.628953530428	9298.3444347541
4	147044	28602.069257702461	9288.1344520781
4	147049	28602.190830119869	9286.5313429514
4	147056	28603.308345120543	9286.2520823204
4	147064	28606.302324738691	9287.1572216088
4	147085	28610.93662537292	9291.5030873963
4	147201	28637.012117991734	9315.4489427726
4	147227	28640.275945992417	9305.1809703675
4	147232	28640.362407937692	9302.7552002439
4	147237	28641.223437524315	9300.8478437541
4	147256	28644.461450358745	9293.6798411774
4	147386	28677.677138521451	9323.8126958987
4	147394	28679.085442282373	9323.0578723042
4	147399	28679.517506434271	9322.8526963402
4	147406	28682.054002721333	9319.515968275
4	147422	28682.666256031193	9313.3793723982
4	147483	28692.405742373814	9310.9462041133
4	147533	28701.136235283116	9316.208886331
4	147538	28701.274702836541	9309.7559311514
4	147544	28703.704058105563	9308.9639974554
4	147549	28705.189056579809	9309.8735324417
4	147569	28710.516492409071	9314.9689110123
4	148025	28792.319377338296	9392.7210569237
4	148043	28794.345023930508	9390.6746864171
4	148049	28795.126040757941	9389.5915885409
4	148059	28796.73795450849	9386.7964419817
4	148080	28799.743492503378	9369.5903229466
4	148098	28802.704901980276	9371.113997755
4	148132	28809.589722253522	9371.9211952898
4	148137	28809.895142844983	9371.5950595646
4	148142	28810.779232709549	9370.9988899075
4	148149	28811.745844271326	9359.6413434831
4	148156	28813.751602368189	9361.2404480329
4	148161	28813.837655461989	9349.4449901438
4	148168	28814.422631866525	9348.7485522326
4	148187	28818.115615477524	9343.3430549081
4	148243	28824.987557706158	9344.9239043217
4	148248	28825.278729541764	9340.1148875726
4	148253	28825.315588753964	9324.0024161608
4	148258	28825.515651441963	9317.9021362198
4	148263	28826.658739785107	9317.649358497
4	148272	28828.027216143341	9316.3077130944
4	148286	28832.395940774072	9319.7513627784
4	148291	28832.418639702382	9317.5576869032
4	148299	28832.822075492755	9317.8957327657
4	148310	28833.593361173904	9313.8517056484
4	148317	28835.767796746267	9312.5645975134
4	148324	28835.993899612407	9310.3915039688
4	148342	28837.107215801964	9310.9047279293
4	148382	28841.864311361545	9308.2181676804
4	148387	28842.746686574932	9307.9143193254
4	148394	28845.07790061536	9291.5094334664
4	148408	28848.027012201126	9292.5813939424
4	148425	28852.988788647487	9297.2777251261
4	148440	28855.115953361585	9299.0877052373
4	148455	28858.19772105017	9301.2714435339
4	148508	28867.726123393591	9310.3946282447
4	148523	28870.248496027371	9309.7746788446
4	148538	28871.880992390027	9306.4524004694
4	148545	28872.378720949971	9305.049189539
4	148555	28873.304002541329	9302.0093473327
4	148573	28877.886323928177	9295.7609341432
4	148578	28878.196985394172	9294.868527861
4	148585	28879.812874666981	9296.2252066211
4	148596	28880.290356144971	9291.5097010038
4	148601	28881.486435123583	9291.1264911786
4	148608	28882.459034239843	9290.0602707697
4	148630	28886.294132718407	9283.0000905496
4	148677	28892.138676166105	9283.9277560798
4	148690	28893.715178728851	9279.5504712556
4	148704	28895.662986025412	9280.4340296349
4	148748	28904.485424982285	9278.5276048318
4	148757	28906.582758296349	9270.2146442881
4	148768	28907.815018715915	9270.9420698316
4	148775	28909.269253102023	9263.6684431661
4	148781	28910.060231354172	9260.7779280254
4	148786	28910.160389030961	9259.2917372675
4	148793	28912.036209299375	9243.1284868689
4	148798	28912.748565946682	9242.9377090681
4	148803	28913.21188815428	9240.9918284454
4	148808	28917.085816462725	9243.9949799185
4	148813	28917.762484563636	9236.871598803
4	148828	28921.04455580926	9238.9853466384
4	148858	28925.413532548581	9237.3185175024
4	148869	28928.039446495517	9233.7544240539
4	148999	28952.244226988026	9251.9313451796
4	149045	28957.370571073901	9244.7810093488
4	149088	28967.890306945233	9253.9257781582
4	149104	28969.770219219831	9247.2461207319
4	149114	28970.396033217933	9243.3921338507
4	149119	28970.943455209655	9243.5075755476
4	149124	28972.517974503757	9244.6908958945
4	149136	28976.398687821441	9247.3759082847
4	149344	29014.009882079585	9275.1219431422
4	149361	29016.463951199334	9272.0353975426
4	149368	29020.979479855826	9275.2783521196
4	149396	29025.214775095204	9279.0296549632
4	149407	29026.058950086275	9278.1394448207
4	149425	29027.979625812457	9277.9249165288
4	149432	29028.803566805799	9278.0019289745
4	149482	29038.175536320906	9282.638171313
4	149487	29038.419561244735	9282.6476508837
4	149501	29042.50530125428	9278.5873719356
4	149519	29045.539529163124	9280.4340252949
4	149524	29045.626457228906	9272.9833492305
4	149531	29046.970342343653	9270.5631792952
4	149555	29050.804141835188	9272.5878241028
4	149640	29065.01745231095	9285.343986187
4	149645	29065.180336324065	9284.3996985514
4	149650	29065.647230637313	9283.6909871031
4	149659	29068.839406119452	9285.548635708
4	149670	29069.230865597839	9285.5702454626
4	149683	29071.501363009508	9276.5781638684
4	149893	29121.544451942824	9323.1854850932
4	149898	29121.743660611988	9320.2708811302
4	149903	29121.909404012307	9318.7333832687
4	149910	29123.594759511999	9318.42269712
4	149915	29124.217499618319	9317.9121274909
4	149924	29127.700492139433	9320.7013516587
4	149943	29130.655005596081	9323.2964594286
4	149948	29131.025972560331	9320.874666563
4	149953	29131.153338006096	9316.440252819
4	149967	29136.312735283071	9317.7918410173
4	149978	29137.324040680349	9313.5123926216
4	149986	29138.711044351687	9314.8779837473
4	149999	29139.730231477829	9313.8625059852
4	150014	29142.815318532686	9306.3286942915
4	150019	29143.704598942075	9306.6920726231
4	150033	29149.41678281962	9311.4666015928
4	150231	29193.272648210064	9347.7309641797
4	150238	29194.109977149887	9346.222939892
4	150255	29199.122244971303	9344.2488140299
4	150588	29276.340615118303	9420.0160329399
4	150613	29280.12112177306	9419.0767804871
4	150618	29280.593733906315	9418.310817776
4	150629	29283.010402893087	9419.5343187086
4	150641	29286.020427561892	9422.2607682231
4	150646	29287.233035021915	9417.9374115393
4	150660	29289.346587138341	9413.0653486048
4	150711	29296.009419317536	9417.0870330665
4	150725	29297.82934041601	9414.0954031792
4	150732	29299.743486296861	9413.452591902
4	150744	29302.521964521949	9413.0713147673
4	150792	29307.338818830023	9417.7193539223
4	150803	29309.639603023498	9419.6989835714
4	150817	29312.716302260095	9418.6292304025
4	150828	29313.574012036638	9418.5899135585
4	150836	29313.901914718366	9414.2574031068
4	150847	29314.975264724611	9412.0560328804
4	150858	29315.675066300631	9410.5463483324
4	150863	29316.143832985388	9410.8459465513
4	150873	29317.392150052146	9406.5615623186
4	150881	29318.024318995673	9405.866166364
4	150892	29319.861786148807	9407.1138620788
4	150923	29325.461948798288	9412.6024955141
4	150930	29327.067180326768	9400.5358128464
4	150948	29331.511522435866	9403.3640286932
4	150955	29334.277046144547	9405.194120069
4	150965	29338.920926123071	9407.8166359803
4	150976	29340.184062284647	9408.8629508862
4	150981	29340.43162727705	9402.9695304949
4	150992	29343.010796034207	9404.9599727668
4	151020	29347.212204909961	9408.9712496431
4	151026	29348.369684183827	9409.3529195861
4	151031	29348.609875394522	9401.0494649768
4	151038	29349.709659410209	9401.2954336979
4	151048	29351.283730767994	9402.0641302684
4	151057	29353.159914379934	9397.5586728694
4	151076	29355.295858176868	9396.7410643532
4	151088	29358.715245482417	9392.6557685028
4	151093	29360.445258176422	9391.0446459803
4	151101	29361.397473735059	9389.1188736931
4	151106	29361.788348746548	9367.8126227617
4	151115	29363.069095717166	9360.7398399377
4	151187	29374.968552739096	9371.7817609823
4	151234	29383.409223263026	9378.4678959662
4	151253	29386.955604725773	9377.7411055801
4	151259	29387.484689089655	9370.518197839
4	151268	29390.775529129586	9369.9459354033
4	151299	29399.339800500015	9376.848934159
4	151376	29408.418124757284	9384.0318466773
4	151385	29410.271872959566	9384.2571058313
4	151398	29412.117166768545	9385.9385257726
4	151404	29413.540549403436	9380.595016028
4	151412	29414.185266969806	9374.9061087698
4	151422	29415.247494197904	9369.3473090158
4	151430	29415.879568751872	9363.9168194213
4	151444	29418.039675244654	9365.640067104
4	151451	29418.546248598123	9364.2263619855
4	151462	29420.633559403048	9362.2467138857
4	151476	29422.759327949677	9363.5382415619
4	151491	29425.588716904093	9364.9846824372
4	151658	29457.227717852976	9396.4815771231
4	151664	29457.723838094001	9394.6873125999
4	151669	29461.053740128621	9393.2947177865
4	151678	29463.57573047683	9394.7948695066
4	151704	29469.343029060666	9399.0217427571
4	151831	29495.496422446428	9424.1996885678
4	151878	29507.722563290323	9421.4713686686
4	151899	29510.176191509787	9416.1164360613
4	151904	29510.827297208201	9416.2015850791
4	151909	29512.25694635248	9417.4461211002
4	151914	29513.089748659884	9406.9179234662
4	151929	29516.164463730917	9406.2627294123
4	151985	29525.510900332824	9415.589688347
4	152000	29526.123312317793	9408.5396639832
4	152007	29527.124990979186	9407.329572267
4	152019	29531.787179726238	9409.3173864518
4	152035	29532.995921132488	9410.1497629123
4	152051	29536.779726225191	9403.7807690845
4	152155	29557.851707575411	9421.4166326224
4	152180	29560.872510196603	9418.4702340248
4	152191	29563.607087016472	9420.3045681982
4	152202	29565.14024191364	9419.5911178952
4	152220	29569.693456876201	9423.0430406058
4	152429	29613.742434264209	9461.4872773413
4	152435	29614.346651948797	9452.4847439124
4	152443	29615.161183948797	9444.6370048416
4	152459	29617.056112860693	9439.2800401942
4	152476	29618.862039408905	9440.015572037
4	152506	29623.948224488942	9432.7729324848
4	152520	29625.132661989798	9432.1275815307
4	152525	29626.579188378717	9432.2009313725
4	152538	29627.384021256807	9432.8266420708
4	152575	29631.330012671452	9434.7560793109
4	152582	29632.977613209219	9424.055237482
4	152599	29634.488801733368	9414.6393533208
4	152654	29642.295029156351	9421.8887873666
4	152677	29644.984952050893	9423.8442750886
4	152690	29647.290099651244	9425.2250342055
4	152714	29649.048900237687	9416.896624325
4	152729	29652.291316280193	9415.6357840801
4	152742	29654.316674799247	9414.5559070916
4	152771	29658.04669430346	9417.0814620357
4	152776	29658.206342800323	9410.5156826545
4	152784	29661.143919865676	9412.0719155554
4	152791	29662.56704813113	9405.5022235442
4	152804	29665.709305231612	9407.8563827243
4	152854	29675.586303856374	9412.9956987698
4	152891	29682.766095915743	9418.0888952778
4	152902	29684.071673225568	9414.8223075201
4	152909	29684.826181460791	9415.4848574986
4	152918	29688.04459859858	9410.720811911
4	152937	29693.534886032601	9416.205969013
4	152969	29699.818913883377	9418.9111354809
4	152975	29700.921891633611	9416.6217151338
4	152982	29703.019981890664	9413.7212066676
4	152997	29704.95010051067	9408.3793780821
4	153002	29705.369975308859	9398.4301805863
4	153014	29710.411330775994	9392.969088011
4	153027	29711.559284779427	9393.4833138448
4	153042	29714.116540817549	9386.9888083921
4	153066	29716.946620379869	9386.0003503838
4	153071	29717.234750125031	9377.5092714108
4	153080	29718.564502686733	9363.9673105465
4	153096	29720.477714480011	9357.7447046348
4	153127	29726.130132592709	9362.3439399907
4	153208	29737.558338366696	9371.0621929908
4	153224	29740.391464970756	9367.6309526997
4	153233	29741.270491659678	9367.6942836962
4	153238	29741.691613647872	9365.0909838329
4	153244	29742.867822702833	9365.1575893931
4	153252	29746.015579239492	9358.8471199737
4	153263	29750.632928427464	9353.3915704495
4	153284	29756.195678823295	9358.0031558902
4	153334	29765.982859450559	9367.714794336
4	153342	29766.54599893618	9366.815395521
4	153352	29767.197278971323	9366.1497662748
4	153371	29770.995263683232	9368.177404995
4	153421	29780.131858660127	9376.3934967187
4	153428	29780.284252564159	9370.5729067753
4	153461	29789.170706614218	9378.0128718451
4	153493	29793.16858427948	9379.6673432992
4	153507	29795.447676936965	9377.5180917822
4	153512	29796.225289060666	9377.1900390372
4	153521	29798.167363994152	9372.2548456517
4	153533	29799.758244660943	9371.7931173793
4	153548	29800.881322559899	9359.1122266205
4	153558	29802.93761642358	9359.6679925638
4	153572	29808.314936660149	9364.2736230469
4	153595	29810.829708211786	9364.0628594096
4	153611	29812.7613146944	9355.1574496499
4	153687	29828.569850478782	9363.5868155177
4	153741	29838.048522875442	9368.116901202
4	153800	29845.352859208039	9374.9773213464
4	153805	29845.374038993806	9372.7365631242
4	153816	29848.378410583869	9373.8411272588

