version 2
run First-n4-17-20191016-17:04:02-14532
attr configname First-n4
attr datetime 20191016-17:04:02
attr experiment First-n4
attr inifile omnetpp.ini
attr iterationvars ""
attr iterationvarsf ""
attr measurement ""
attr network org.omnetpp.queueing.Pizza
attr processid 14532
attr repetition 17
attr replication ""
attr resultdir results
attr runnumber 17
attr seedset 17
param **.PS.maxInventoriedPS 4
param **.U1.interArrivalTime exponential(2s)
param **.U2.interArrivalTime exponential(4s)
param **.PS.serviceTimeForInventoryU1 exponential(0.8s)
param **.PS.serviceTimeForInventoryU2 exponential(1.0s)
param **.PS.serviceTimeDirectU1 exponential(1.2s)
param **.PS.serviceTimeDirectU2 exponential(1.4s)
param **.PS.probabilityProducing 0.5
param **.CS.serviceTimeU1 exponential(0.8s)
param **.CS.serviceTimeU2 exponential(1.0s)

vector 0 Pizza.EntryQueueU1 queueLength:vector ETV
attr interpolationmode sample-hold
attr title "queue length, vector"
vector 1 Pizza.CS queueLength:vector ETV
attr interpolationmode sample-hold
attr title "queue length, vector"
vector 2 Pizza.EntryQueueU2 queueLength:vector ETV
attr interpolationmode sample-hold
attr title "queue length, vector"
vector 3 Pizza.sink lifeTime:vector ETV
attr interpolationmode none
attr title "lifetime of arrived jobs, vector"
attr unit s
vector 4 Pizza.sink lifeTimeU1:vector ETV
attr interpolationmode none
attr title "lifetime of arrived jobs, vector"
attr unit s
vector 5 Pizza.sink lifeTimeU2:vector ETV
attr interpolationmode none
attr title "lifetime of arrived jobs, vector"
attr unit s
0	0	0	0
0	9	2.210708385975	1
0	11	2.351339497469	2
0	15	3.783911004085	1
0	20	4.113174257508	0
0	24	5.639619000026	1
0	28	6.525372369066	2
0	30	6.649218235706	3
0	31	7.557453343831	2
0	35	8.339100524735	3
0	37	8.408931952725	4
0	45	10.486816781568	3
0	50	10.487716406509	2
0	55	11.506832856323	1
0	60	12.426484587904	0
0	64	12.6048033868	1
0	69	13.207894492492	0
0	75	13.641847394101	1
0	77	14.333366461357	2
0	78	14.412460377242	1
0	84	14.721788891965	2
0	85	15.941082177906	1
0	89	16.400407166182	2
0	91	16.572263280856	3
0	93	16.703237690652	4
0	99	17.70611722291	3
0	108	18.278147140856	4
0	110	19.072212623543	5
0	112	19.213011912291	6
0	114	20.356082539447	5
0	120	20.444915079339	6
0	122	20.547624112449	7
0	123	21.217262794438	6
0	127	23.084832220237	7
0	130	23.543283078139	6
0	136	25.763217031242	5
0	142	25.806684134677	6
0	144	26.332963939835	7
0	146	26.392144958393	8
0	149	27.177517500925	7
0	154	28.173868863004	6
0	161	28.787253117397	5
0	165	29.914908038725	6
0	167	29.936414536791	7
0	169	30.072334899581	8
0	171	31.003306652909	9
0	173	32.734901520396	10
0	176	34.337479355393	9
0	180	35.775782594038	10
0	182	35.89829939999	11
0	184	36.338206130319	12
0	186	36.849598973433	13
0	188	37.023604408274	14
0	191	38.185188322026	13
0	200	41.213376397766	12
0	205	41.61287599717	11
0	210	41.82862517523	10
0	214	43.330845219869	11
0	218	44.074479936818	12
0	219	44.384496170636	11
0	225	44.705417963609	12
0	228	45.386916239639	11
0	235	48.033607557757	10
0	241	48.616677762794	11
0	242	48.755586196549	10
0	250	49.14114720726	11
0	251	49.232085337961	10
0	255	49.273699839787	11
0	257	50.483011000368	12
0	259	51.059360654058	13
0	261	52.396961934395	14
0	263	52.741805810688	15
0	266	54.054987662626	14
0	272	54.7899743968	15
0	275	55.001033663902	14
0	280	56.545897046286	13
0	285	56.930366743257	12
0	292	59.143990350514	11
0	297	60.487868742998	10
0	301	61.245091029964	11
0	306	62.092668117347	10
0	311	62.809809384856	9
0	317	63.536315738189	10
0	318	64.007366531039	9
0	323	66.369303461731	8
0	328	66.917165113856	7
0	332	67.28496589657	8
0	335	68.362602051417	7
0	341	68.756906082871	8
0	342	68.975733050095	7
0	350	70.11579838903	8
0	352	70.815225976947	7
0	362	73.171570672059	8
0	363	73.333848433275	7
0	367	75.335745825423	8
0	369	75.693358853168	9
0	373	76.873621249338	10
0	375	76.975986656919	11
0	382	79.813774524796	10
0	392	82.788645700614	9
0	399	83.776192030065	10
0	400	85.024660715804	9
0	405	85.10094600225	8
0	410	86.979229082069	7
0	415	88.275414890652	6
0	419	88.717203855523	7
0	424	92.151767665509	6
0	429	93.111192308934	5
0	434	93.554235124561	4
0	438	94.996873900726	5
0	440	95.532690077594	6
0	442	96.458055212817	7
0	445	97.145023614669	6
0	450	97.708235972281	5
0	454	98.293174954808	6
0	458	98.776087916507	7
0	460	99.540694794668	8
0	461	99.676767807098	7
0	471	102.678336112363	8
0	473	102.793375323196	9
0	475	103.201022871148	10
0	477	103.730179405296	11
0	478	103.740048922591	10
0	482	104.596230027809	11
0	484	104.628791592037	12
0	487	105.52338343247	11
0	492	106.378873903872	10
0	496	107.162203373574	11
0	500	109.554987985756	10
0	507	110.005004483824	9
0	511	111.077319602311	10
0	514	112.377595344357	9
0	518	112.435957795843	10
0	522	112.76181384914	11
0	523	113.083912324938	10
0	528	115.007992979756	9
0	534	116.689134408601	8
0	540	116.872573016267	7
0	545	117.429669291509	6
0	550	119.296885428029	5
0	555	119.781714911732	4
0	561	121.418475728607	5
0	563	121.712147867795	6
0	565	121.902340241442	7
0	568	122.672300497448	6
0	574	122.924738322169	7
0	575	122.930363839627	6
0	581	123.959734747947	7
0	583	123.991414800928	8
0	586	124.18709762356	7
0	591	124.85468045782	6
0	599	126.732947534804	7
0	600	126.898546233304	6
0	607	128.388604021688	5
0	613	128.517219048679	6
0	614	129.410624483983	5
0	619	129.678039263788	4
0	623	130.680145079671	5
0	627	134.33011648203	6
0	633	136.699270998738	5
0	639	138.122038435738	4
0	646	138.724802287174	3
0	651	139.158396405898	2
0	657	141.318243389358	1
0	662	141.319795426588	0
0	666	141.539689382995	1
0	669	142.959385286426	0
0	684	144.935726270405	1
0	686	145.064652272266	2
0	687	145.321968999171	1
0	692	145.643948640808	0
0	696	146.622751442566	1
0	703	148.441871538466	2
0	704	148.596363257354	1
0	711	149.637738701154	0
0	728	151.377269073324	1
0	729	151.775150731762	0
0	783	160.631457037886	1
0	784	160.840680283344	0
0	803	162.790370624191	1
0	804	162.790847706247	0
0	821	165.621475764747	1
0	822	165.819163149895	0
0	846	168.997460015331	1
0	848	169.149157052014	2
0	850	169.168271057325	3
0	852	171.067865474572	2
0	858	171.257996473285	3
0	859	171.994041362705	2
0	864	172.081020502332	1
0	869	174.151147064752	0
0	873	174.240164878583	1
0	875	174.625534098598	2
0	880	176.042332038698	1
0	886	176.809753180145	0
0	892	177.503162940808	1
0	893	177.798264009407	0
0	906	179.100460555485	1
0	908	179.388303293482	0
0	929	182.274280690341	1
0	933	183.72414345098	2
0	940	185.050735165547	1
0	945	185.14881490193	0
0	952	187.762163296079	1
0	956	188.105982580981	2
0	958	188.370898242716	3
0	961	188.834686457076	4
0	963	189.992167094253	5
0	965	190.030700617139	6
0	966	190.146504683868	5
0	971	190.182910418639	4
0	976	190.474274353152	3
0	983	192.163689967355	4
0	984	192.215150906402	3
0	993	193.02561051617	4
0	994	193.205081861092	3
0	999	193.683359882184	2
0	1004	194.581511699977	1
0	1010	195.585245788789	2
0	1014	196.184026981282	1
0	1020	196.206344049381	2
0	1022	196.379006376124	3
0	1024	197.366303420227	2
0	1030	197.402652050556	3
0	1032	199.119972195787	2
0	1042	200.874590361002	1
0	1047	202.054581336545	0
0	1051	202.625221515763	1
0	1056	204.649421127617	0
0	1062	205.047296496028	1
0	1064	205.711070026639	2
0	1067	206.297692341276	1
0	1071	206.482298058613	2
0	1074	207.620787353178	1
0	1079	208.723702825659	0
0	1115	214.375236427684	1
0	1116	214.612699057277	0
0	1134	215.659250932473	1
0	1136	216.025830025398	0
0	1147	216.865546665942	1
0	1149	217.1535454376	2
0	1155	218.157805748556	3
0	1158	219.627770063767	2
0	1164	220.352871388239	1
0	1170	220.384878498989	0
0	1190	221.61497732244	1
0	1192	222.066161905323	2
0	1194	223.565977534535	1
0	1201	224.364102501396	2
0	1203	224.526667616404	3
0	1204	224.537498813849	2
0	1209	224.79716067228	1
0	1214	224.850968205965	0
0	1223	226.953121815219	1
0	1225	227.08228965382	2
0	1226	227.268278742424	1
0	1234	227.972560917584	0
0	1268	231.642472981454	1
0	1270	231.97853347288	0
0	1290	234.458313595073	1
0	1292	236.097624795472	0
0	1310	239.750480633104	1
0	1311	240.605280506204	0
0	1317	240.649996186779	1
0	1319	241.400006063407	2
0	1321	242.085244436906	1
0	1328	243.40031989135	0
0	1334	243.683052527355	1
0	1335	243.992014974767	0
0	1341	244.613905337845	1
0	1342	244.760725654878	0
0	1374	253.549150421929	1
0	1377	254.726144090236	0
0	1426	262.39568540779	1
0	1430	263.971463525314	0
0	1480	269.344197313055	1
0	1483	269.768013955158	0
0	1504	271.042036135871	1
0	1509	271.826454270665	0
0	1516	272.576742082624	1
0	1517	272.597576786229	0
0	1523	272.625167645404	1
0	1524	273.206770616329	0
0	1547	276.464823542616	1
0	1550	277.879825710467	0
0	1565	280.724691689596	1
0	1566	280.732602089628	0
0	1580	281.594171590253	1
0	1581	281.791034121459	0
0	1617	294.120860540911	1
0	1618	294.806631335247	0
0	1683	313.185884510163	1
0	1685	313.421105092273	2
0	1689	315.586776883127	3
0	1690	316.054633502407	2
0	1696	316.11691343161	3
0	1698	316.144574800418	4
0	1701	317.326299054606	3
0	1708	317.933513828719	2
0	1713	318.040228070961	1
0	1718	319.646212835709	0
0	1722	320.805792666789	1
0	1725	321.299840057077	0
0	1729	321.39663651907	1
0	1733	322.370786004241	2
0	1734	323.294974188427	1
0	1739	323.837296273086	0
0	1764	325.432930402808	1
0	1765	325.671749744717	0
0	1778	326.882548853141	1
0	1779	326.915702829907	0
0	1799	332.820150176857	1
0	1802	333.098135701434	0
0	1817	336.514021092659	1
0	1819	336.608969983068	2
0	1821	337.979988247503	1
0	1826	338.52770432279	0
0	1839	339.793012610239	1
0	1840	339.88983584979	0
0	1861	345.986989794413	1
0	1863	346.577631938045	2
0	1864	346.967791156309	1
0	1869	347.339294558011	0
0	1876	347.807711148786	1
0	1879	348.525055305159	0
0	1910	353.1992062994	1
0	1912	353.540806241847	0
0	1982	369.569624038372	1
0	1984	369.961961383469	2
0	1985	370.371918065234	1
0	1991	370.493344236188	2
0	1992	370.662897509635	1
0	1998	372.772790664043	0
0	2004	373.150534351845	1
0	2005	373.564251159785	0
0	2011	373.846702933143	1
0	2015	374.881103836379	0
0	2022	375.384280200716	1
0	2024	375.68982021822	0
0	2033	377.775635509693	1
0	2034	378.028323184801	0
0	2054	380.882336840793	1
0	2055	381.586979870643	0
0	2068	383.689828904571	1
0	2070	384.118764460871	0
0	2076	384.339873514929	1
0	2079	384.70338340749	2
0	2080	385.196723947676	1
0	2087	385.263427375281	2
0	2088	385.678836279662	1
0	2096	386.908732502395	0
0	2107	389.244638616994	1
0	2113	390.140473665053	0
0	2168	400.243070291969	1
0	2171	401.065763968723	0
0	2214	409.893761701853	1
0	2217	411.762581432623	0
0	2225	413.805623699614	1
0	2228	414.639057571121	0
0	2232	414.6874465618	1
0	2240	415.683514965536	2
0	2241	415.865086804	1
0	2245	419.555249554382	2
0	2247	419.753822781393	3
0	2250	421.260673105347	2
0	2255	421.940339305656	1
0	2260	424.48791660861	0
0	2264	424.539765612863	1
0	2266	427.376038329893	2
0	2269	427.831329074624	1
0	2274	430.094889576214	0
0	2305	432.68511342588	1
0	2308	433.400937952667	0
0	2340	437.071447127703	1
0	2342	437.325127484653	0
0	2368	441.258229168158	1
0	2369	441.716295168571	0
0	2393	446.160087516493	1
0	2394	446.42778839911	0
0	2402	446.699263862334	1
0	2403	447.257222448354	0
0	2432	449.168085024143	1
0	2434	449.704685086223	2
0	2436	449.71789801461	3
0	2437	451.091395087691	2
0	2442	451.789052155522	1
0	2447	452.322719767815	0
0	2453	453.909958676468	1
0	2456	454.960076825013	0
0	2460	455.092467586667	1
0	2463	457.010685886746	0
0	2485	462.271444927396	1
0	2486	462.748993083448	0
0	2497	464.520758642642	1
0	2501	466.055981647851	2
0	2502	466.845808306001	1
0	2507	467.508704646134	0
0	2550	477.87275471946	1
0	2552	477.890887101509	2
0	2553	478.037322014124	1
0	2558	478.279719569376	0
0	2565	478.934706806857	1
0	2567	479.389887525151	0
0	2576	482.189547859368	1
0	2578	482.268643496454	2
0	2580	482.379572582872	3
0	2581	482.448004955251	2
0	2586	482.491832896611	1
0	2591	484.14608209641	0
0	2608	487.294313346873	1
0	2609	488.128338178128	0
0	2628	489.129587311371	1
0	2629	489.265327239415	0
0	2637	489.765793742891	1
0	2640	491.119368053447	0
0	2729	503.878723819592	1
0	2731	504.413727704609	0
0	2755	509.678695601512	1
0	2756	509.701830699533	0
0	2805	514.713012052595	1
0	2806	515.200375562169	0
0	2845	529.500947498081	1
0	2846	529.780535029177	0
0	2876	533.655513392922	1
0	2878	534.582431825229	0
0	2884	534.717449207795	1
0	2885	534.746969272583	0
0	2906	537.604601977557	1
0	2908	537.624771102664	2
0	2909	538.469488831229	1
0	2914	538.548508724002	0
0	2918	538.814782336481	1
0	2922	541.232787043179	2
0	2925	542.773836829738	1
0	2931	543.121707797248	2
0	2933	543.275370728219	3
0	2935	543.959204905894	4
0	2941	544.712538314385	3
0	2946	544.882581999916	2
0	2953	547.025824756018	3
0	2954	547.066683739731	2
0	2960	547.816539542948	3
0	2961	548.877764555543	2
0	2965	548.995778810541	3
0	2968	549.525833980085	2
0	2972	550.378385642205	3
0	2974	550.54684878355	4
0	2977	550.885044510911	3
0	2982	551.978578939946	2
0	2989	552.415271560101	1
0	2995	554.025148863236	2
0	3000	554.952287989635	1
0	3006	555.981833983598	2
0	3009	556.651536799954	1
0	3013	556.714976694297	2
0	3015	558.078343346384	3
0	3019	558.96064295456	4
0	3021	559.276712096944	5
0	3023	560.488937074161	6
0	3027	561.261928896607	7
0	3029	561.628865741051	8
0	3031	562.016767984017	9
0	3032	562.164375296426	8
0	3037	563.294776916625	7
0	3042	564.974285193543	6
0	3046	565.010625522978	7
0	3049	565.636192507265	6
0	3055	566.416872471139	7
0	3056	566.741241319398	6
0	3060	566.776060362522	7
0	3063	568.455057459248	6
0	3069	568.986727479746	7
0	3070	569.066758650892	6
0	3076	571.678883510625	7
0	3080	573.257800672776	8
0	3081	573.613993766287	7
0	3087	574.190674061349	8
0	3089	574.686785434154	9
0	3090	574.785385001106	8
0	3097	575.592267091287	7
0	3102	576.402002443766	6
0	3109	577.578540349576	5
0	3115	579.835758939431	4
0	3121	580.023378299831	5
0	3122	580.239791946253	4
0	3130	580.780257041183	5
0	3132	580.795160423201	6
0	3133	580.853492191173	5
0	3139	581.227808324808	6
0	3140	581.441093438464	5
0	3145	581.594160449755	4
0	3149	582.449931926265	5
0	3153	583.132068964247	4
0	3158	583.272729285331	3
0	3163	584.024953390084	2
0	3169	586.311579468295	1
0	3175	586.531558290191	0
0	3181	586.93081258352	1
0	3182	587.031717906356	0
0	3225	591.742448531981	1
0	3226	592.510654979775	0
0	3242	595.579985441856	1
0	3244	595.642954568842	2
0	3246	596.128721220162	3
0	3248	597.076697554737	4
0	3250	599.493769497854	5
0	3252	600.519617645399	6
0	3257	604.514294105316	5
0	3263	605.89084682985	4
0	3268	608.594478386561	3
0	3273	609.714241632307	2
0	3279	610.245247324858	1
0	3288	610.912878913685	0
0	3299	611.265764429026	1
0	3300	611.604150434391	0
0	3316	612.297036279286	1
0	3318	613.105009043446	2
0	3320	614.466486328909	3
0	3328	616.024880900782	2
0	3333	616.356734672521	1
0	3342	618.093113002922	0
0	3354	618.920332521572	1
0	3357	620.247480404624	0
0	3374	622.005541954516	1
0	3375	622.219877753283	0
0	3386	624.489868093052	1
0	3388	625.165315644869	2
0	3393	627.33983232999	1
0	3400	627.575047827903	0
0	3406	628.094869673576	1
0	3410	628.595411904853	0
0	3433	631.649073653306	1
0	3434	631.651030480956	0
0	3483	640.757459422727	1
0	3484	640.884731074198	0
0	3490	640.930769638512	1
0	3492	641.041778538302	2
0	3496	641.550833951543	1
0	3500	641.671869186153	2
0	3505	642.905701475835	3
0	3506	643.991378749715	2
0	3512	644.740436394591	1
0	3517	645.044286155805	0
0	3521	645.650067899446	1
0	3525	646.399626154122	2
0	3528	648.727357062798	3
0	3530	649.339227842854	2
0	3536	650.696060251256	3
0	3537	651.277732018132	2
0	3543	651.590035679282	3
0	3544	651.924429893075	2
0	3550	652.717939176876	3
0	3552	653.212401306186	4
0	3555	655.658799766733	3
0	3559	656.007074962384	4
0	3563	657.261765708658	3
0	3569	657.39543460357	4
0	3570	659.551729441127	3
0	3577	661.080198820769	2
0	3583	663.609953978176	1
0	3589	664.204277631971	0
0	3608	665.734080408433	1
0	3609	665.963650100509	0
0	3637	669.884703435599	1
0	3639	669.955708395663	2
0	3641	670.203418978652	3
0	3643	671.081338572295	4
0	3644	671.643116162042	3
0	3649	672.069385920417	2
0	3655	672.716666817521	3
0	3657	672.888513516243	2
0	3663	673.447552000024	1
0	3667	674.473754408707	2
0	3669	674.652808967257	3
0	3672	677.10140646346	2
0	3678	677.539504411541	3
0	3680	677.695998948452	4
0	3684	678.269914669408	5
0	3688	678.790233351504	4
0	3694	679.15556777451	3
0	3699	679.235633527156	2
0	3705	680.854736974143	3
0	3707	680.917436529007	4
0	3709	681.808460175849	5
0	3711	682.077091167269	6
0	3713	682.277853043987	7
0	3714	682.705917179304	6
0	3719	684.808050797677	5
0	3725	685.807316754714	6
0	3726	685.813386476177	5
0	3732	687.29833670351	6
0	3734	687.963281211436	7
0	3736	688.087526389946	8
0	3739	688.533363739888	7
0	3745	690.817339094857	6
0	3750	690.931759553191	5
0	3754	691.457798904443	6
0	3758	692.67586248172	7
0	3759	693.15554315059	6
0	3765	695.472672904344	7
0	3767	696.421495945028	8
0	3772	697.417165721997	7
0	3778	698.783397138615	8
0	3780	699.094090593076	9
0	3784	699.315423076664	10
0	3788	700.090779343543	11
0	3790	700.57336307215	12
0	3792	701.668565998698	13
0	3793	702.517269589325	12
0	3797	702.709597986875	13
0	3800	703.737773762245	12
0	3805	703.962415259023	11
0	3811	705.264194613132	12
0	3812	705.925463720358	11
0	3817	706.943834153354	10
0	3822	707.751391859814	9
0	3826	708.252641365114	10
0	3830	709.446015842994	9
0	3835	709.923705316686	8
0	3842	711.577231943421	7
0	3846	711.788858439746	8
0	3849	713.20095318451	7
0	3853	713.494110837618	8
0	3857	715.234139860693	9
0	3858	715.235499728338	8
0	3863	715.625423563432	7
0	3867	717.756107725282	8
0	3870	717.824629713686	7
0	3875	718.501209582324	6
0	3881	718.9835141928	7
0	3882	719.09648983656	6
0	3888	721.940539516693	7
0	3890	722.095338291823	6
0	3895	723.999626849052	5
0	3899	724.467734224784	6
0	3904	726.288156385598	5
0	3911	727.448106807957	4
0	3916	727.548201034854	3
0	3922	727.714457313043	4
0	3923	727.819340916717	3
0	3928	728.21011126435	2
0	3932	728.350560198356	3
0	3936	729.769488785798	2
0	3942	730.40152912036	3
0	3945	730.942874206337	4
0	3947	731.026850432034	5
0	3952	734.242130243282	4
0	3962	735.757142246266	5
0	3963	737.107362594156	4
0	3969	737.135213578556	5
0	3970	738.002377900163	4
0	3976	738.055454815438	3
0	3983	738.332327686159	2
0	3991	739.996339053938	1
0	3996	740.480519383276	0
0	4014	742.68860222054	1
0	4015	743.119303936211	0
0	4019	746.544236207832	1
0	4022	748.378518130454	0
0	4026	748.551958571361	1
0	4030	749.717417470674	2
0	4034	750.812194773794	1
0	4040	751.609635481328	2
0	4042	751.707445191429	1
0	4047	751.849808008383	0
0	4065	754.606100115942	1
0	4068	755.221864134157	2
0	4070	755.249467536025	3
0	4072	755.526043246607	4
0	4079	756.998967642436	3
0	4084	757.11824182871	2
0	4091	757.561096873698	3
0	4094	758.728127226233	4
0	4095	758.768716095459	3
0	4101	759.470972027212	4
0	4102	760.363312909311	3
0	4107	760.510694221934	2
0	4112	760.748983438425	1
0	4117	763.21879988616	0
0	4145	767.644096449381	1
0	4146	768.10931128051	0
0	4155	769.19697829468	1
0	4157	769.496462510519	2
0	4160	770.846261840345	1
0	4165	771.031287321035	0
0	4171	772.327180922767	1
0	4173	772.772882684036	0
0	4179	772.778661945168	1
0	4184	773.114276317574	2
0	4186	773.385062865151	3
0	4188	773.394380962903	4
0	4189	773.722270300465	3
0	4197	774.102008780515	2
0	4205	774.466690168936	1
0	4211	774.95775873473	2
0	4214	775.23747124837	1
0	4220	775.886586727647	0
0	4258	782.170047759555	1
0	4262	783.121800527413	0
0	4271	785.386717674446	1
0	4278	786.796442362488	2
0	4280	787.313749456765	1
0	4285	787.359342886603	0
0	4301	788.228398789742	1
0	4302	788.366744248294	0
0	4318	795.309831901442	1
0	4321	796.978133612983	0
0	4330	797.390899847783	1
0	4334	797.707010396272	2
0	4340	800.145144012474	3
0	4342	800.186906393875	4
0	4344	801.117881679922	5
0	4347	801.413750626697	4
0	4352	801.486752044556	3
0	4357	801.754677516105	2
0	4364	802.476906512302	1
0	4375	806.717955297026	0
0	4382	808.400381264852	1
0	4383	808.591092027414	0
0	4412	812.603925435648	1
0	4413	813.178446986577	0
0	4434	813.707342836447	1
0	4438	815.143132529085	2
0	4439	815.217917492798	1
0	4444	815.802822106059	0
0	4453	817.445724927605	1
0	4455	817.512796281363	2
0	4457	817.597340706172	3
0	4460	818.145824403758	2
0	4464	818.889032877968	3
0	4466	819.753630022841	4
0	4468	819.761602723988	5
0	4472	822.25724271311	4
0	4478	822.443129232178	3
0	4484	822.720063540465	2
0	4489	823.05774008844	1
0	4497	824.104999661037	2
0	4498	824.407246513871	1
0	4505	825.090191456157	2
0	4513	826.468245370048	3
0	4516	827.594134201608	4
0	4517	828.377619427053	3
0	4522	828.469193590494	2
0	4528	829.701231535759	3
0	4531	830.948762925386	2
0	4536	831.717596938659	1
0	4540	832.24991517189	2
0	4544	832.766726890606	1
0	4549	833.025538884756	0
0	4566	835.734937822627	1
0	4572	837.43357507639	2
0	4573	838.421668248422	1
0	4579	838.953801205031	0
0	4601	840.178400305201	1
0	4603	842.373091995829	0
0	4623	845.101823960936	1
0	4625	845.209659449259	2
0	4628	845.278234800437	3
0	4630	845.734988973624	4
0	4632	847.088714942748	5
0	4634	847.851044435412	6
0	4637	849.232603097905	5
0	4644	850.12239221045	4
0	4651	850.957698645425	3
0	4656	851.261078309227	2
0	4662	851.570965133778	1
0	4668	852.634555699024	2
0	4672	853.265937888951	1
0	4677	853.416562290895	0
0	4703	854.573261413658	1
0	4704	856.304146601653	0
0	4715	858.022312746622	1
0	4717	858.657474947317	2
0	4724	859.601712119781	1
0	4729	859.644460296723	0
0	4755	862.675395930235	1
0	4759	864.603172011168	0
0	4789	866.634809414801	1
0	4793	868.273201529935	2
0	4796	869.108610688935	1
0	4801	869.236331916878	0
0	4818	870.197469980244	1
0	4824	871.39878565133	2
0	4830	875.669171763903	1
0	4837	875.965831964295	0
0	4843	876.060579908353	1
0	4846	877.611909880585	0
0	4852	878.131528816045	1
0	4853	878.472910077615	0
0	4859	878.779830831178	1
0	4864	879.543020925324	0
0	4870	881.348599142396	1
0	4871	881.421696984841	0
0	4882	882.41577967278	1
0	4883	882.422067422721	0
0	4911	886.544526778162	1
0	4912	887.002334871866	0
0	4918	887.130668535629	1
0	4920	888.919381253019	2
0	4921	889.513416352146	1
0	4928	889.872970361769	0
0	4963	898.752976600668	1
0	4968	899.91219959156	0
0	4990	902.375438943126	1
0	4992	902.447265969401	2
0	4993	902.449071081561	1
0	4999	902.718662729352	2
0	5001	903.280809665071	3
0	5003	904.074840595224	2
0	5009	904.734964681281	1
0	5014	905.174024420548	0
0	5021	905.189635704112	1
0	5022	905.607090740261	0
0	5029	905.677072595945	1
0	5031	905.881689801483	2
0	5032	907.134304227665	1
0	5037	907.205988020903	0
0	5053	909.507692780342	1
0	5055	909.625934438292	2
0	5057	910.503377437357	1
0	5063	910.547511434561	2
0	5065	911.404312771879	3
0	5066	911.468716002441	2
0	5071	911.47842145985	1
0	5077	911.649040673429	2
0	5081	912.772268839026	3
0	5083	913.392345108004	4
0	5084	915.245623935317	3
0	5089	915.812490431588	2
0	5094	915.947641706661	1
0	5101	917.341794429703	0
0	5105	917.384915782329	1
0	5109	917.541843048725	2
0	5110	918.010786998646	1
0	5116	919.55802209865	2
0	5122	920.980746602856	3
0	5124	921.633133377689	4
0	5125	921.886036745633	3
0	5131	923.671986883965	4
0	5132	923.706894655683	3
0	5137	924.754182756757	2
0	5142	925.118887835929	1
0	5146	925.331155196004	2
0	5148	925.758885395521	3
0	5152	930.306366211102	4
0	5156	932.467696010881	5
0	5158	932.785257542466	6
0	5160	933.042025278136	7
0	5163	935.03091157014	6
0	5168	935.617933972595	5
0	5172	935.631234866134	6
0	5176	936.231253650685	7
0	5178	936.38041418305	8
0	5179	936.419131269583	7
0	5185	936.904136875291	8
0	5188	937.262685868966	9
0	5189	937.474130733438	8
0	5195	937.956262347021	7
0	5201	938.198716253649	8
0	5202	938.343798611222	7
0	5206	938.643860468595	8
0	5208	938.820275315417	9
0	5211	939.635288656938	8
0	5218	940.700511752804	9
0	5219	941.016428275862	8
0	5225	941.566590822695	7
0	5230	941.848511207513	6
0	5234	942.308642687056	7
0	5236	942.57677587015	8
0	5239	943.605703357211	7
0	5244	944.666722635886	6
0	5249	946.813243732242	5
0	5253	946.916508319177	6
0	5255	948.970048956981	7
0	5257	949.164425512724	8
0	5261	950.40641947811	9
0	5263	950.947274332998	10
0	5264	950.948778461371	9
0	5268	951.937497127475	10
0	5271	955.607938747439	9
0	5278	956.383664372028	8
0	5282	958.406757959438	9
0	5287	959.956088428552	8
0	5291	960.948087598898	9
0	5293	961.369432556698	10
0	5296	964.317864778145	9
0	5302	966.995020680127	8
0	5307	967.125465143973	7
0	5311	968.251175032762	8
0	5317	969.736994702477	9
0	5318	970.395117671181	8
0	5328	971.863473852658	7
0	5335	974.070358605469	6
0	5342	974.769799143305	5
0	5348	977.607614788275	4
0	5355	980.741339538962	3
0	5361	982.345503143911	2
0	5367	983.033550835354	3
0	5369	983.121632861172	4
0	5370	983.396402447791	3
0	5375	984.23057728178	2
0	5380	985.985599841988	1
0	5385	987.877092313263	0
0	5406	990.346630382669	1
0	5409	991.313228173409	0
0	5415	991.585370160353	1
0	5419	992.387820956442	2
0	5420	992.625874104587	1
0	5425	994.256815222905	0
0	5446	995.010198053421	1
0	5449	995.301078221842	0
0	5453	995.889393899404	1
0	5461	997.431299469787	0
0	5473	998.863562949119	1
0	5474	999.34324027685	0
0	5481	999.713546497325	1
0	5482	999.898022631446	0
0	5490	1002.322288205547	1
0	5495	1003.463381050511	2
0	5497	1003.945248985543	3
0	5499	1003.980172550072	4
0	5501	1004.843523525702	5
0	5503	1005.081873181216	6
0	5504	1005.55577640186	5
0	5510	1005.603848682901	6
0	5511	1007.267590556045	5
0	5516	1007.414342161529	4
0	5521	1007.653306951336	3
0	5525	1007.665579120663	4
0	5528	1009.872437458845	3
0	5532	1009.905938419738	4
0	5536	1012.285693218809	5
0	5541	1012.920615593803	4
0	5546	1013.156192668189	3
0	5552	1013.160920760239	4
0	5555	1013.968089605619	3
0	5559	1015.102890809037	4
0	5563	1016.505696186881	5
0	5565	1016.725673088194	6
0	5566	1017.61427546263	5
0	5570	1017.665658544915	6
0	5573	1018.180879309479	5
0	5578	1019.725761727568	4
0	5583	1020.329121764968	3
0	5590	1021.923962464074	4
0	5591	1022.25372245312	3
0	5596	1022.716997299759	2
0	5602	1024.677595113216	1
0	5607	1024.911349867111	0
0	5611	1025.129844567735	1
0	5617	1026.008138624809	2
0	5619	1026.011211651394	3
0	5620	1026.296465751258	2
0	5624	1026.630223124268	3
0	5627	1027.788465703856	2
0	5632	1029.718606655655	1
0	5641	1034.226742641717	0
0	5669	1036.574253174176	1
0	5670	1037.328222459159	0
0	5676	1037.575561539308	1
0	5680	1037.903490539772	2
0	5682	1038.069899568228	3
0	5683	1038.39606825212	2
0	5688	1038.527428311556	1
0	5693	1038.535085203533	0
0	5697	1039.043533454843	1
0	5702	1039.93063609772	0
0	5713	1043.05295587221	1
0	5716	1043.581489724287	2
0	5717	1043.81335772277	1
0	5723	1045.460421468101	0
0	5746	1048.000441939072	1
0	5748	1048.203534344904	0
0	5754	1048.442036730515	1
0	5755	1048.783146897565	0
0	5775	1052.001183518589	1
0	5781	1052.871503808311	2
0	5782	1052.969470950423	1
0	5787	1053.202883966519	0
0	5791	1053.536994263223	1
0	5793	1054.820876803091	2
0	5795	1055.412857786076	3
0	5798	1056.143124462135	2
0	5804	1057.347478537814	3
0	5805	1057.556959408699	2
0	5814	1058.546034263644	3
0	5816	1058.730959858515	4
0	5817	1059.605841011704	3
0	5824	1061.423555834271	4
0	5825	1061.769617708756	3
0	5832	1062.310422193628	4
0	5835	1062.703417576014	3
0	5840	1063.804788112393	2
0	5844	1065.626579230023	3
0	5847	1066.690483057548	2
0	5851	1066.784597012475	3
0	5857	1071.076611459766	2
0	5862	1071.162123442703	1
0	5871	1074.536363511959	2
0	5872	1074.841261350301	1
0	5879	1075.927219194201	0
0	5890	1076.996229782381	1
0	5892	1077.069368196036	2
0	5895	1078.227416071816	3
0	5897	1078.421949836587	2
0	5904	1079.892708065137	1
0	5909	1079.893761184356	0
0	5915	1080.980964922767	1
0	5917	1081.132244658332	0
0	5930	1081.667335616696	1
0	5933	1083.14183092121	0
0	5958	1085.422186837403	1
0	5959	1087.285721568012	0
0	5968	1088.108244005016	1
0	5971	1088.548548608629	2
0	5974	1089.483509522811	1
0	5979	1089.785817436364	0
0	5995	1092.457122128102	1
0	5996	1092.495108881705	0
0	6005	1093.994776638346	1
0	6008	1094.292745343857	0
0	6014	1094.515590031618	1
0	6015	1095.003388015519	0
0	6019	1095.014599087718	1
0	6021	1095.280215840078	2
0	6023	1096.656622707266	3
0	6027	1097.619092585696	2
0	6032	1097.962012855431	1
0	6037	1098.411108917964	0
0	6043	1100.112729728938	1
0	6047	1100.828760828417	2
0	6049	1101.01103838632	1
0	6054	1101.921992828614	0
0	6101	1109.099343369598	1
0	6103	1110.842756490634	0
0	6123	1112.284318798362	1
0	6125	1113.04744727781	2
0	6126	1113.094233465364	1
0	6133	1113.663881263178	0
0	6139	1113.918402495978	1
0	6141	1114.667092269534	0
0	6155	1115.772730225244	1
0	6158	1117.278866503696	0
0	6182	1119.304358359392	1
0	6183	1119.473738774827	0
0	6192	1119.993416570924	1
0	6195	1121.492326550045	0
0	6209	1123.338200885365	1
0	6210	1123.595508430699	0
0	6219	1124.346413912491	1
0	6224	1124.55483996455	0
0	6245	1126.045603180702	1
0	6246	1126.147796214099	0
0	6257	1126.84390114644	1
0	6258	1127.600312070329	0
0	6268	1129.627854378427	1
0	6270	1129.73427934786	2
0	6271	1129.759042330263	1
0	6276	1129.764199455392	0
0	6280	1129.813475408315	1
0	6283	1130.847396625349	0
0	6300	1133.579303717302	1
0	6302	1133.697297239131	0
0	6319	1136.481797810194	1
0	6324	1138.493810995521	0
0	6349	1142.524802742183	1
0	6355	1146.355720795077	2
0	6358	1146.875549135624	1
0	6364	1147.27473360836	2
0	6369	1149.648772880511	3
0	6370	1149.915560788359	2
0	6375	1151.039527172674	1
0	6382	1151.358868597592	2
0	6383	1152.849837592729	1
0	6388	1152.935563261137	0
0	6412	1154.665484547517	1
0	6413	1154.780339208305	0
0	6434	1156.030854914709	1
0	6436	1157.747431989591	2
0	6439	1159.504421376179	1
0	6445	1159.774559390079	0
0	6462	1164.040448338485	1
0	6463	1164.066856027142	0
0	6472	1165.467639247665	1
0	6478	1166.143944340629	2
0	6479	1166.557740522596	1
0	6487	1167.426049680953	2
0	6489	1168.551774627255	3
0	6490	1168.759479645412	2
0	6497	1169.146914627883	1
0	6503	1170.341475673557	2
0	6504	1170.712600129225	1
0	6509	1170.951172371242	0
0	6522	1173.271875940792	1
0	6524	1173.694549770866	0
0	6528	1173.794001368364	1
0	6530	1173.804594499286	2
0	6532	1175.107677516652	3
0	6535	1176.118702851862	2
0	6540	1176.225282715582	1
0	6545	1176.742866282991	0
0	6570	1178.882293333967	1
0	6572	1178.959211948741	2
0	6576	1179.514426252795	1
0	6585	1180.679515484757	2
0	6587	1181.543324337156	1
0	6595	1182.341935412978	0
0	6629	1184.332440497443	1
0	6631	1184.692649486152	0
0	6642	1185.231697065394	1
0	6644	1185.531863324964	2
0	6649	1187.857210120294	1
0	6654	1190.207232795572	0
0	6658	1191.093627580577	1
0	6663	1192.003190762049	0
0	6709	1197.958545168246	1
0	6710	1198.202689468381	0
0	6738	1202.593532386405	1
0	6739	1203.033317320718	0
0	6753	1207.238121674604	1
0	6755	1207.573414257518	2
0	6756	1207.621035206839	1
0	6762	1207.700702072548	2
0	6763	1207.763535001298	1
0	6772	1208.72552016564	2
0	6773	1209.447655151246	1
0	6781	1210.81514663968	0
0	6787	1210.948563512257	1
0	6788	1212.377545758719	0
0	6792	1214.144501537169	1
0	6796	1214.168411332287	2
0	6801	1216.100420394482	1
0	6806	1217.359784625469	0
0	6810	1220.479189331106	1
0	6814	1222.510264267049	0
0	6826	1222.723968350458	1
0	6830	1224.075813059564	0
0	6841	1224.950573617305	1
0	6842	1225.24652032273	0
0	6867	1230.037472193564	1
0	6868	1230.398046300429	0
0	6895	1236.72917659745	1
0	6896	1236.836047931179	0
0	6903	1237.362979512139	1
0	6904	1237.538220921579	0
0	6910	1238.660853205319	1
0	6911	1238.930828679183	0
0	7004	1253.776586521072	1
0	7008	1255.122317351723	0
0	7014	1255.56198568299	1
0	7015	1256.986982912476	0
0	7021	1257.041550618234	1
0	7025	1257.642668667062	0
0	7049	1269.830713015298	1
0	7053	1270.318949775591	2
0	7055	1270.479595292289	3
0	7058	1272.675358441781	2
0	7062	1272.77203611514	3
0	7064	1273.205515039995	4
0	7066	1273.236974713299	5
0	7069	1274.055942809551	4
0	7073	1274.156903941461	5
0	7075	1274.878968733791	6
0	7077	1275.128401008186	7
0	7080	1276.201397150477	6
0	7084	1276.616323057692	7
0	7088	1278.007869820197	8
0	7092	1278.627803332653	7
0	7097	1278.810774129706	6
0	7103	1279.4255968421	7
0	7104	1279.46741036821	6
0	7114	1280.974832101327	5
0	7120	1281.89226889571	6
0	7121	1281.957838670876	5
0	7127	1283.621343870432	6
0	7128	1284.155637297914	5
0	7135	1286.432666319857	4
0	7145	1288.100401247643	3
0	7152	1289.459849629508	2
0	7159	1290.319853810437	3
0	7160	1290.462973081227	2
0	7166	1291.120139515691	1
0	7173	1291.346321300282	0
0	7185	1291.765771265202	1
0	7187	1292.364557623864	2
0	7188	1293.300727069029	1
0	7193	1293.584189639981	0
0	7203	1295.23818202119	1
0	7205	1295.420026599331	2
0	7206	1296.533013948497	1
0	7212	1296.795202726555	2
0	7213	1297.128715887978	1
0	7220	1297.792523922279	0
0	7247	1299.256605290999	1
0	7250	1299.778629769055	0
0	7258	1300.424286666102	1
0	7259	1300.657809217173	0
0	7278	1304.343533414773	1
0	7279	1304.426500348066	0
0	7283	1304.427612632578	1
0	7287	1304.868443238661	0
0	7351	1319.948335695173	1
0	7354	1324.238308909767	0
0	7374	1327.02158983126	1
0	7380	1328.420192857502	2
0	7382	1328.921829045059	3
0	7385	1329.375466255786	2
0	7391	1329.470891571004	3
0	7393	1330.026147884822	2
0	7400	1330.599546663035	1
0	7405	1330.682625553805	0
0	7416	1330.887845617237	1
0	7418	1331.065289320918	2
0	7419	1331.635011152889	1
0	7424	1332.0161116543	0
0	7428	1332.851727464439	1
0	7434	1334.722155245238	2
0	7435	1334.758779335909	1
0	7441	1335.975467056242	0
0	7474	1342.292560437126	1
0	7478	1342.708356025735	0
0	7490	1343.453412215976	1
0	7491	1343.996110946994	0
0	7497	1344.56856885621	1
0	7499	1345.413889726577	0
0	7506	1346.003792819185	1
0	7508	1346.890019595913	0
0	7535	1353.047974469806	1
0	7538	1353.360175983945	0
0	7547	1353.651304780577	1
0	7551	1355.205451941043	0
0	7557	1355.670151831374	1
0	7559	1356.108058348851	2
0	7560	1356.152092722042	1
0	7569	1357.612265011539	2
0	7570	1359.223186064458	1
0	7575	1359.778816106726	0
0	7582	1360.162735005909	1
0	7584	1360.677041827932	0
0	7608	1362.314675404412	1
0	7611	1362.524835456254	0
0	7643	1365.454288929043	1
0	7648	1367.15813787438	0
0	7654	1367.386521737145	1
0	7655	1367.902604917005	0
0	7659	1369.491876532085	1
0	7661	1369.847994883738	2
0	7663	1370.467592904204	3
0	7665	1370.82297483524	4
0	7667	1371.035505494217	5
0	7670	1372.594667142581	4
0	7674	1373.244753933945	5
0	7679	1374.554149883207	4
0	7683	1375.844195465028	5
0	7685	1375.944875346807	6
0	7688	1376.93912982301	5
0	7694	1377.670873846781	4
0	7698	1377.76594229486	5
0	7700	1378.524397710667	6
0	7702	1379.871171368426	7
0	7707	1380.496681120832	8
0	7709	1380.594062791236	7
0	7714	1380.666888453418	6
0	7718	1381.360377728955	7
0	7720	1381.528886544938	8
0	7725	1384.445110481548	7
0	7730	1386.272294068902	6
0	7736	1386.647324261903	7
0	7738	1386.718234721703	8
0	7741	1387.80723651306	7
0	7747	1388.236724827304	8
0	7748	1388.864871238685	7
0	7755	1389.42449764254	6
0	7764	1393.092179985226	7
0	7765	1393.488841853747	6
0	7776	1394.425070080398	7
0	7778	1395.406433060419	8
0	7780	1396.0348046524	9
0	7781	1396.231880444387	8
0	7788	1396.847535341413	7
0	7793	1397.254132335561	6
0	7798	1398.186620210504	5
0	7804	1399.282908913795	6
0	7810	1400.273577661936	5
0	7815	1400.564923173401	4
0	7822	1402.072870155829	3
0	7828	1404.05602546687	2
0	7834	1404.493497317516	3
0	7835	1405.536867969339	2
0	7842	1406.343191013306	1
0	7849	1408.177454876072	0
0	7855	1408.711891887085	1
0	7856	1409.220573000447	0
0	7860	1409.538972937232	1
0	7866	1412.0328137179	2
0	7867	1412.1236386351	1
0	7874	1412.659397026631	2
0	7875	1412.910437556328	1
0	7881	1413.041236510704	0
0	7894	1414.325108236692	1
0	7896	1414.7889278796	2
0	7897	1415.865062319294	1
0	7904	1416.6439138192	2
0	7905	1417.056642581705	1
0	7910	1417.576651613438	0
0	7917	1418.244187825678	1
0	7919	1418.54540397889	2
0	7920	1418.773187906457	1
0	7925	1419.104768035082	0
0	7929	1419.696473667708	1
0	7931	1422.057801723064	2
0	7935	1424.508609734724	1
0	7940	1424.667430636574	0
0	7971	1429.399597185945	1
0	7973	1429.485625077263	2
0	7974	1429.617788723066	1
0	7979	1430.105819893724	0
0	8032	1435.619989295556	1
0	8034	1435.807021201542	2
0	8035	1435.844937223986	1
0	8040	1435.886747421596	0
0	8063	1439.593048115775	1
0	8064	1439.693309992341	0
0	8112	1450.345448264071	1
0	8117	1451.439327157267	0
0	8157	1455.995407636576	1
0	8159	1457.079080543888	2
0	8164	1459.378193542127	1
0	8169	1459.839242598444	0
0	8183	1461.081735302601	1
0	8186	1461.325050410952	0
0	8192	1462.334886648758	1
0	8194	1462.38974291007	2
0	8195	1462.731668694415	1
0	8202	1463.507196744315	0
0	8208	1463.663057488429	1
0	8210	1463.676857310535	2
0	8212	1463.783705575867	3
0	8213	1464.374252579389	2
0	8217	1464.973383687846	3
0	8220	1465.997782319668	2
0	8226	1466.481402920815	3
0	8227	1467.116515345204	2
0	8231	1468.815491637411	3
0	8234	1469.540302583746	2
0	8238	1471.511224287399	3
0	8243	1474.353656023091	2
0	8250	1477.856802202055	1
0	8255	1478.439611092996	0
0	8265	1480.557911066445	1
0	8267	1481.037112780359	0
0	8273	1481.775434498678	1
0	8274	1482.664653235796	0
0	8278	1484.025112838262	1
0	8283	1485.482789765163	0
0	8287	1485.738222877297	1
0	8291	1486.923760303023	2
0	8292	1487.028167709696	1
0	8296	1488.847794869078	2
0	8300	1489.542427184118	3
0	8303	1490.134463786912	2
0	8312	1491.364231000079	1
0	8316	1492.282639216561	2
0	8322	1494.123361589128	3
0	8327	1494.876006358015	2
0	8336	1497.737678524671	3
0	8337	1497.82489500695	2
0	8343	1500.718065189885	1
0	8348	1500.931264739068	0
0	8377	1508.507319547606	1
0	8380	1510.606777303011	0
0	8417	1514.43785306679	1
0	8420	1516.185849143534	0
0	8433	1517.595233215259	1
0	8436	1518.501521995297	2
0	8438	1518.520181932407	3
0	8439	1518.960421496573	2
0	8445	1519.438283057948	3
0	8447	1519.988241243093	4
0	8451	1520.55782879707	3
0	8459	1521.013658127711	4
0	8460	1522.855624534042	3
0	8466	1525.17009116552	2
0	8471	1525.720081537619	1
0	8476	1527.375840230435	0
0	8487	1529.028277283473	1
0	8489	1529.10951007192	2
0	8492	1529.431238619673	3
0	8494	1530.550384747242	4
0	8495	1531.505121285992	3
0	8503	1533.016056224807	4
0	8504	1533.169344444228	3
0	8509	1533.774958548955	2
0	8513	1533.89341646827	3
0	8518	1534.819734723933	2
0	8524	1535.592781963125	3
0	8525	1536.047646279262	2
0	8530	1537.693880316535	1
0	8536	1538.736425793	0
0	8550	1540.766840557051	1
0	8553	1541.812463354612	0
0	8559	1542.178576806952	1
0	8562	1543.493426174158	0
0	8590	1545.682832129323	1
0	8591	1545.832724619044	0
0	8615	1548.904444876418	1
0	8622	1551.521455662447	0
0	8655	1561.01283818342	1
0	8658	1561.328456064124	0
0	8669	1561.953229689616	1
0	8671	1562.747885660743	2
0	8672	1563.135401994836	1
0	8677	1563.787701569268	0
0	8684	1564.798616108028	1
0	8687	1565.498855220816	2
0	8689	1565.638497283343	3
0	8693	1566.178622631	4
0	8694	1566.263484317695	3
0	8700	1566.913538787815	2
0	8705	1567.315295586495	1
0	8713	1567.783344154389	2
0	8714	1568.319496637665	1
0	8719	1568.452790933469	0
0	8723	1568.933349033432	1
0	8725	1569.479291214928	2
0	8728	1570.042937996169	1
0	8732	1570.072977071955	2
0	8738	1571.525096373054	3
0	8740	1571.747622220198	2
0	8746	1572.124019781694	3
0	8748	1572.302341763739	2
0	8754	1573.271995815932	3
0	8758	1573.406976602628	4
0	8759	1574.191886596231	3
0	8763	1575.437777015245	4
0	8767	1575.610135129226	5
0	8769	1576.866271391432	6
0	8770	1576.952472844619	5
0	8774	1577.145045707579	6
0	8776	1577.806089390334	7
0	8780	1578.880126075639	8
0	8782	1579.492372441603	9
0	8789	1583.360954246472	8
0	8795	1583.736426437504	7
0	8800	1583.89061352076	6
0	8806	1584.212766951326	5
0	8811	1584.216630787149	4
0	8818	1586.455744638353	3
0	8824	1587.591247384201	2
0	8829	1587.707928369067	1
0	8834	1587.895466271817	0
0	8838	1587.992833517379	1
0	8842	1590.227304527796	0
0	8858	1591.086187830943	1
0	8860	1591.875646325959	2
0	8862	1591.899852004312	3
0	8866	1592.966706890629	2
0	8872	1594.064596654276	3
0	8873	1594.861282458335	2
0	8880	1596.25654400324	1
0	8886	1597.330760486159	2
0	8887	1597.436765474662	1
0	8891	1599.057116703167	2
0	8897	1599.843316954706	3
0	8901	1601.552273855964	4
0	8903	1602.590697665005	5
0	8905	1604.898991167064	6
0	8907	1605.354180320874	7
0	8909	1606.535941642041	8
0	8911	1606.561291960754	9
0	8914	1607.541011474394	8
0	8918	1607.693384996886	9
0	8920	1607.904101643954	10
0	8924	1608.844458386484	9
0	8929	1609.212226380388	8
0	8935	1609.613335726445	9
0	8938	1609.99506389031	8
0	8942	1611.35313218775	9
0	8945	1612.2388304426	8
0	8952	1612.929213220918	9
0	8953	1613.3227475697	8
0	8958	1613.597384044333	7
0	8962	1614.14598862066	8
0	8964	1614.671796442877	9
0	8966	1616.11241607606	10
0	8970	1618.005031698698	9
0	8975	1618.031706299373	8
0	8979	1618.595889329785	9
0	8981	1620.149201594306	10
0	8983	1620.62040417094	11
0	8985	1621.050585937369	12
0	8987	1621.510892935854	13
0	8989	1621.72972763921	14
0	8993	1624.914004806457	15
0	8997	1625.713805374124	16
0	8999	1626.485024557124	15
0	9005	1627.596264099205	16
0	9009	1628.611605984118	17
0	9010	1628.618425649751	16
0	9014	1629.682871742906	17
0	9020	1632.135428271548	18
0	9021	1632.268705428579	17
0	9026	1634.804488327293	16
0	9032	1636.321109967299	17
0	9033	1636.727489294421	16
0	9040	1637.150909112724	17
0	9041	1637.171901649628	16
0	9046	1637.301716687902	15
0	9052	1639.538939336356	16
0	9056	1639.880085538471	17
0	9058	1640.184899168085	18
0	9062	1640.902396145632	17
0	9067	1641.11212079459	16
0	9073	1643.057298136093	17
0	9074	1643.78202972629	16
0	9079	1645.636127466342	15
0	9087	1648.173624705938	16
0	9092	1649.386326871324	15
0	9098	1650.983724465139	16
0	9099	1651.079517376868	15
0	9105	1652.523824919952	16
0	9109	1654.187425135187	15
0	9114	1654.267972719682	14
0	9120	1655.119180918793	15
0	9121	1655.591433471659	14
0	9125	1656.723467351691	15
0	9130	1657.642429590694	14
0	9137	1659.465281270012	13
0	9142	1659.692655202564	12
0	9148	1661.337423770203	13
0	9154	1662.031411380046	14
0	9155	1662.21816577443	13
0	9159	1663.852604907252	14
0	9162	1664.439855815334	13
0	9167	1665.992266235192	12
0	9171	1666.379777440841	13
0	9174	1666.783388916031	12
0	9180	1667.043792536998	13
0	9181	1667.152761940271	12
0	9185	1667.413869487172	13
0	9189	1668.26728019299	12
0	9194	1668.335221731457	11
0	9199	1670.046321829229	10
0	9205	1670.931190258974	11
0	9210	1675.030071220582	10
0	9216	1675.149172698454	11
0	9218	1675.720914966668	10
0	9223	1676.050505333238	9
0	9229	1676.378324591534	10
0	9230	1676.879554405395	9
0	9234	1677.414825866494	10
0	9238	1678.379856039495	11
0	9243	1679.807295604438	10
0	9247	1679.833382922981	11
0	9249	1680.535898205006	12
0	9257	1681.893910206539	11
0	9263	1682.252754448797	12
0	9265	1682.871826965521	11
0	9272	1685.389107313412	10
0	9276	1685.970356682196	11
0	9280	1686.21056402996	12
0	9281	1686.392613095196	11
0	9286	1687.277372546061	10
0	9291	1687.338530475395	9
0	9296	1688.301501350162	8
0	9303	1690.487804012895	7
0	9307	1691.774907643562	8
0	9309	1693.307888062088	9
0	9313	1693.484866813984	10
0	9315	1693.771342692041	11
0	9316	1694.127068489127	10
0	9320	1694.510754760015	11
0	9324	1695.127305830678	12
0	9326	1697.266957202865	13
0	9328	1698.266166846258	14
0	9337	1699.624703701971	13
0	9342	1700.259018350308	12
0	9349	1700.706008046217	11
0	9354	1700.943610223	10
0	9359	1701.006717897467	9
0	9365	1701.781566591205	8
0	9370	1702.131049744457	7
0	9376	1702.852375125113	6
0	9382	1703.014429362558	5
0	9387	1703.391122176578	4
0	9392	1703.986156031905	3
0	9396	1704.759170312295	4
0	9398	1704.870398761437	5
0	9400	1705.134515221469	6
0	9403	1707.767120499202	5
0	9407	1708.889018442752	6
0	9409	1709.816663602695	7
0	9411	1710.226747906083	8
0	9413	1710.258751916567	9
0	9417	1712.376603932633	10
0	9419	1714.362632351779	11
0	9420	1714.786575942744	10
0	9424	1715.145436210747	11
0	9427	1715.477649250149	10
0	9435	1717.607691205563	11
0	9437	1718.456151269724	12
0	9442	1719.910159258792	11
0	9452	1721.592232948222	12
0	9454	1721.827769394732	13
0	9456	1723.090905010169	14
0	9457	1723.277214995339	13
0	9464	1723.878130780743	12
0	9469	1724.126936311187	11
0	9474	1724.531351532962	10
0	9480	1725.737466045411	11
0	9481	1725.873906321765	10
0	9485	1726.487132522487	11
0	9489	1727.209458344975	12
0	9490	1727.770868302555	11
0	9495	1728.325471070085	10
0	9500	1729.416534677153	9
0	9506	1730.832467113514	10
0	9507	1730.997175238278	9
0	9513	1731.473745718366	8
0	9522	1731.93144987349	7
0	9531	1733.732649374419	6
0	9536	1734.399983549175	5
0	9541	1735.992754194664	4
0	9546	1736.813734612273	3
0	9551	1737.83539486876	2
0	9557	1738.551849435052	3
0	9558	1738.580532099472	2
0	9562	1739.22839410485	3
0	9564	1740.611951950698	4
0	9567	1742.672075845921	3
0	9573	1745.377610669532	4
0	9575	1745.526963801254	5
0	9576	1746.536871170934	4
0	9580	1747.25039250415	5
0	9584	1748.430450190389	6
0	9586	1748.649992624363	7
0	9590	1749.96611166466	6
0	9600	1751.02617836518	7
0	9603	1751.987877819196	6
0	9609	1752.200434191454	7
0	9612	1756.437571289625	6
0	9616	1757.110564687467	7
0	9618	1757.257798589588	8
0	9620	1757.451745867148	9
0	9625	1758.651199013659	8
0	9629	1759.882499929464	9
0	9633	1761.611836354331	8
0	9638	1762.506693336572	7
0	9644	1763.260965911245	8
0	9645	1763.306849432767	7
0	9653	1764.130779125825	8
0	9655	1764.612195410167	9
0	9657	1764.651441773912	10
0	9661	1765.210128389526	9
0	9666	1765.229343945646	8
0	9674	1767.521855556018	9
0	9677	1767.838676636998	8
0	9681	1769.218619100249	9
0	9684	1770.776349391501	8
0	9688	1770.781741923281	9
0	9691	1771.63699423987	8
0	9698	1772.459113733976	7
0	9707	1775.051349574742	6
0	9715	1776.959561741946	7
0	9716	1777.291656995467	6
0	9722	1777.477001449132	7
0	9726	1778.551924617009	8
0	9728	1778.877713572327	9
0	9729	1778.910902430967	8
0	9736	1780.278301033777	7
0	9742	1781.116471115525	8
0	9743	1781.885210695762	7
0	9751	1781.968691399606	8
0	9752	1783.201067342436	7
0	9758	1783.904054414994	8
0	9760	1784.733129716946	7
0	9768	1785.323294529768	8
0	9773	1786.014772739926	7
0	9777	1786.597579829503	8
0	9781	1787.227912709903	9
0	9783	1787.613302524336	10
0	9787	1788.524314485276	9
0	9792	1788.637223974685	8
0	9797	1788.836713510307	7
0	9805	1792.669846674217	8
0	9806	1794.07142588198	7
0	9814	1796.893899174855	8
0	9815	1797.592544194143	7
0	9820	1798.847215363924	6
0	9825	1800.604036050392	5
0	9831	1801.798384848174	6
0	9833	1802.951865531239	7
0	9838	1804.3273602142	8
0	9839	1805.072314072273	7
0	9845	1805.101138817905	8
0	9846	1806.16143172017	7
0	9851	1806.520897555754	6
0	9856	1807.154156927517	5
0	9865	1810.773899476929	4
0	9869	1811.204409339225	5
0	9871	1813.469702182361	6
0	9876	1814.669396768591	5
0	9881	1816.443473224452	4
0	9888	1819.178577325188	3
0	9893	1819.419067564207	2
0	9898	1821.122148503364	1
0	9904	1821.927193006511	2
0	9905	1821.94852084106	1
0	9912	1822.825665489973	0
0	9916	1824.194241157177	1
0	9920	1825.177418720577	2
0	9921	1825.957597454429	1
0	9925	1827.794222639564	2
0	9927	1828.05631818301	3
0	9931	1828.490138649854	4
0	9932	1828.72998113139	3
0	9940	1829.297056717231	4
0	9945	1830.357162563357	5
0	9946	1831.073940000438	4
0	9951	1831.50327384223	3
0	9958	1832.408590856722	2
0	9965	1833.177191922464	3
0	9966	1833.462381854428	2
0	9972	1833.612301135782	1
0	9977	1834.683631240073	0
0	9983	1835.87195628785	1
0	9987	1836.195480194248	2
0	9989	1837.203404697079	1
0	9998	1838.459546391502	0
0	10015	1838.904753684373	1
0	10016	1838.956336528407	0
0	10029	1840.578634877937	1
0	10031	1841.38646898359	0
0	10038	1841.892291839437	1
0	10039	1842.219450493523	0
0	10050	1842.809811410759	1
0	10052	1842.969934474997	0
0	10056	1843.55690044469	1
0	10059	1844.11806386719	0
0	10067	1844.562088096147	1
0	10068	1845.257139861617	0
0	10082	1848.144609992221	1
0	10083	1848.35390783402	0
0	10091	1849.3141827155	1
0	10095	1850.705960671972	0
0	10101	1850.93247471084	1
0	10105	1851.670267751339	2
0	10106	1852.606133235197	1
0	10114	1853.681078587012	2
0	10116	1853.761583940827	3
0	10117	1855.001793429667	2
0	10123	1855.232696411028	3
0	10124	1855.459968071327	2
0	10129	1855.628731280051	1
0	10137	1856.064415272617	2
0	10138	1856.178189624374	1
0	10143	1858.373688866914	0
0	10165	1861.661231773711	1
0	10167	1861.685729260924	2
0	10169	1861.71986804794	3
0	10171	1862.543495698328	2
0	10176	1862.727607036749	1
0	10184	1865.854830918101	2
0	10185	1866.5384192779	1
0	10194	1868.71145526333	2
0	10199	1869.468820220693	3
0	10200	1870.600039200793	2
0	10206	1871.229638280969	3
0	10209	1871.610370000268	2
0	10215	1871.790111889411	1
0	10223	1872.285751971508	2
0	10226	1872.915160496652	1
0	10233	1874.050530652202	2
0	10234	1874.094688385611	1
0	10240	1874.220999766843	2
0	10241	1874.887219869308	1
0	10250	1876.455360883655	2
0	10252	1876.689541693822	3
0	10253	1877.25937595633	2
0	10261	1878.459652992383	3
0	10262	1879.36543530039	2
0	10267	1879.597735377997	1
0	10272	1879.647885372209	0
0	10276	1879.648872989111	1
0	10278	1879.936987672819	2
0	10281	1879.974732805146	1
0	10290	1880.459094480861	2
0	10291	1880.866175953858	1
0	10297	1882.292677700627	2
0	10298	1882.570370712804	1
0	10303	1883.541666250606	0
0	10307	1883.784572337387	1
0	10311	1884.348781600903	2
0	10313	1886.404885689212	1
0	10318	1886.886169961365	0
0	10326	1889.139093805094	1
0	10329	1891.40392690802	0
0	10341	1893.904248614721	1
0	10343	1894.426343052158	2
0	10344	1895.264615323438	1
0	10350	1896.608198884968	2
0	10352	1897.015931582856	3
0	10353	1897.563753708137	2
0	10360	1898.296548403117	1
0	10364	1898.763761799539	2
0	10368	1899.120264279829	3
0	10371	1900.413364108323	2
0	10379	1902.212932940229	3
0	10381	1903.206761812905	4
0	10384	1903.829244694963	3
0	10394	1908.53854412737	4
0	10395	1908.583977654757	3
0	10399	1908.934694134258	4
0	10402	1909.623711174421	3
0	10406	1910.023850375492	4
0	10408	1910.150305944576	5
0	10414	1913.461146258633	6
0	10415	1915.112342108204	5
0	10419	1915.715233896251	6
0	10422	1915.848537682191	5
0	10427	1920.587540344109	4
0	10436	1923.262656808818	3
0	10442	1925.919060773463	4
0	10443	1926.531603811293	3
0	10449	1926.837044063252	4
0	10451	1927.20758730238	3
0	10456	1927.207963026146	2
0	10460	1927.392767781496	3
0	10463	1928.524612190838	2
0	10468	1928.994774735818	1
0	10475	1930.620486421325	0
0	10479	1931.432210616114	1
0	10484	1932.684288015597	0
0	10488	1934.629883934693	1
0	10491	1935.518445622996	0
0	10495	1935.819275282535	1
0	10497	1935.923161863293	2
0	10501	1936.71296736029	3
0	10505	1937.328977598554	4
0	10506	1937.375534246082	3
0	10512	1937.772231530951	4
0	10514	1938.60622925327	5
0	10523	1941.219133156802	4
0	10527	1942.548176608385	5
0	10530	1944.74925107343	4
0	10534	1945.656921271532	5
0	10538	1946.493712686763	6
0	10539	1946.564272403619	5
0	10543	1947.279591245462	6
0	10545	1948.425286598505	7
0	10548	1949.207171252709	6
0	10554	1950.389667374452	7
0	10556	1951.598523268797	8
0	10558	1951.94920079182	9
0	10560	1952.146199835804	10
0	10562	1952.684284769192	11
0	10564	1953.680326309574	12
0	10567	1955.490511633301	11
0	10571	1956.394769824697	12
0	10576	1957.450058598403	11
0	10581	1957.837657393405	10
0	10587	1958.081520540675	11
0	10590	1959.558085885397	10
0	10599	1961.562685570202	11
0	10601	1961.675794842383	12
0	10605	1962.071043286974	13
0	10609	1962.550289268199	12
0	10614	1962.556903494521	11
0	10619	1962.669181807187	10
0	10625	1963.150958678518	9
0	10630	1963.409024622348	8
0	10637	1964.350368382859	7
0	10642	1965.805940941072	6
0	10648	1966.317256932942	7
0	10650	1966.401799631818	8
0	10655	1966.575406060209	9
0	10657	1967.1467696508	8
0	10664	1968.918981322299	7
0	10672	1969.102057475639	8
0	10673	1969.12048140908	7
0	10678	1969.15773414432	6
0	10683	1970.40933978316	5
0	10688	1971.586492705839	4
0	10696	1973.431050988192	5
0	10698	1973.945102797098	6
0	10701	1974.14624818002	5
0	10706	1974.544821828472	4
0	10715	1976.803089307796	3
0	10719	1977.529507230026	4
0	10721	1978.233912920967	5
0	10724	1979.557163378981	4
0	10731	1980.100479874232	3
0	10736	1980.620148320148	2
0	10740	1980.769709810512	3
0	10746	1981.240014990029	4
0	10747	1981.336702745434	3
0	10753	1982.418762919171	4
0	10757	1983.468324827372	5
0	10758	1985.074535427215	4
0	10764	1986.220393684206	5
0	10766	1986.417213965056	6
0	10768	1986.61523655954	7
0	10771	1986.964953762227	6
0	10775	1989.590326450757	7
0	10781	1990.305096067445	6
0	10786	1990.529193048886	5
0	10791	1992.402709099131	4
0	10795	1992.669004711118	5
0	10797	1992.912977378584	6
0	10800	1993.237418454846	5
0	10806	1993.681499632655	6
0	10808	1993.80149030737	7
0	10813	1994.675162530768	6
0	10817	1995.937784036554	7
0	10823	1998.720932009724	8
0	10825	1998.918848570435	9
0	10827	1999.694237041952	10
0	10828	1999.721061647493	9
0	10834	1999.795594522102	10
0	10837	1999.865108803238	9
0	10843	2000.306921295644	10
0	10844	2000.40399927533	9
0	10851	2002.988195425613	8
0	10855	2003.728394293997	9
0	10857	2003.766415710778	10
0	10859	2007.289607682514	11
0	10862	2008.766441335065	10
0	10870	2011.256314060005	9
0	10877	2011.973022752062	8
0	10883	2014.262451209447	9
0	10887	2017.104326275877	10
0	10888	2017.550936931621	9
0	10896	2020.091756056731	8
0	10901	2020.587351884159	7
0	10908	2022.495531983743	6
0	10912	2022.581647076608	7
0	10914	2022.613198559921	8
0	10917	2023.802483338693	7
0	10923	2024.724665122574	8
0	10925	2024.773952433911	9
0	10928	2025.131457237256	8
0	10933	2026.201946521882	7
0	10940	2029.442850174213	6
0	10945	2030.099081101363	5
0	10952	2031.262094230407	4
0	10962	2034.304722917824	5
0	10963	2036.72431432479	4
0	10971	2038.770038033404	3
0	10976	2039.160513247967	2
0	10982	2040.060874084706	1
0	10987	2040.17560911771	0
0	11011	2042.487033294593	1
0	11013	2043.074897535959	0
0	11026	2044.236991445887	1
0	11027	2044.447733364341	0
0	11039	2045.132150584482	1
0	11040	2045.528758315928	0
0	11059	2049.345132939209	1
0	11060	2049.417226954505	0
0	11068	2049.765763348628	1
0	11070	2050.682128037953	2
0	11072	2050.86472978842	1
0	11078	2050.962067666865	2
0	11081	2051.506906019013	1
0	11087	2052.097637625738	0
0	11125	2058.083466623543	1
0	11127	2058.286906715233	2
0	11130	2059.992445889714	1
0	11137	2060.89801625685	0
0	11143	2060.927659755922	1
0	11146	2061.46752234854	0
0	11161	2062.911816373423	1
0	11162	2062.949320029306	0
0	11181	2065.754964174308	1
0	11182	2067.211295229816	0
0	11210	2071.038380268807	1
0	11219	2073.44417653371	0
0	11247	2078.419883026874	1
0	11249	2081.495859226743	2
0	11251	2083.141514589219	3
0	11254	2085.014545501818	2
0	11260	2086.083857784663	1
0	11265	2086.619618529219	0
0	11292	2090.469357242852	1
0	11293	2091.778586812664	0
0	11306	2092.905015387004	1
0	11307	2093.536684116792	0
0	11320	2095.148366375195	1
0	11321	2095.287561145562	0
0	11334	2095.837416131216	1
0	11338	2096.769135900947	2
0	11340	2096.936268316676	3
0	11342	2097.083793060694	2
0	11348	2097.98924294725	1
0	11355	2098.297057500443	0
0	11366	2098.768945899182	1
0	11369	2099.743803812072	2
0	11372	2100.810069481161	1
0	11377	2100.940484192358	0
0	11393	2101.323530799541	1
0	11394	2101.669179944966	0
0	11407	2103.68196364059	1
0	11408	2103.687965711141	0
0	11456	2112.666114674464	1
0	11459	2114.502256536316	0
0	11468	2116.648462357423	1
0	11471	2116.895580363958	0
0	11479	2117.574990727358	1
0	11480	2117.632547658756	0
0	11491	2118.099590996146	1
0	11498	2121.935367203868	2
0	11500	2123.449560500506	1
0	11506	2123.641269891502	2
0	11507	2124.073299459198	1
0	11513	2124.62463205822	0
0	11526	2125.767749945027	1
0	11529	2126.102789843194	2
0	11531	2126.192910301211	3
0	11535	2128.032508014427	2
0	11541	2128.332327069107	3
0	11543	2128.718996317401	4
0	11548	2129.800065040242	3
0	11553	2129.91487441493	2
0	11559	2130.529610839712	1
0	11564	2130.588856511765	0
0	11596	2135.103956278638	1
0	11597	2135.108790687349	0
0	11605	2136.098573234295	1
0	11607	2136.437769081487	2
0	11613	2137.299577460108	3
0	11615	2137.806159601492	2
0	11620	2138.167949865469	1
0	11626	2138.27866066998	2
0	11628	2139.355088575469	1
0	11633	2139.845524698541	0
0	11655	2141.542967114764	1
0	11658	2141.601753130814	2
0	11660	2142.864677928696	1
0	11668	2143.992351930319	0
0	11680	2144.181629984174	1
0	11682	2145.015554152739	2
0	11685	2145.548935884979	1
0	11690	2146.159298161275	0
0	11701	2146.660498010918	1
0	11705	2147.390989024579	2
0	11708	2147.662216811798	3
0	11710	2149.148696642853	2
0	11715	2149.330127571459	1
0	11723	2149.418327059673	2
0	11727	2150.993267614148	3
0	11729	2151.293118492698	4
0	11731	2152.360311643369	3
0	11741	2154.382022938085	4
0	11742	2154.788518028174	3
0	11747	2155.16481202238	2
0	11754	2155.214404543327	1
0	11759	2156.511055569933	0
0	11794	2162.06326297525	1
0	11799	2162.68945293187	2
0	11802	2163.295968722832	3
0	11804	2163.486081532366	4
0	11806	2163.843363194641	5
0	11807	2163.932246768734	4
0	11813	2164.708771100947	5
0	11815	2165.544499219613	4
0	11822	2167.493579919472	3
0	11831	2169.911782509383	2
0	11836	2171.68056245486	1
0	11842	2172.349087867655	0
0	11853	2172.545441599781	1
0	11856	2172.715639016672	0
0	11862	2173.677451126858	1
0	11863	2174.574624492073	0
0	11875	2176.52341346541	1
0	11877	2176.563267002682	2
0	11879	2177.0348202244	1
0	11885	2177.351575516662	2
0	11886	2177.590549464988	1
0	11891	2179.694898750616	0
0	11915	2181.571889948158	1
0	11916	2181.652538192352	0
0	11937	2184.080603944679	1
0	11939	2184.309603150323	2
0	11941	2184.85085977518	3
0	11945	2186.03895910754	4
0	11948	2186.586297813956	3
0	11957	2187.671940030985	2
0	11963	2189.569276316739	3
0	11967	2190.402119670841	2
0	11972	2191.447154942993	1
0	11980	2194.465657750955	2
0	11981	2194.635692819007	1
0	11987	2195.0912640818	0
0	11995	2196.378363927574	1
0	11999	2198.594757032282	2
0	12001	2198.931076057819	3
0	12002	2199.095669501237	2
0	12007	2199.912379220878	1
0	12014	2203.47030938638	2
0	12015	2203.52409149188	1
0	12023	2204.260682347511	0
0	12038	2206.442477612746	1
0	12039	2206.964527414129	0
0	12050	2207.716195724922	1
0	12051	2207.878873328977	0
0	12057	2208.163694612887	1
0	12059	2209.899988368531	0
0	12097	2215.016427637543	1
0	12098	2216.264220720015	0
0	12121	2218.856012733556	1
0	12122	2220.393907247925	0
0	12134	2222.316413350913	1
0	12135	2222.423909873121	0
0	12150	2225.669787082673	1
0	12151	2225.947942847486	0
0	12176	2229.464460659285	1
0	12177	2229.471680816705	0
0	12189	2230.487505176844	1
0	12192	2231.281267643737	2
0	12194	2231.697262504577	3
0	12199	2234.9883270729	4
0	12202	2238.28968120284	3
0	12209	2238.509679322523	2
0	12215	2240.045833957263	1
0	12222	2240.973746313847	0
0	12237	2243.839729187488	1
0	12239	2243.908163446791	2
0	12240	2244.145864118895	1
0	12245	2244.64757175546	0
0	12251	2244.92957485713	1
0	12253	2245.542028243025	0
0	12269	2246.61038413476	1
0	12270	2246.620252869995	0
0	12276	2246.74902009527	1
0	12277	2247.010468670671	0
0	12281	2247.995817735367	1
0	12283	2248.774383646759	2
0	12287	2250.337958187257	1
0	12292	2250.540059491371	0
0	12303	2251.547012682634	1
0	12307	2251.751787853367	2
0	12311	2252.529859660632	3
0	12313	2252.567309891864	4
0	12314	2252.824242042712	3
0	12320	2253.621528510818	2
0	12325	2254.138430534111	1
0	12329	2255.143762123786	2
0	12333	2255.90493348171	3
0	12336	2257.070322891261	2
0	12342	2257.175859464563	3
0	12346	2258.454250618024	4
0	12347	2258.477045695386	3
0	12352	2258.880498141007	2
0	12356	2259.414822083287	3
0	12362	2261.068072955323	2
0	12366	2261.139574095673	3
0	12371	2262.196960018505	4
0	12372	2262.232749828247	3
0	12378	2262.285691149552	4
0	12380	2262.705386561158	3
0	12387	2263.682183585082	2
0	12391	2263.909152253044	3
0	12393	2264.207828680227	4
0	12398	2266.897667014614	3
0	12402	2267.341864321014	4
0	12407	2269.27517219237	3
0	12414	2270.337127348895	2
0	12420	2270.532417994922	3
0	12421	2271.010465297453	2
0	12428	2271.800038236271	1
0	12432	2271.89852971848	2
0	12436	2273.734260119694	3
0	12442	2274.186342420836	4
0	12446	2276.366295696664	5
0	12447	2276.368173804569	4
0	12452	2276.381205797944	3
0	12462	2276.68309912202	2
0	12472	2277.350062677863	3
0	12473	2277.548069719677	2
0	12480	2278.22689888335	1
0	12484	2278.940694935625	2
0	12491	2280.374643191943	1
0	12498	2281.877501919604	0
0	12509	2282.687870676161	1
0	12510	2283.83838739846	0
0	12514	2284.245466925733	1
0	12518	2285.943168568977	2
0	12519	2286.071226211445	1
0	12524	2286.789707772197	0
0	12530	2288.335691872347	1
0	12534	2290.911347816132	2
0	12540	2291.806204490592	3
0	12541	2291.903028188141	2
0	12546	2291.955202216954	1
0	12556	2295.109381644614	0
0	12574	2298.187951083396	1
0	12575	2298.389568905024	0
0	12632	2311.779964270133	1
0	12639	2312.73875479958	0
0	12653	2315.060449705367	1
0	12656	2315.521909805604	0
0	12687	2319.476034060752	1
0	12689	2319.711090527985	0
0	12695	2319.760188817996	1
0	12696	2320.118329744277	0
0	12702	2320.42818648196	1
0	12703	2320.483547808978	0
0	12710	2322.142898768782	1
0	12711	2322.693996013271	0
0	12738	2325.571822235038	1
0	12740	2326.275215157235	2
0	12743	2326.682148383168	3
0	12744	2326.722375917993	2
0	12749	2326.734521057175	1
0	12760	2328.115633328128	2
0	12761	2328.311144886009	1
0	12767	2329.158734701182	2
0	12772	2330.156566502843	3
0	12775	2330.416837195765	2
0	12780	2330.430565035387	1
0	12787	2330.680456809082	2
0	12788	2330.772396909079	1
0	12793	2330.854728141363	0
0	12802	2333.218808754108	1
0	12804	2333.465599835759	0
0	12823	2335.977956926268	1
0	12826	2337.058663091877	0
0	12838	2338.16253774022	1
0	12839	2339.713223785675	0
0	12845	2339.788313849834	1
0	12848	2339.920953529028	2
0	12849	2340.397028338059	1
0	12856	2341.47520381715	0
0	12873	2343.44950666296	1
0	12874	2343.501301918409	0
0	12930	2355.258596418203	1
0	12931	2355.63491102235	0
0	12951	2359.549301082171	1
0	12954	2360.877967167885	2
0	12955	2360.976109061339	1
0	12960	2361.436120340412	0
0	12968	2361.772158591394	1
0	12970	2362.496618371618	2
0	12972	2362.540107597709	3
0	12977	2364.467942970286	2
0	12982	2365.463022699542	1
0	12987	2365.782272280947	0
0	13005	2367.021868058185	1
0	13007	2367.047426798224	2
0	13008	2367.457284374508	1
0	13016	2368.133552146516	0
0	13076	2375.887234846604	1
0	13078	2376.896322951256	0
0	13084	2376.933096775521	1
0	13086	2377.282221955938	0
0	13116	2379.69585861287	1
0	13123	2381.846161180075	2
0	13124	2382.227350511508	1
0	13129	2383.368209402342	0
0	13150	2388.462097935317	1
0	13152	2388.752350139993	2
0	13153	2389.918772990711	1
0	13158	2390.295374444589	0
0	13171	2391.553264962688	1
0	13173	2391.599899276266	2
0	13175	2391.646364102391	3
0	13177	2393.031538493884	4
0	13179	2393.301780027925	5
0	13187	2395.214410200886	6
0	13188	2395.508045035213	5
0	13195	2395.866789682617	4
0	13200	2396.36485642052	3
0	13206	2397.281682975794	4
0	13207	2397.31312860567	3
0	13211	2397.377921553563	4
0	13215	2398.766537777157	3
0	13219	2399.077603353478	4
0	13222	2401.412810879231	3
0	13228	2402.254746425261	4
0	13234	2404.086586710357	5
0	13236	2404.131769033519	6
0	13237	2405.067695491145	5
0	13243	2405.231623481595	6
0	13245	2406.016411886634	5
0	13254	2407.405744523064	4
0	13259	2407.543310529599	3
0	13264	2407.593141373756	2
0	13269	2407.980502578733	1
0	13274	2408.049397340535	0
0	13278	2408.874527871926	1
0	13280	2409.282716142467	2
0	13282	2409.308791782787	3
0	13286	2409.947892003602	2
0	13293	2410.619026913188	3
0	13294	2410.912206134631	2
0	13299	2411.148020371172	1
0	13306	2413.436646405596	0
0	13317	2414.514602060169	1
0	13319	2414.739262898877	0
0	13332	2416.360304249385	1
0	13333	2416.8894776539	0
0	13341	2417.823712490861	1
0	13343	2417.987062287744	2
0	13344	2419.143519259941	1
0	13349	2419.208162815073	0
0	13353	2419.953212470352	1
0	13355	2420.808776557595	2
0	13361	2423.473219121103	1
0	13366	2424.053048864983	0
0	13390	2427.572019946714	1
0	13394	2429.105223388047	0
0	13427	2435.358629253892	1
0	13428	2435.37307319825	0
0	13439	2436.290789220309	1
0	13440	2436.418605824302	0
0	13446	2437.042683940157	1
0	13447	2437.225239583074	0
0	13456	2439.450509850742	1
0	13457	2439.6533437779	0
0	13491	2444.636356548242	1
0	13496	2446.230621686019	0
0	13502	2446.610720598412	1
0	13503	2446.931895584261	0
0	13519	2448.739529802347	1
0	13525	2450.398125873421	2
0	13527	2451.168381476349	1
0	13533	2451.207006609225	2
0	13534	2452.062219411171	1
0	13538	2453.318182787358	2
0	13540	2454.821097031332	3
0	13543	2456.33324537551	2
0	13548	2456.897345930878	1
0	13553	2457.55861938435	0
0	13564	2460.276197370567	1
0	13566	2460.671238289015	0
0	13592	2465.125008140092	1
0	13597	2466.343452718058	2
0	13599	2466.797605673715	1
0	13605	2466.911799140763	2
0	13606	2467.16429516044	1
0	13612	2467.344743537879	2
0	13616	2468.363885714967	3
0	13618	2469.747286760674	4
0	13619	2470.232354947113	3
0	13624	2470.595961828761	2
0	13632	2470.869767663164	3
0	13635	2471.480191296723	4
0	13636	2471.566362157569	3
0	13641	2472.742631321909	2
0	13646	2472.931455788802	1
0	13651	2473.49332633438	0
0	13657	2474.664479459641	1
0	13659	2475.262704132575	2
0	13661	2475.700963950839	3
0	13666	2477.210468863453	2
0	13671	2477.257448770103	1
0	13676	2478.64984608969	0
0	13693	2479.536459438058	1
0	13694	2480.039532559459	0
0	13752	2489.199004280719	1
0	13755	2489.58921579466	0
0	13765	2490.710758606538	1
0	13767	2491.599464044385	0
0	13786	2493.518313252929	1
0	13787	2494.149460941886	0
0	13806	2495.802212055728	1
0	13810	2496.670593810034	2
0	13811	2497.743652414214	1
0	13816	2498.024935048576	0
0	13822	2498.31318874494	1
0	13823	2498.641154924259	0
0	13836	2501.760802962552	1
0	13839	2501.973266233018	0
0	13850	2502.656383792808	1
0	13854	2503.342410673527	0
0	13860	2504.009375387846	1
0	13863	2504.56330887784	0
0	13867	2505.04437769837	1
0	13871	2508.638893030676	2
0	13872	2509.76348298875	1
0	13878	2512.035092839882	2
0	13880	2512.047991643758	3
0	13882	2513.336976922692	2
0	13887	2513.403633364138	1
0	13893	2514.244698196233	2
0	13896	2514.50775422562	3
0	13897	2514.556272629714	2
0	13903	2515.194222058033	1
0	13910	2517.549009581308	2
0	13912	2517.677702092874	3
0	13914	2518.097519351808	4
0	13916	2519.29045678041	3
0	13922	2519.56793163974	4
0	13923	2519.635159232724	3
0	13928	2520.589614362794	2
0	13937	2522.221928580311	3
0	13939	2522.920069206582	2
0	13944	2523.155229726938	1
0	13949	2523.472912440353	0
0	13984	2529.476692832576	1
0	13986	2530.017423998194	2
0	13989	2530.499985195917	1
0	13994	2530.688128062597	0
0	14015	2534.480988907774	1
0	14018	2535.704406611354	2
0	14020	2536.368209872429	1
0	14025	2536.760460072225	0
0	14029	2537.215821748073	1
0	14035	2539.621747762116	0
0	14090	2552.66167680075	1
0	14092	2554.258307570355	2
0	14094	2554.420763579323	3
0	14100	2556.072464397291	4
0	14101	2556.123422284026	3
0	14106	2556.407871626029	2
0	14112	2556.646632139599	1
0	14117	2556.704922364634	0
0	14145	2560.331449481666	1
0	14150	2561.366633203458	0
0	14175	2563.443250531302	1
0	14177	2565.46689895856	2
0	14178	2565.580524904549	1
0	14182	2565.960545831259	2
0	14184	2566.808231461763	3
0	14187	2566.914762934211	2
0	14196	2569.052161741337	3
0	14198	2570.093622360493	2
0	14204	2570.119846416466	3
0	14207	2570.405278857222	2
0	14212	2570.688399215119	1
0	14220	2571.38503641046	0
0	14228	2572.104483179337	1
0	14229	2572.284456406975	0
0	14249	2575.05756686227	1
0	14254	2576.164973566509	2
0	14256	2576.437539737891	3
0	14257	2576.49133435227	2
0	14262	2576.709642186751	1
0	14268	2577.017521559645	2
0	14270	2578.943324353489	3
0	14274	2579.986868495505	4
0	14275	2580.535707869478	3
0	14281	2582.680096932546	2
0	14288	2584.153766048331	3
0	14290	2584.71040901956	2
0	14295	2585.338548846047	1
0	14302	2586.662888809812	0
0	14325	2591.362939859452	1
0	14329	2594.705188757038	0
0	14333	2594.715753571127	1
0	14336	2595.061903647019	0
0	14342	2596.153760494582	1
0	14344	2596.612702897701	2
0	14347	2598.218787129365	1
0	14351	2598.721354651737	2
0	14353	2600.681700842042	3
0	14356	2602.029767670288	2
0	14363	2603.451162477663	3
0	14367	2607.434007351018	2
0	14372	2607.989712339397	1
0	14377	2608.960034183864	0
0	14381	2609.378020462994	1
0	14384	2612.912006712256	0
0	14430	2621.338237618292	1
0	14436	2623.502865579587	0
0	14454	2625.18961854556	1
0	14456	2625.997951615041	2
0	14457	2626.021433840602	1
0	14463	2626.166869250822	2
0	14465	2626.738586572626	3
0	14468	2628.650666098573	4
0	14469	2628.903025479172	3
0	14474	2629.019681980682	2
0	14481	2629.297646777692	3
0	14482	2629.493479430832	2
0	14488	2629.711712748097	1
0	14493	2629.760664014862	0
0	14516	2633.123677901004	1
0	14518	2633.141944454045	2
0	14519	2633.215043881098	1
0	14525	2633.758484480859	0
0	14538	2635.3784022868	1
0	14539	2635.680439393894	0
0	14579	2640.964655246907	1
0	14580	2642.629297629183	0
0	14596	2644.627283005726	1
0	14599	2645.890068755663	0
0	14615	2647.562387465765	1
0	14623	2648.509087671059	2
0	14625	2648.729695928287	3
0	14628	2649.398935481061	4
0	14630	2649.975860810148	5
0	14632	2650.140769167612	6
0	14633	2650.393747859482	5
0	14638	2651.504415981032	4
0	14644	2652.160929491307	5
0	14646	2653.052287414798	4
0	14652	2653.586867168672	3
0	14660	2654.861795782275	2
0	14669	2655.279406744252	1
0	14675	2655.935480434084	0
0	14681	2656.559179687147	1
0	14683	2656.718427555601	2
0	14688	2657.761699024013	1
0	14693	2658.525643079141	0
0	14721	2662.575773092128	1
0	14722	2663.120841538891	0
0	14728	2663.38234153006	1
0	14730	2663.60189832516	2
0	14731	2663.707520748521	1
0	14737	2664.172823260269	0
0	14757	2666.029126477289	1
0	14760	2668.046627181126	0
0	14774	2668.894033295012	1
0	14782	2671.678238892249	0
0	14788	2671.69103365963	1
0	14790	2672.242695706207	2
0	14791	2672.40946603661	1
0	14804	2675.837977452742	2
0	14805	2677.386355116524	1
0	14810	2678.51635011314	0
0	14816	2679.287362374781	1
0	14817	2679.988383174685	0
0	14823	2681.171669623972	1
0	14824	2682.018079013062	0
0	14837	2684.233692385835	1
0	14840	2685.115975343034	0
0	14851	2686.218004618182	1
0	14863	2687.472972657414	2
0	14868	2690.368920484543	3
0	14874	2691.895458460708	2
0	14881	2692.755100910451	3
0	14883	2692.931153033802	4
0	14890	2694.853990860643	3
0	14895	2695.470004984698	2
0	14900	2695.714018256177	1
0	14907	2697.189891395825	0
0	14924	2697.434797919696	1
0	14927	2698.131520524813	2
0	14929	2698.818207216476	1
0	14935	2699.414857729949	0
0	14965	2701.736113383249	1
0	14968	2702.282105337722	2
0	14969	2702.455591457547	1
0	14977	2703.658038638153	2
0	14978	2703.776687522216	1
0	14984	2704.885848689926	0
0	14990	2705.081843303641	1
0	14991	2705.195776170895	0
0	15003	2706.734029681755	1
0	15009	2709.969284468319	0
0	15016	2711.331981439658	1
0	15017	2711.380791460451	0
0	15030	2712.047620671495	1
0	15033	2713.284761698113	0
0	15042	2713.694409635189	1
0	15045	2714.780992904318	0
0	15054	2715.299331660742	1
0	15058	2715.357587368776	2
0	15060	2716.381272762189	3
0	15065	2717.576089428171	2
0	15070	2717.654144795764	1
0	15078	2719.629261531757	0
0	15084	2720.233208467668	1
0	15085	2720.372676126786	0
0	15115	2725.461769805693	1
0	15117	2725.589300435727	2
0	15121	2727.021743741301	3
0	15122	2727.383506214626	2
0	15129	2728.462760159692	3
0	15130	2729.734710773355	2
0	15135	2729.882265512624	1
0	15139	2730.377275463571	2
0	15141	2730.470621174943	3
0	15146	2732.532022779153	2
0	15151	2732.581554477258	1
0	15159	2738.053232676499	2
0	15162	2739.147471110701	1
0	15170	2742.770162749989	0
0	15190	2746.312993606343	1
0	15191	2746.883425315554	0
0	15214	2748.04281321822	1
0	15216	2748.280760465802	2
0	15219	2750.26782011142	1
0	15225	2751.19405537842	0
0	15250	2755.908350452598	1
0	15254	2756.30930561028	2
0	15257	2757.896019965456	3
0	15258	2759.247282282571	2
0	15264	2759.494524214244	3
0	15267	2760.943283769103	2
0	15272	2761.089957508651	1
0	15281	2763.380601080737	0
0	15303	2764.174586401108	1
0	15304	2764.445833777819	0
0	15317	2765.008545191845	1
0	15322	2765.78508377737	2
0	15324	2765.847509708682	1
0	15329	2765.913764244544	0
0	15367	2770.950132566201	1
0	15368	2771.205430378335	0
0	15374	2771.393615623247	1
0	15375	2771.422353641286	0
0	15392	2772.719687163321	1
0	15393	2772.957494069568	0
0	15399	2773.120189293933	1
0	15401	2773.196257336526	2
0	15402	2773.259745658866	1
0	15408	2773.354204924204	2
0	15409	2773.407891578036	1
0	15415	2774.011637837519	2
0	15417	2774.248490449036	1
0	15423	2774.342296710094	2
0	15424	2775.247653150989	1
0	15429	2776.646154235402	0
0	15433	2776.875531297196	1
0	15437	2777.20221574355	2
0	15442	2777.68075357046	1
0	15446	2778.098198156044	2
0	15449	2778.918419051265	1
0	15457	2780.586051392615	2
0	15459	2780.622070520749	3
0	15461	2781.039505870765	4
0	15462	2781.081484215667	3
0	15466	2781.59295878235	4
0	15468	2781.740542881053	5
0	15472	2783.105773828671	4
0	15478	2783.442653228216	5
0	15480	2783.808910561854	4
0	15487	2784.799241935673	3
0	15492	2785.854955354356	2
0	15497	2787.009540783887	1
0	15504	2788.383187138129	0
0	15510	2788.81620673998	1
0	15516	2789.603434126801	0
0	15522	2790.198632095488	1
0	15523	2790.975388236671	0
0	15553	2796.147081146823	1
0	15554	2796.896470454335	0
0	15571	2797.957729865858	1
0	15572	2798.219292325296	0
0	15578	2798.400971866367	1
0	15580	2798.538369749109	2
0	15581	2799.602047595989	1
0	15586	2799.844171585381	0
0	15605	2801.107297733673	1
0	15608	2801.870369149343	2
0	15609	2801.921521938773	1
0	15614	2802.418061618784	0
0	15629	2804.567392347716	1
0	15633	2805.856431355065	0
0	15642	2806.411880524841	1
0	15646	2807.449411050407	0
0	15659	2808.795328529467	1
0	15663	2809.647113178562	2
0	15668	2810.819949514194	1
0	15673	2810.89789784163	0
0	15684	2811.302635701993	1
0	15686	2811.457349272864	0
0	15715	2816.250542329915	1
0	15717	2816.825100123331	0
0	15732	2817.698636810162	1
0	15734	2818.459349130213	2
0	15735	2818.520807512675	1
0	15741	2819.225791813217	0
0	15802	2828.417487157334	1
0	15803	2828.980223480423	0
0	15841	2833.630534618038	1
0	15843	2833.70491300145	0
0	15859	2837.838764905044	1
0	15861	2840.670127477626	2
0	15865	2841.91116459956	1
0	15874	2842.837561764176	2
0	15877	2843.707648663762	3
0	15879	2844.383022271277	2
0	15884	2844.400706146319	1
0	15892	2844.755054176111	0
0	15896	2845.020485222844	1
0	15902	2846.00665099923	0
0	15935	2850.353274458255	1
0	15938	2851.942418139771	0
0	15956	2853.523156123722	1
0	15958	2854.072512202168	2
0	15962	2854.550502285447	3
0	15963	2854.989361212224	2
0	15969	2855.048444997768	3
0	15971	2855.299324762711	2
0	15978	2855.945401753133	1
0	15983	2856.052789240747	0
0	15989	2856.589824982038	1
0	15990	2858.047601996697	0
0	15994	2858.340267351702	1
0	15996	2858.5317270074	2
0	15998	2858.94728678114	3
0	16001	2860.222007456075	2
0	16007	2860.903521537421	3
0	16013	2862.087579501056	4
0	16016	2862.617747331256	3
0	16024	2864.827689833993	2
0	16031	2865.707702190093	1
0	16035	2866.333425323373	2
0	16040	2869.54764180532	1
0	16047	2875.384775389782	0
0	16070	2878.834442168692	1
0	16072	2879.127490087815	2
0	16076	2880.625445083181	1
0	16081	2881.234986670422	0
0	16092	2881.785190597124	1
0	16093	2882.023348405649	0
0	16120	2885.398676780415	1
0	16123	2886.855323266463	2
0	16124	2887.111839036223	1
0	16131	2887.798732332339	0
0	16148	2889.459585431363	1
0	16149	2889.476073917351	0
0	16155	2889.574459491025	1
0	16156	2889.601838678228	0
0	16184	2891.973440872503	1
0	16185	2892.117420357801	0
0	16201	2894.203985454886	1
0	16202	2894.352066103975	0
0	16247	2900.32925599074	1
0	16249	2901.143327951457	2
0	16253	2901.540407494368	3
0	16255	2902.082999529964	2
0	16261	2902.089830120714	3
0	16262	2902.401226259629	2
0	16268	2903.000737568256	1
0	16276	2903.929052707894	0
0	16282	2904.116369326834	1
0	16283	2904.317058250296	0
0	16289	2905.269145316691	1
0	16295	2907.957634485817	2
0	16296	2908.055521407735	1
0	16300	2908.933827973197	2
0	16306	2909.373770930173	1
0	16311	2910.545277040693	0
0	16321	2911.619061384872	1
0	16324	2911.789285377994	2
0	16325	2911.958025959778	1
0	16330	2912.049117016236	0
0	16334	2912.266388762815	1
0	16336	2913.441644857064	2
0	16339	2914.230873158277	1
0	16345	2914.93781560012	0
0	16349	2914.998959355909	1
0	16353	2916.09484243947	2
0	16357	2916.299551169694	1
0	16362	2916.884999044487	0
0	16373	2918.208570671037	1
0	16374	2918.425990518446	0
0	16380	2918.46604787317	1
0	16381	2920.588716787357	0
0	16385	2921.72716430829	1
0	16389	2923.17168141393	0
0	16406	2924.586050184045	1
0	16408	2924.612795553972	2
0	16410	2924.772072349234	3
0	16411	2924.831192139577	2
0	16420	2925.352222774319	3
0	16422	2925.475691129701	4
0	16423	2925.479126154643	3
0	16429	2927.13464022404	4
0	16435	2927.570350880956	5
0	16436	2927.677515882128	4
0	16443	2928.948211594104	3
0	16454	2932.9617870899	4
0	16455	2933.161332304138	3
0	16460	2934.416520679974	2
0	16465	2934.42400296819	1
0	16472	2935.108997585774	0
0	16523	2941.356695907048	1
0	16525	2941.537207299644	2
0	16530	2944.995718153819	1
0	16537	2945.307329555218	0
0	16543	2945.562909287286	1
0	16547	2946.519047751986	0
0	16553	2946.959922085468	1
0	16556	2947.513649131741	2
0	16557	2948.124795988575	1
0	16565	2948.795959923503	0
0	16571	2949.022453786062	1
0	16573	2949.104738849034	2
0	16578	2949.7819956465	3
0	16579	2950.029686548368	2
0	16585	2950.24522037544	1
0	16591	2951.43072175918	2
0	16592	2951.432290184617	1
0	16598	2951.993146915852	2
0	16599	2952.977843251549	1
0	16604	2954.817883058398	0
0	16610	2954.991380448044	1
0	16612	2955.141431327147	2
0	16616	2956.130261723743	3
0	16618	2956.283315803258	4
0	16619	2956.931898397998	3
0	16624	2957.396463392602	2
0	16629	2957.490923359015	1
0	16635	2962.378010013505	2
0	16638	2963.210402302647	1
0	16643	2964.234275435131	0
0	16647	2964.25906297824	1
0	16652	2965.248319506855	0
0	16658	2965.551549538231	1
0	16660	2965.719564487587	2
0	16661	2966.341150412884	1
0	16666	2966.419566678898	0
0	16693	2970.347259561633	1
0	16697	2971.81042771018	2
0	16699	2973.116434067084	3
0	16700	2974.288091027082	2
0	16706	2974.842653968029	1
0	16711	2975.205450966916	0
0	16730	2975.985923354025	1
0	16732	2976.74512638671	2
0	16736	2977.521135945878	3
0	16737	2977.581616186348	2
0	16742	2977.784988849196	1
0	16748	2978.812705364315	2
0	16749	2978.941449951552	1
0	16754	2980.674083358886	0
0	16758	2980.713204846016	1
0	16761	2980.982427811477	0
0	16769	2982.768609514323	1
0	16772	2982.90629296252	0
0	16787	2984.778680664485	1
0	16792	2986.631410629572	0
0	16801	2987.762893855117	1
0	16805	2988.832002775276	0
0	16827	2990.291637488455	1
0	16829	2990.427144383442	2
0	16835	2991.32571224718	3
0	16836	2991.475734895469	2
0	16842	2991.83787198223	1
0	16847	2991.943958408422	0
0	16864	2994.079454199307	1
0	16868	2995.709134408314	2
0	16869	2995.855421011701	1
0	16874	2996.468987294486	0
0	16893	2997.36475446132	1
0	16894	2997.618309689871	0
0	16904	2998.842946012522	1
0	16905	2999.241135125985	0
0	16928	3001.367328852115	1
0	16932	3004.715813977598	2
0	16934	3005.329414120898	3
0	16939	3005.703376910558	2
0	16945	3006.251967488432	1
0	16953	3006.910051845912	2
0	16955	3007.035526215216	1
0	16962	3008.15057974506	0
0	16978	3008.818709322414	1
0	16980	3010.634467953802	0
0	16991	3011.344702529765	1
0	16992	3012.011933004956	0
0	17017	3015.130238307532	1
0	17019	3015.478743865153	0
0	17030	3016.582135240828	1
0	17032	3017.532210908525	2
0	17036	3019.381929131982	3
0	17038	3019.533342122156	4
0	17039	3019.596248895492	3
0	17043	3020.01731653242	4
0	17046	3020.760576633859	3
0	17051	3022.551281323689	2
0	17055	3023.650550941505	3
0	17057	3024.483133530875	4
0	17060	3025.254109352196	3
0	17065	3026.147279225104	2
0	17071	3027.329346217564	3
0	17073	3027.565650021826	2
0	17082	3028.358732322987	1
0	17091	3030.687132582961	0
0	17095	3030.762407421474	1
0	17098	3031.915756668231	0
0	17119	3032.858872296224	1
0	17120	3033.563012872263	0
0	17131	3035.069640927523	1
0	17134	3035.967054587352	0
0	17148	3036.710841234237	1
0	17151	3037.318283398853	0
0	17155	3039.294459006317	1
0	17157	3039.349060996238	2
0	17160	3041.514627124675	1
0	17165	3042.749006193085	0
0	17179	3045.619238867222	1
0	17181	3045.637381419391	2
0	17183	3047.303104994837	3
0	17184	3047.786992332744	2
0	17189	3047.885773924588	1
0	17195	3048.477879112487	2
0	17197	3049.46310614355	3
0	17200	3049.57531765867	2
0	17206	3050.747305695812	3
0	17209	3052.122525215937	4
0	17216	3058.824547925371	3
0	17220	3059.305849584802	4
0	17224	3061.090164572121	5
0	17225	3061.145461574795	4
0	17229	3061.338619871498	5
0	17231	3061.388945126379	6
0	17233	3061.785024171713	7
0	17236	3064.642654863019	6
0	17241	3065.241095983428	5
0	17249	3066.951243491685	4
0	17257	3067.83857462825	3
0	17262	3068.156604264808	2
0	17268	3069.190959978396	1
0	17273	3069.199438885913	0
0	17277	3069.447129138791	1
0	17279	3070.046474589331	2
0	17283	3070.187213548749	3
0	17285	3070.464633743331	4
0	17287	3070.800813705973	5
[...]
5	163646	28426.298168071286	463.94620676009
5	163651	28426.483869979871	456.94864515394
5	163656	28426.855330302313	448.4483270405
5	163670	28430.089572646729	448.20125861525
5	163842	28458.518065188839	474.02668636114
5	163847	28458.650665277849	467.83385187541
5	163854	28459.409883814294	464.11077361839
5	163859	28460.500647127848	463.03626494205
5	163865	28460.939145211598	460.03912162343
5	163870	28462.295794456621	460.96536885687
5	163877	28463.460599898599	461.64265591457
5	163895	28465.37561719098	451.70958474249
5	163915	28467.804194653286	416.05554255176
5	163930	28470.202104218263	417.40104891639
5	164256	28547.812709042574	491.06738010284
5	164264	28548.704763107503	486.68891489838
5	164274	28549.100635891707	481.95479115014
5	164292	28550.883980167868	483.65578695397
5	164297	28551.150485731068	483.63695261302
5	164303	28551.594088902354	480.70114932163
5	164314	28555.144273848106	483.65247718764
5	164337	28561.301920896865	488.84737734784
5	164351	28563.053857904183	486.83374860407
5	164367	28564.301209597636	480.06465926792
5	164401	28569.728348969698	481.73823046651
5	164414	28570.717827547819	475.68866967056
5	164464	28576.891060464675	477.83137033757
5	164469	28577.000313597256	474.18099315232
5	164482	28580.861002158306	477.55983579096
5	164507	28585.231999847419	475.10184210139
5	164515	28586.641209371954	464.50189977822
5	164525	28587.022427060684	464.11934841008
5	164531	28588.306682534847	462.85074177929
5	164538	28589.312139758259	462.72465136584
5	164543	28589.318285036169	459.25666765825
5	164548	28589.333154360371	455.68561287632
5	164557	28591.355932681844	457.39436968167
5	164564	28591.664737935384	440.4314633885
5	164575	28593.592588920185	436.177585081
5	164584	28596.261522447827	437.32430650946
5	164600	28597.510251807286	437.61190571924
5	164621	28600.357536968319	438.67756540715
5	164656	28602.16242789481	436.22373725618
5	165137	28693.133306390934	526.03004122311
5	165176	28697.741613348871	528.75576924494
5	165181	28698.03901021226	528.10255861748
5	165186	28698.454920277369	524.05578778008
5	165193	28700.534440263701	511.65249874311
5	165203	28700.679512695252	495.76399527532
5	165216	28703.669094974474	497.61068284958
5	165257	28711.759983742032	499.60474847635
5	165296	28716.3899961163	501.87457148898
5	165301	28716.615812114241	494.83373949768
5	165309	28717.789443667342	492.29551883337
5	165345	28723.025501216002	495.93316775471
5	165350	28724.696763379639	495.72919333834
5	165359	28725.582490397367	496.29406923061
5	165373	28727.17874158685	497.76410200485
5	165379	28727.800410731376	496.81029062647
5	165384	28727.827680956321	492.67240813903
5	165393	28728.706093142357	489.83249544791
5	165418	28734.136975377889	494.36651386711
5	165907	28838.479851699349	595.86499741932
5	165917	28839.652540220091	596.16240970628
5	165929	28840.981451765259	590.54008812563
5	165934	28841.244298646558	589.92550673252
5	165941	28841.743951416899	575.52803663242
5	165950	28843.5088126606	576.074005293
5	165964	28846.577896815351	576.69698163355
5	165979	28847.584884301494	572.4991978646
5	165992	28849.11134006699	568.91878315655
5	166031	28852.695488541004	565.54659929156
5	166039	28853.183003417886	561.79517073802
5	166049	28857.363604930002	563.24510238477
5	166054	28857.475945281479	561.59100017787
5	166061	28858.496865092281	561.63715653024
5	166067	28859.365059474604	561.63743453237
5	166074	28859.791805313438	559.05879468436
5	166082	28863.352447222826	558.95028793161
5	166094	28865.560460585505	560.76155845161
5	166099	28865.728974000343	559.57610789063
5	166110	28869.573248321745	559.93295464712
5	166126	28873.167356823642	556.40113315404
5	166131	28874.281484133675	557.01518689929
5	166142	28876.261174324746	553.93979614637
5	166153	28878.327509762006	555.22798547359
5	166162	28880.567377930493	553.66946344964
5	166180	28882.590020143297	543.64239769228
5	166196	28885.505492780037	542.3794031611
5	166221	28888.303130329326	544.27527468677
5	166229	28889.052808322516	543.14375417396
5	166239	28890.188550100099	537.02734638038
5	166250	28892.483907516348	536.58132936058
5	166337	28901.916195206877	537.45471801559
5	166342	28901.980195751834	531.27111994953
5	166348	28903.468569041718	532.36027799295
5	166355	28907.598813248773	524.09153804736
5	166372	28912.094222577981	521.52456751375
5	166419	28917.711635713377	523.78702718613
5	166424	28917.745254993115	521.96882500155
5	166430	28918.201154052677	520.86757083088
5	166435	28920.480355934593	523.09603082232
5	166445	28924.82827158237	525.41817660466
5	166470	28927.356704362491	525.25210535118
5	166476	28927.764724234128	525.13890487836
5	166485	28929.807444031122	523.27658588432
5	166495	28931.786486275825	517.6979212133
5	166509	28932.818224044051	515.0219203324
5	166639	28954.77732769562	535.09644040355
5	166645	28955.097961859689	532.74066535659
5	166650	28955.410437629554	532.40268985791
5	166660	28957.730014107636	531.63364320686
5	166670	28958.435063735948	531.03002927504
5	166679	28964.545187846371	533.20882190375
5	166722	28969.981330791469	535.0991730041
5	166897	29006.761599278307	570.89715419799
5	166912	29008.876785956993	572.89166842208
5	166957	29013.764251640624	577.04031627236
5	166964	29013.986653961013	575.73024702055
5	166972	29016.170037616305	573.92130734104
5	166977	29016.226889347539	571.79896668011
5	166987	29018.934193444063	572.77818104729
5	167000	29019.698375018197	572.8955947681
5	167020	29021.406673421793	574.33675206452
5	167025	29021.848299078535	569.56206693204
5	167034	29022.636090242997	570.34292002264
5	167065	29025.128649200816	566.91548559623
5	167085	29026.934395494727	567.96364826502
5	167090	29026.987532991017	562.87918557908
5	167097	29028.184145953943	558.23265129744
5	167103	29028.265152206837	545.88652671112
5	167117	29032.381804771778	542.10268894358
5	167122	29032.438254125353	526.76318230064
5	167127	29033.045084948909	522.5441530052
5	167144	29036.463641683905	513.51924229777
5	167174	29039.566561930832	515.09179848147
5	167204	29041.501350755276	510.46141181818
5	167229	29045.740869619728	514.47237092758
5	167587	29108.675514457067	575.96499520304
5	167605	29109.664540469033	568.91199891848
5	167613	29110.247429822859	566.00960112769
5	167618	29110.353027472666	555.43590456272
5	167627	29111.038433862628	554.52208610911
5	167652	29114.915167621762	551.18831595696
5	167675	29118.893927409327	551.00908563217
5	167782	29136.686265890728	562.1894573799
5	167788	29138.170291281846	560.37886383108
5	167794	29140.046246957238	556.21332103328
5	167800	29140.455891528451	556.14711745852
5	167807	29141.491413944642	556.99596935984
5	167818	29144.468960527974	550.16402849744
5	167834	29145.338326595915	548.95501287184
5	167839	29145.455515532865	548.46677581626
5	167863	29151.247473692627	551.27427179825
5	167950	29163.133930467567	562.68737797799
5	167972	29166.199449886915	554.18765808653
5	167977	29166.329287253678	551.94505619748
5	167983	29167.626645036392	553.22577225001
5	167988	29167.896890523891	549.8432636341
5	167995	29169.976074733278	548.21528405674
5	168006	29171.712502843373	547.39609711839
5	168028	29176.183849367932	548.62735596341
5	168033	29176.502066208456	543.25769914402
5	168042	29176.82749332691	535.45273661776
5	168054	29177.225223559878	524.69739316753
5	168068	29178.747506965885	521.79477107849
5	168076	29179.785342658139	512.77018737831
5	168110	29185.022050665857	514.38196103429
5	168120	29185.178198116289	512.63631068327
5	168125	29185.80370424372	512.51995752539
5	168131	29186.353899228348	513.01594592101
5	168136	29186.439173704519	512.28949323586
5	168143	29188.348832495092	502.1887836361
5	168157	29192.705806909243	501.93812768049
5	168177	29193.639123962178	499.84634858466
5	168512	29266.781781936954	570.22362019743
5	168522	29267.50506355334	563.92158209832
5	168535	29268.035474010869	562.82541451968
5	168551	29269.778804415281	556.15914105285
5	168564	29270.570128782165	552.65202556932
5	168578	29274.873156296971	546.43124378762
5	168603	29277.560082196797	544.84833707507
5	168608	29277.730143345703	544.173055749
5	168621	29279.18644364688	544.27363090098
5	168636	29280.095225470534	543.59998224414
5	168641	29280.2841991937	534.2073101438
5	168646	29280.298291500813	534.00897355899
5	168665	29284.678087893153	533.66340893907
5	168686	29285.772478344157	531.89569216048
5	168692	29286.765023491685	530.30992980981
5	168702	29288.38569170667	531.79246473897
5	168729	29292.827268478951	528.18414428209
5	168741	29294.264841836541	528.58169084617
5	168746	29294.888579145282	528.52298635856
5	168751	29295.528664077302	528.13212220831
5	168767	29302.922597515102	533.92435369125
5	168800	29306.965731104067	534.79053921218
5	168805	29306.974631816962	526.74007354294
5	168812	29309.412377915218	528.82215090811
5	168821	29312.082285169761	527.48810075537
5	168884	29318.979656749316	527.53667961184
5	168890	29319.079215342315	526.51945836621
5	168899	29320.453367181233	524.74471696823
5	168925	29323.319654384896	525.07864583339
5	168935	29324.268338014793	520.43543021195
5	168947	29325.271796166075	507.12901833937
5	168961	29328.188974827405	493.74399547579
5	168966	29328.758531739428	490.07879056044
5	168975	29330.879946084982	489.18459243228
5	168989	29331.293657933847	484.48544173439
5	169001	29332.175690731496	483.83757654956
5	169010	29334.261733528698	481.59080791819
5	169027	29336.59881386528	478.6631367985
5	169048	29337.96759423758	474.54232971698
5	169088	29342.126752731931	473.66968395623
5	169097	29343.588478567141	473.37720772576
5	169115	29345.23611112798	473.38267384951
5	169120	29345.734445598818	470.60829850869
5	169128	29346.478087966358	470.69641876279
5	169134	29347.018467492825	466.29760264327
5	169139	29348.018385192531	465.07167459413
5	169152	29350.296448894972	465.68695032185
5	169168	29352.97593225615	466.23428844131
5	169183	29354.776420455444	462.62129949228
5	169210	29356.339125344779	461.49397459344
5	169219	29359.739769663477	449.20468032085
5	169242	29362.246001988745	445.4053278435
5	169249	29362.677750982131	430.34264198741
5	169254	29362.779209502408	430.43588642827
5	169259	29363.297640264881	430.82728429839
5	169268	29365.311816633747	431.19008406223
5	169296	29369.288626564956	430.36442523235
5	169306	29372.854704066562	432.09215268163
5	169313	29373.081451253035	431.70298051898
5	169322	29373.45875000439	423.05464493515
5	169339	29377.297240534465	425.66242333268
5	169450	29395.187972321159	429.21203575152
5	169477	29402.319482509622	434.19758886878
5	169494	29404.670113429007	435.72372743458
5	169545	29412.113085734444	437.75996466247
5	169550	29412.460590875872	432.88765483769
5	169564	29413.781555167478	430.85054315342
5	169591	29415.659533904491	426.45661670461
5	169602	29416.341240337712	421.08016813966
5	169609	29416.535764068635	420.5984478744
5	169620	29419.585572972811	422.69183005968
5	169632	29420.471742452578	418.81776900857
5	169642	29420.863546843457	415.42395274615
5	169649	29421.018754165394	409.43369852744
5	169675	29426.228190751834	413.74710069714
5	169680	29426.480786312267	411.53460308402
5	169687	29428.570288714953	412.15817743271
5	169692	29428.709847194604	404.66483721922
5	169701	29428.955964002343	402.65331890274
5	169739	29438.727845949688	408.45400942902
5	169814	29448.345390058058	417.51479766105
5	169819	29448.799602593432	415.08187452466
5	169827	29452.152203678951	418.38504228693
5	169853	29454.179736982672	414.9324787655
5	169860	29455.841283544542	415.99006531475
5	169866	29456.350364291491	416.01213579464
5	169871	29457.641686592776	417.2174469185
5	169877	29458.981691746724	418.25561137192
5	169890	29462.208206169763	417.65965452737
5	169897	29463.33725427994	416.62971162789
5	169907	29464.036507947623	414.81030975251
5	169912	29464.233175031975	412.73742337399
5	169921	29465.418127335748	409.82872764614
5	169926	29465.58587230716	407.20961234113
5	169931	29465.701716194529	400.94487580268
5	169936	29466.46537860615	397.86664835651
5	169945	29468.653357639444	392.41562517912
5	169966	29473.329945877815	396.95449969816
5	169996	29480.21905870619	402.69371691262
5	170112	29504.685487322266	427.08855877478
5	170123	29506.201615130225	425.80457317911
5	170132	29508.9114143718	428.49056849017
5	170143	29509.770685091095	427.72583995434
5	170150	29510.164328418076	427.77948149933
5	170161	29511.112758289707	425.88364239761
5	170166	29511.128453029714	418.08328452288
5	170174	29513.230036400311	419.74601261112
5	170182	29514.140081424922	418.05509734829
5	170201	29516.82361498236	420.57143126219
5	170272	29526.675496804515	424.23271583828
5	170281	29528.002873850309	423.66774529084
5	170303	29531.376801357141	425.47863747274
5	170318	29531.901630037815	419.43821128125
5	170323	29532.036493477598	405.33972491462
5	170329	29532.777089688571	405.04839881114
5	170334	29533.040421796577	403.75152806573
5	170341	29533.782010920478	401.74892743252
5	170346	29533.806130881201	401.42156781024
5	170359	29535.208688876805	400.85731188275
5	170403	29539.544876086861	398.22966344535
5	170408	29540.053378992287	396.58287169399
5	170414	29540.855313303675	395.03695954654
5	170419	29541.039291151903	390.13357569197
5	170426	29543.278026734644	388.06950599799
5	170431	29543.968123682977	387.74654650202
5	170442	29546.632829381838	388.76572126963
5	170481	29549.130411215531	387.83497186606
5	170486	29549.556966529011	387.91451977459
5	170494	29550.590096512399	378.42070306961
5	170510	29552.441777959653	378.36898087401
5	170538	29554.643573198287	376.1255493045
5	170552	29558.035898331628	368.28014087714
5	170600	29563.589806298862	371.07475652025
5	170752	29595.057034148929	398.56609640571
5	170762	29598.89285701069	401.98056981097
5	170772	29599.328527992719	396.38190778729
5	170778	29599.553041589982	395.05928875567
5	170786	29600.356489902339	395.57706732414
5	170801	29602.570998344518	391.36740288681
5	170813	29603.417647913329	389.4788511381
5	170824	29606.142602574759	389.64030738586
5	170863	29609.767524124742	381.63298481592
5	170868	29609.822352703188	375.96356233611
5	170873	29610.005146339411	370.61199066837
5	170894	29614.215870646478	374.61904947378
5	170939	29622.622379612892	379.92067181338
5	170944	29622.710750072071	374.79481772636
5	170951	29623.52078969851	374.90985993778
5	170973	29624.816865604816	368.50435774824
5	170981	29625.623285769235	364.29331097981
5	171000	29627.316910785926	361.89999227891
5	171077	29637.427946471392	370.53678512919
5	171082	29637.565109155311	367.31325094193
5	171090	29638.29176548084	360.79601410039
5	171095	29638.362347886815	355.72164812219
5	171100	29638.809769430033	355.638853093
5	171109	29640.017010949775	356.46144882392
5	171114	29640.352353121144	351.94083448403
5	171133	29645.602382599847	355.01229081898
5	171189	29649.117394284595	353.40705537194
5	171196	29649.370476953304	350.56019855336
5	171201	29649.484301890447	342.91305369253
5	171212	29652.516143521785	337.95323543928
5	171235	29656.544663728477	338.03748975747
5	171375	29684.850429569744	364.71652297153
5	171384	29686.931654846685	366.42566899976
5	171399	29688.257309331312	366.51294754143
5	171423	29689.683913398794	366.5648170215
5	171428	29690.258526870329	359.85861960859
5	171436	29691.399009389486	350.6383209338
5	171449	29693.083256482276	347.05185668956
5	171456	29693.702258188492	345.39130887596
5	171472	29696.669638351544	347.43052762049
5	171503	29699.994769931935	348.33053511408
5	171514	29702.010256789952	348.80175388241
5	171570	29715.108515512543	354.2443393161
5	171579	29717.458560810019	355.00298801133
5	171592	29720.140508169445	354.47896125762
5	171603	29720.68035072584	352.45276358289
5	171609	29720.864750912807	349.625851225
5	171615	29721.348360823009	348.48394459152
5	171620	29722.089969257095	343.30943227115
5	171649	29730.545769562065	349.98946755832
5	171687	29735.676555868086	353.67542334419
5	171698	29737.695896995655	351.17798898754
5	171762	29749.198031659454	360.11259152208
5	171860	29781.161086812749	378.37122333041
5	171868	29781.755244332029	377.51315616824
5	171882	29783.629465695621	377.53950905318
5	171896	29786.294905591601	375.97585508223
5	171971	29797.276653332235	386.58464896435
5	171979	29797.680368534422	384.06198600341
5	172002	29801.146383811673	365.87306221347
5	172007	29801.188892356662	359.18437609294
5	172020	29803.354373813019	361.32586370561
5	172046	29808.315701271713	356.13670904317
5	172085	29810.415559861277	356.96363702888
5	172105	29812.404590412088	358.39648030514
5	172111	29812.860244925689	357.92635910823
5	172122	29817.326917021309	357.27295381484
5	172137	29819.620201519258	357.90810201809
5	172144	29820.964229202865	355.66041043117
5	172153	29822.367665549397	340.65122352561
5	172167	29823.961114255582	339.95668966807
5	172178	29824.523364394466	338.63143959079
5	172185	29825.822071385216	329.53669693144
5	172190	29826.059015964439	326.05091674057
5	172198	29827.07130083333	325.85822952878
5	172209	29827.950191633592	323.18675972967
5	172231	29829.682012253879	324.20373501857
5	172236	29830.013373276508	298.32589821555
5	172245	29831.444325111864	299.68538692971
5	172250	29835.013217095233	300.27743916809
5	172266	29837.590478214465	302.77516102814
5	172320	29848.447703795444	313.53113664223
5	172326	29850.40270525047	313.25066286786
5	172332	29851.302079664638	312.69966421946
5	172347	29852.399327639551	313.32421038168
5	172357	29852.713555298195	306.43430920516
5	172362	29853.011782238841	300.36024767942
5	172374	29856.963622478389	303.56836292798
5	172392	29858.309095326815	300.17688150704
5	172400	29859.218586982248	298.70432417479
5	172405	29859.452327306235	298.14976203671
5	172410	29860.19410246761	281.38847291589
5	172415	29861.556784716693	263.28171891722
5	172420	29862.263666760019	260.72719796364
5	172433	29869.27408580477	261.47050732587
5	172457	29871.626052967749	263.59967657299
5	172466	29873.205228949547	263.06823050264
5	172509	29881.61245313756	270.48845279713
5	172520	29882.712440203293	267.48388967779
5	172531	29885.135201417868	261.02493019436
5	172544	29886.940055356619	261.30914823954
5	172554	29887.652574775113	254.68392922859
5	172565	29888.461980117329	250.50718325151
5	172570	29888.691710234103	249.33660500475
5	172579	29890.723086841695	251.33126163084
5	172597	29897.574369634273	254.99500038721
5	172624	29901.570199484219	258.40673518543
5	172633	29903.142647633242	257.75577634693
5	172652	29906.448197612462	257.18956858282
5	172675	29912.3791110123	262.52283344049
5	172690	29914.325115284181	260.26711338471
5	172698	29916.161635952956	249.91754752711
5	172709	29917.813145968659	249.80606496203
5	172714	29918.172910594047	246.97489309151
5	172719	29918.201642428866	246.12689009077
5	172724	29918.759351842677	239.68815806833
5	172729	29918.888462559318	239.41082064694
5	172742	29922.541375592386	242.32287779951
5	172774	29924.69063915834	241.52478097089
5	172779	29925.00809333715	238.33034109511
5	172788	29927.161868937229	235.58682371239
5	172800	29928.021129091755	234.40507209437
5	172811	29929.78455807509	235.71817388875
5	172829	29931.547895707337	235.92235171845
5	172834	29931.72016257254	231.78861654919
5	172851	29937.660109543208	233.23112209101
5	172886	29941.687186986141	231.25029027736
5	172935	29946.615879525804	233.57072515106
5	172945	29946.808977322139	231.94974368992
5	172950	29947.941631303573	224.80399266543
5	172965	29952.359170559643	229.1005293101
5	172999	29955.792228939629	227.92230866097
5	173004	29957.420087111724	229.09827720583
5	173015	29961.282543912286	231.27981377682
5	173020	29961.348220799924	230.44700385582
5	173029	29964.328904902244	224.17518514647
5	173034	29965.363108010264	210.55218830508
5	173040	29968.125680701526	211.25043440034
5	173047	29969.883812604725	212.99785052258
5	173060	29972.556351186637	213.9335261809
5	173070	29974.373380198425	214.8031345497
5	173097	29981.697030412176	215.12259186016
5	173195	29994.958451684308	225.44930997056
5	173200	29995.002403712526	223.62226672255
5	173210	29995.659916956576	223.71920686518
5	173220	29996.098076626616	223.38405576783
5	173248	29998.128442038114	221.0659885945
5	173261	29999.63139964173	221.68008806189

