version 2
run First-n2-3-20191016-17:03:19-7956
attr configname First-n2
attr datetime 20191016-17:03:19
attr experiment First-n2
attr inifile omnetpp.ini
attr iterationvars ""
attr iterationvarsf ""
attr measurement ""
attr network org.omnetpp.queueing.Pizza
attr processid 7956
attr repetition 3
attr replication ""
attr resultdir results
attr runnumber 3
attr seedset 3
param **.PS.maxInventoriedPS 2
param **.U1.interArrivalTime exponential(2s)
param **.U2.interArrivalTime exponential(4s)
param **.PS.serviceTimeForInventoryU1 exponential(0.8s)
param **.PS.serviceTimeForInventoryU2 exponential(1.0s)
param **.PS.serviceTimeDirectU1 exponential(1.2s)
param **.PS.serviceTimeDirectU2 exponential(1.4s)
param **.PS.probabilityProducing 0.5
param **.CS.serviceTimeU1 exponential(0.8s)
param **.CS.serviceTimeU2 exponential(1.0s)

vector 0 Pizza.EntryQueueU1 queueLength:vector ETV
attr interpolationmode sample-hold
attr title "queue length, vector"
vector 1 Pizza.CS queueLength:vector ETV
attr interpolationmode sample-hold
attr title "queue length, vector"
vector 2 Pizza.EntryQueueU2 queueLength:vector ETV
attr interpolationmode sample-hold
attr title "queue length, vector"
vector 3 Pizza.sink lifeTime:vector ETV
attr interpolationmode none
attr title "lifetime of arrived jobs, vector"
attr unit s
vector 4 Pizza.sink lifeTimeU2:vector ETV
attr interpolationmode none
attr title "lifetime of arrived jobs, vector"
attr unit s
vector 5 Pizza.sink lifeTimeU1:vector ETV
attr interpolationmode none
attr title "lifetime of arrived jobs, vector"
attr unit s
0	0	0	0
0	5	1.600564781785	1
0	7	2.288095598378	2
0	9	2.54678412136	3
0	12	3.43315566706	2
0	16	3.976864716075	3
0	18	4.014716680362	4
0	20	4.283117778383	5
0	22	4.366076235853	6
0	24	4.830553000791	7
0	28	5.400293863054	8
0	32	5.596735977928	9
0	36	6.640850610252	8
0	42	6.99029768227	7
0	47	7.009716986619	6
0	53	7.970466970357	7
0	57	9.180801071354	6
0	62	9.887511426961	5
0	70	11.069266314761	4
0	75	11.30754414352	3
0	82	12.62259038886	2
0	87	13.12217251141	1
0	91	15.242909753639	2
0	94	16.327091322188	1
0	102	17.324022491773	0
0	114	18.553132227287	1
0	115	18.57918207404	0
0	131	20.207724481132	1
0	132	21.000875917781	0
0	136	21.972725212122	1
0	138	22.639445390503	2
0	143	23.52162011638	1
0	148	23.850250570317	0
0	159	25.973873491469	1
0	162	26.797310740479	0
0	166	26.873259960949	1
0	168	28.095775734917	2
0	171	28.749517350422	1
0	176	29.848401597631	0
0	182	30.445205267202	1
0	185	31.233683462428	2
0	187	31.541383387337	3
0	189	31.668389883236	4
0	190	31.74629405504	3
0	197	32.28954908237	2
0	203	32.388217718052	3
0	205	32.440959605038	4
0	207	33.156242589435	3
0	212	34.656061368199	2
0	217	34.994592178178	1
0	221	35.015227441074	2
0	225	35.45895624367	3
0	228	35.669909164156	4
0	230	35.946810654247	5
0	234	38.736593313268	6
0	236	38.983679829516	7
0	237	39.092945292441	6
0	243	39.399733663051	7
0	244	39.96933808265	6
0	249	40.808239310216	5
0	253	41.688701318679	6
0	261	43.182265640501	7
0	262	43.652943208842	6
0	266	44.876190283354	7
0	270	46.684546732325	6
0	275	47.54836165862	5
0	279	49.135315900235	6
0	284	51.073510201465	5
0	291	52.250884642288	4
0	296	52.683866175765	3
0	301	53.184669188976	2
0	305	54.041556648026	3
0	308	56.191326380229	2
0	313	58.982636307306	1
0	318	59.632443515647	0
0	331	60.397803527666	1
0	333	60.806752760183	0
0	346	61.612767925122	1
0	348	61.692159220247	2
0	350	62.001569621042	3
0	351	62.198558808518	2
0	356	62.238843416815	1
0	362	63.645215423988	0
0	403	83.232294931845	1
0	406	84.719278017061	0
0	415	85.587459884159	1
0	419	85.721178453846	2
0	423	86.408618176053	3
0	424	87.014204960617	2
0	429	87.082277539478	1
0	435	89.111109013133	2
0	436	89.165645569633	1
0	440	91.708790372647	2
0	444	92.598577548958	3
0	445	92.610992732535	2
0	449	92.898984472483	3
0	455	93.652212474319	4
0	458	95.216663216798	3
0	466	97.334369544756	4
0	470	97.793044355499	5
0	471	98.066440789344	4
0	479	98.343419438448	5
0	480	99.47401156586	4
0	489	100.608671275775	3
0	494	102.254374039456	2
0	503	104.364807396454	1
0	509	105.06131362093	2
0	510	105.381911798128	1
0	515	105.643931658925	0
0	519	105.816973603503	1
0	523	106.784032104921	0
0	529	106.944073201037	1
0	530	108.047012707995	0
0	534	108.474368932035	1
0	537	108.71178953124	0
0	543	111.457392644316	1
0	548	113.080949666604	0
0	552	114.238216758512	1
0	556	116.785228642828	2
0	557	117.063232280003	1
0	563	117.288870819539	0
0	582	120.457417542796	1
0	584	120.611261264209	2
0	585	120.924405137603	1
0	590	120.975847798619	0
0	608	123.858618630621	1
0	609	124.011644314907	0
0	615	124.264742507403	1
0	616	124.46631530073	0
0	623	125.642187803823	1
0	627	126.57520410531	2
0	631	127.55985004383	1
0	636	128.276111664886	0
0	656	129.683107739566	1
0	660	130.921222156444	2
0	662	131.275939600204	3
0	664	131.433567636228	4
0	669	133.369222770696	3
0	677	133.709324922519	4
0	679	134.417162272565	3
0	684	134.789309279809	2
0	691	135.450474071058	1
0	695	135.619333241926	2
0	698	136.006126795221	1
0	704	137.631236125204	2
0	706	137.632193985582	3
0	710	138.276885846219	4
0	713	139.424385459418	3
0	719	139.740319014771	2
0	724	139.743739469062	1
0	730	140.301340496971	0
0	742	141.208718819894	1
0	746	142.177904286941	0
0	764	148.305023386596	1
0	767	148.873174252875	0
0	785	152.024358798422	1
0	786	152.319736273157	0
0	805	154.038832399504	1
0	807	154.085416683911	2
0	810	154.933237054265	3
0	812	155.050344804954	4
0	813	155.595192277306	3
0	820	156.023312696597	2
0	825	156.541991935298	1
0	830	157.085716763155	0
0	834	157.294088469357	1
0	836	157.980435444788	2
0	843	160.869589964537	3
0	844	160.919122852451	2
0	850	164.568812595096	1
0	856	165.391315898413	2
0	858	166.802100651244	3
0	860	166.918842769801	4
0	861	167.460882528101	3
0	867	168.597049299381	4
0	868	169.541160752291	3
0	875	170.380002274065	2
0	879	170.39235019932	3
0	882	171.293507043856	2
0	889	173.427657792629	1
0	893	174.085726535905	2
0	898	176.032191722808	1
0	904	176.067982215522	2
0	906	177.986982735713	3
0	908	179.707630239742	4
0	914	181.400859350763	5
0	915	181.534711387313	4
0	919	182.176496907843	5
0	922	183.189952452734	4
0	926	183.250833404665	5
0	928	183.645298837839	6
0	933	184.851191128224	5
0	939	185.176629552867	6
0	941	185.392098941165	7
0	944	185.50313913082	8
0	946	185.507394776784	9
0	951	187.485254648114	10
0	952	187.686182717559	9
0	958	187.973573511218	10
0	959	188.048008705319	9
0	966	188.795865258657	8
0	970	189.662482462198	9
0	976	193.636751048741	8
0	982	194.103655876192	9
0	983	195.456422345644	8
0	987	196.059057956738	9
0	989	196.689553707414	10
0	992	197.938848250269	9
0	996	198.040409155295	10
0	998	198.588819108539	11
0	1000	198.903519097151	12
0	1002	198.923330545928	13
0	1009	200.263515492763	12
0	1013	200.465264232001	13
0	1016	201.380729021347	12
0	1021	201.832609683163	11
0	1025	202.500971960651	12
0	1030	203.185732176891	11
0	1034	203.477379808611	12
0	1037	204.424090115893	11
0	1046	206.365048619056	10
0	1051	207.767392042945	9
0	1056	208.237991773093	8
0	1062	209.08441541716	9
0	1064	209.382063833482	10
0	1067	211.834703189623	9
0	1074	213.348314039082	8
0	1079	213.390162073986	7
0	1084	213.395535454861	6
0	1088	213.822667606196	7
0	1090	214.819381352262	8
0	1094	216.371355505586	9
0	1098	219.804190544621	10
0	1099	220.095951700809	9
0	1106	221.505480771849	10
0	1107	222.22494787859	9
0	1113	222.609287350876	10
0	1114	222.997600078488	9
0	1122	223.921621232513	10
0	1124	224.292116835265	11
0	1126	224.337082318982	12
0	1127	224.437993986226	11
0	1132	224.468269260876	10
0	1138	225.058619094781	11
0	1139	225.207929751833	10
0	1144	226.812595003764	9
0	1150	227.077940137949	10
0	1154	227.768652860411	11
0	1155	228.353780215108	10
0	1161	229.480969446807	9
0	1167	229.503390816704	8
0	1175	229.997665298257	7
0	1180	230.45678518664	6
0	1184	231.276738252029	7
0	1187	233.517990056701	6
0	1192	233.707663885025	5
0	1196	233.793469338752	6
0	1198	234.052769619983	7
0	1201	235.303425867848	6
0	1205	235.363285035931	7
0	1209	236.267247433581	8
0	1210	236.407177383645	7
0	1215	237.419795962131	6
0	1221	238.729566111814	5
0	1226	239.607297867767	4
0	1231	241.186227107532	3
0	1235	241.603604308448	4
0	1237	241.938857516757	5
0	1241	243.042555225014	6
0	1242	243.244285145161	5
0	1250	246.796996947145	4
0	1255	247.101633822536	3
0	1263	249.357701166063	4
0	1268	250.863224099012	5
0	1269	250.985843319598	4
0	1275	251.251858792133	5
0	1276	251.712147886643	4
0	1282	252.087369338544	5
0	1285	252.957059014532	4
0	1289	254.341414416109	5
0	1293	254.654480549076	6
0	1296	254.760459647869	5
0	1301	254.98870139657	4
0	1308	256.793997423485	3
0	1312	256.850589806608	4
0	1320	258.260892805817	5
0	1323	259.380428136038	4
0	1328	259.692220492336	3
0	1334	260.119698571081	4
0	1338	261.011070313277	5
0	1339	262.25867404972	4
0	1346	262.947546742456	5
0	1347	263.356635097947	4
0	1355	263.941069255296	5
0	1357	265.89547591803	6
0	1358	266.388275041328	5
0	1365	266.721548801937	4
0	1373	272.060150225304	5
0	1374	272.572539590186	4
0	1380	273.693059504299	5
0	1381	274.284067040639	4
0	1385	274.883843396495	5
0	1390	277.650426794854	4
0	1396	278.903503723608	5
0	1397	279.033647160641	4
0	1401	279.131748179244	5
0	1404	279.88712286593	4
0	1412	281.433545313734	3
0	1418	281.586278532531	2
0	1425	282.203155325949	3
0	1426	283.153656828342	2
0	1431	283.180277700841	1
0	1436	283.746159007585	0
0	1442	284.3887775336	1
0	1448	285.735705402537	2
0	1450	287.577712805924	3
0	1451	287.579411624609	2
0	1457	288.532885428841	3
0	1459	289.013262066164	4
0	1460	289.455158319791	3
0	1466	292.790334380565	4
0	1471	294.263873905778	3
0	1477	294.458992574476	4
0	1478	294.986342043016	3
0	1483	295.557794301983	2
0	1487	295.914965722331	3
0	1489	296.615290303103	4
0	1492	297.460952220929	3
0	1497	298.598509309881	2
0	1503	299.234621333831	1
0	1508	299.678171326588	0
0	1514	300.895058073352	1
0	1517	302.364620668	0
0	1546	306.584375764676	1
0	1552	309.110688291852	0
0	1572	310.989944328136	1
0	1574	311.811461088854	0
0	1604	315.596035224762	1
0	1605	316.750794101996	0
0	1643	323.334824945125	1
0	1646	327.312312518504	0
0	1663	330.657047447548	1
0	1666	331.600705651613	0
0	1677	332.807498774316	1
0	1679	333.30473752929	2
0	1680	334.22939103549	1
0	1686	334.33596340591	2
0	1687	334.338435223579	1
0	1691	334.351256712456	2
0	1695	335.692899658443	3
0	1701	339.166433979885	2
0	1707	340.115144365615	1
0	1712	340.15257763084	0
0	1716	341.458295297642	1
0	1718	341.501974234637	2
0	1723	341.808061016618	1
0	1728	341.9490500679	0
0	1761	349.1593259653	1
0	1762	349.340636073997	0
0	1774	352.410506455443	1
0	1779	354.224683783193	0
0	1791	357.291853587255	1
0	1794	358.184664905441	0
0	1800	358.333950601332	1
0	1801	358.654927532055	0
0	1810	360.565710763005	1
0	1816	361.391226229593	2
0	1818	362.211750765824	1
0	1824	362.588246470443	2
0	1827	363.169313893404	1
0	1833	363.682176274495	0
0	1840	364.249776256415	1
0	1841	365.311071462381	0
0	1865	371.452647969734	1
0	1867	372.052980920175	2
0	1871	372.88742232602	1
0	1876	372.944007828101	0
0	1882	374.441877637983	1
0	1884	375.047759519554	0
0	1900	376.647211409754	1
0	1901	377.344961620985	0
0	1905	378.951971947378	1
0	1911	379.831003581601	2
0	1916	380.37999891508	1
0	1920	381.226398407574	2
0	1923	381.505072103201	1
0	1930	382.589920461866	0
0	1936	383.171603356646	1
0	1939	384.08224438394	2
0	1940	384.114924821152	1
0	1945	384.319151905174	0
0	1953	386.851707739817	1
0	1954	387.526695128297	0
0	1971	388.370605856874	1
0	1973	389.036986095166	0
0	1985	390.198752872892	1
0	1989	391.546998498249	0
0	1995	391.7778838644	1
0	1996	391.966589422182	0
0	2002	392.022894147282	1
0	2010	395.364400923032	0
0	2022	395.989972729024	1
0	2024	396.074837927175	2
0	2025	396.589432292704	1
0	2033	397.97489387057	0
0	2041	398.98811406872	1
0	2042	400.015967983262	0
0	2048	400.639622005934	1
0	2050	400.676183345632	2
0	2053	401.466087703632	1
0	2059	402.334549663869	2
0	2060	403.000513036393	1
0	2066	403.885124786245	0
0	2072	404.134536525845	1
0	2073	404.156648020408	0
0	2098	405.83117330452	1
0	2103	406.80257847116	2
0	2106	408.442804194669	1
0	2112	408.45040792375	2
0	2113	409.38044302744	1
0	2118	409.778882702166	0
0	2132	412.171144951698	1
0	2135	412.290542377212	0
0	2154	414.182815852172	1
0	2158	414.949289615374	2
0	2161	415.455031166777	1
0	2168	419.419608318705	0
0	2181	422.278944008162	1
0	2185	422.798855640977	2
0	2187	422.961577920097	3
0	2190	426.104121548272	2
0	2195	426.358083605636	1
0	2201	426.381395220956	2
0	2202	426.557694557379	1
0	2207	428.470174946447	0
0	2229	433.269103860261	1
0	2234	434.097817704689	2
0	2236	434.160391003502	3
0	2239	434.276711025603	2
0	2244	434.281657308741	1
0	2250	435.27435675658	0
0	2254	435.489072864786	1
0	2258	435.810723668891	2
0	2259	435.881629328836	1
0	2263	436.386092728079	2
0	2268	437.471553802841	1
0	2274	438.509594087185	2
0	2278	438.86098365534	3
0	2281	439.607556285983	2
0	2287	441.970123511454	3
0	2289	442.06152153964	4
0	2291	442.12799683231	5
0	2292	442.492010848787	4
0	2299	443.707530946003	3
0	2305	444.769112659424	4
0	2307	446.749329839695	3
0	2312	447.009267408464	2
0	2318	449.534641092931	3
0	2319	449.643316372827	2
0	2324	450.380560907448	1
0	2329	451.272167957179	0
0	2333	453.451115267119	1
0	2339	454.826490935196	2
0	2340	454.965003512108	1
0	2345	456.714169588383	0
0	2349	457.464691267856	1
0	2351	458.029283427362	2
0	2354	459.132822043739	1
0	2360	460.166048913338	2
0	2366	460.525948029041	3
0	2367	461.805510110894	2
0	2371	461.976699880784	3
0	2373	462.019864539978	4
0	2376	464.069264662625	3
0	2380	464.95530892941	4
0	2387	466.550375023771	3
0	2391	466.871343816371	4
0	2393	467.701462843561	5
0	2397	468.526484936768	6
0	2398	469.364786655839	5
0	2410	470.242590734706	4
0	2418	471.204116027165	3
0	2423	471.487108717609	2
0	2429	471.800101235637	3
0	2430	472.378086666855	2
0	2435	473.073249360107	1
0	2443	474.394475446498	2
0	2447	475.722317205156	3
0	2449	476.182927269528	4
0	2450	476.268901324326	3
0	2455	477.28177428171	2
0	2460	477.636330596992	1
0	2468	479.122648207131	0
0	2485	482.068558775848	1
0	2487	483.902400915818	2
0	2489	484.369334776331	3
0	2492	486.216743918708	2
0	2497	486.71945742654	1
0	2502	487.704090058196	0
0	2508	488.656843264992	1
0	2511	490.768732732821	0
0	2517	491.485744162792	1
0	2521	492.105684315589	2
0	2522	492.506049978921	1
0	2527	492.743276219304	0
0	2533	494.219427717142	1
0	2534	494.436833032992	0
0	2538	495.072772516195	1
0	2544	498.380849956014	0
0	2570	501.531908462895	1
0	2575	502.153853821304	0
0	2585	502.930167980577	1
0	2590	505.217436469578	0
0	2607	506.593790509955	1
0	2610	506.880847960838	2
0	2612	506.902979299578	3
0	2615	507.632888317481	2
0	2622	509.586176140842	1
0	2627	509.830180104092	0
0	2635	513.311626261667	1
0	2636	513.448759567646	0
0	2640	515.379229432185	1
0	2643	516.195491008964	0
0	2666	520.211147555625	1
0	2670	520.656416073364	2
0	2674	521.066741831085	3
0	2675	521.107134537269	2
0	2680	521.409337314441	1
0	2687	521.743994622971	2
0	2689	521.932201936921	1
0	2694	522.625548709372	0
0	2700	523.382256932962	1
0	2703	524.525035408517	2
0	2705	524.580172874571	3
0	2706	524.816773702444	2
0	2711	527.183293240756	1
0	2717	528.753413597569	0
0	2723	528.887390623313	1
0	2724	529.431976045759	0
0	2728	529.455154313308	1
0	2731	532.12308816701	0
0	2752	534.720785705415	1
0	2754	538.625849723259	2
0	2761	542.698509283453	1
0	2768	544.513090277755	0
0	2808	549.173266275806	1
0	2812	550.908140848301	0
0	2818	551.112708014401	1
0	2821	551.856114045811	2
0	2822	552.61867903225	1
0	2827	552.756953821069	0
0	2831	553.31939578441	1
0	2834	553.544387411094	0
0	2841	555.249422122137	1
0	2843	555.298028495491	2
0	2844	555.504151589207	1
0	2850	555.504530710233	2
0	2852	555.528986544964	3
0	2853	556.360035922881	2
0	2858	556.903543244775	1
0	2864	557.360039787604	2
0	2867	557.558986040298	1
0	2871	557.966642535252	2
0	2873	559.122754222293	3
0	2878	561.082127363383	2
0	2884	562.85398893862	1
0	2890	562.901380158709	2
0	2892	563.437430682257	3
0	2893	563.586966245701	2
0	2901	565.848305301783	3
0	2902	565.965051023846	2
0	2908	566.977212812554	1
0	2913	567.285848359523	0
0	2917	567.372678233085	1
0	2919	567.417559745828	2
0	2921	567.86593978436	3
0	2923	567.996469991645	4
0	2927	570.08591401577	5
0	2929	571.422096927768	4
0	2934	572.018584181896	3
0	2943	572.72114241756	4
0	2945	573.102050986723	3
0	2950	573.777525234062	2
0	2955	573.948114924637	1
0	2959	574.534600506967	2
0	2963	578.208726909581	1
0	2968	578.363286172778	0
0	2981	579.492761345304	1
0	2983	581.142638239244	0
0	3027	586.574134773677	1
0	3029	586.840497715836	2
0	3031	587.127165562108	3
0	3035	587.787469810533	4
0	3038	588.29223616503	3
0	3044	588.604677248697	4
0	3046	590.290500615444	3
0	3053	590.735616627258	4
0	3055	591.473374816088	3
0	3061	591.695133224118	4
0	3063	591.901280482152	3
0	3073	592.851570834568	4
0	3074	592.972170934989	3
0	3079	593.544446760923	2
0	3083	593.647229619256	3
0	3086	594.124869833783	2
0	3090	594.232762954116	3
0	3093	594.638900522322	2
0	3099	595.041481009939	3
0	3102	597.070874389318	2
0	3106	597.714501580521	3
0	3109	598.213351061088	2
0	3114	598.824453220156	1
0	3120	599.605998291186	2
0	3122	601.662165246858	3
0	3126	603.121683576268	4
0	3128	603.927738866683	5
0	3132	604.86982689745	6
0	3133	605.552312045733	5
0	3139	608.142961694931	6
0	3140	608.486825643509	5
0	3147	609.738741147167	4
0	3151	610.332414257471	5
0	3155	611.016950017725	6
0	3157	611.06519390997	7
0	3158	611.188479563129	6
0	3166	612.863631184021	7
0	3167	613.684938777006	6
0	3173	614.377374658517	7
0	3178	616.379993501752	8
0	3179	616.534394068543	7
0	3184	616.618082741388	6
0	3190	616.764532452403	7
0	3192	619.824299064146	8
0	3193	620.108119133078	7
0	3197	620.139301016772	8
0	3200	620.777087107773	7
0	3204	621.035169881186	8
0	3206	621.388070666881	9
0	3209	622.571300472132	8
0	3213	623.682000893672	9
0	3217	624.705980300128	10
0	3218	624.85487868816	9
0	3222	624.995981935135	10
0	3224	625.112846523959	11
0	3226	626.018469515289	12
0	3230	626.755330354468	11
0	3237	627.315923131816	12
0	3239	627.939670279717	13
0	3240	628.578912348633	12
0	3247	629.430460731349	11
0	3253	629.972620736881	12
0	3254	630.112772702704	11
0	3259	630.401095695014	10
0	3268	631.642797166965	9
0	3272	632.294844730399	10
0	3277	633.393199746512	9
0	3281	634.750026406252	10
0	3286	636.209063634271	9
0	3290	637.155271728475	10
0	3293	637.432548213278	9
0	3298	639.453990935756	8
0	3308	640.316182211409	9
0	3309	640.897238187301	8
0	3314	642.996879504422	7
0	3318	644.014150180195	8
0	3323	646.174888697251	7
0	3328	646.834863954546	6
0	3336	648.402378852323	7
0	3337	648.870834492584	6
0	3342	650.115195630145	5
0	3346	650.376333365228	6
0	3349	651.616676901304	5
0	3353	652.791985587874	6
0	3359	653.712559068629	7
0	3361	653.87302785631	8
0	3362	653.991652744251	7
0	3366	654.280996513545	8
0	3372	654.726568222855	9
0	3376	655.582429766725	10
0	3377	656.411367246309	9
0	3383	657.781523742506	10
0	3385	658.294217920428	9
0	3390	658.580004464328	8
0	3398	662.615190629897	7
0	3403	662.657743238801	6
0	3407	662.683726562837	7
0	3409	662.984705467648	8
0	3412	665.06228332203	7
0	3417	666.521114454134	6
0	3421	666.961812348279	7
0	3423	667.210554557178	8
0	3426	668.627842443388	7
0	3432	669.763882367266	8
0	3433	669.988160534726	7
0	3438	671.258774389864	6
0	3446	676.28866277738	7
0	3447	677.021119258107	6
0	3454	678.230851284374	5
0	3458	678.788473151889	6
0	3462	678.926493448526	7
0	3467	680.916689456589	6
0	3471	681.31498124487	7
0	3474	681.626315151979	6
0	3479	683.201741290704	5
0	3486	684.660247790375	4
0	3492	686.23671060225	5
0	3494	687.913936186187	4
0	3500	688.11219867817	5
0	3501	688.441095009411	4
0	3508	689.751707317456	5
0	3512	690.046285008212	6
0	3514	690.458011144912	5
0	3520	691.214393356659	4
0	3525	691.490208054333	3
0	3530	692.040018917391	2
0	3538	692.641347120232	3
0	3539	693.455841980946	2
0	3549	696.063574555193	3
0	3554	697.180007248402	2
0	3558	697.366775987696	3
0	3562	698.271693178189	4
0	3568	699.264433438208	5
0	3570	699.902740231586	4
0	3575	700.758895681143	3
0	3581	701.032735204912	4
0	3587	702.663598141767	5
0	3589	702.728802160876	6
0	3591	702.979417672754	7
0	3592	703.389395939576	6
0	3596	704.601320847878	7
0	3598	704.757804019943	8
0	3604	707.06531977997	9
0	3605	707.951902880351	8
0	3611	708.706623941018	9
0	3614	710.202340645849	8
0	3622	712.934264269566	9
0	3623	713.90385047066	8
0	3627	714.986447060564	9
0	3630	715.489162648456	8
0	3637	715.621854570696	7
0	3643	716.813776133169	6
0	3650	717.314366646884	7
0	3653	719.066301259103	6
0	3658	719.271303683043	5
0	3666	722.284511832169	6
0	3667	723.230546558192	5
0	3674	723.654140036473	6
0	3677	724.33749192517	5
0	3682	724.748399606131	4
0	3687	724.758739820724	3
0	3692	725.687176549272	2
0	3697	727.868462591051	1
0	3702	728.937786103364	0
0	3739	733.654364726783	1
0	3744	736.503719381718	0
0	3750	737.186130110467	1
0	3753	738.357275587491	0
0	3785	744.442376126035	1
0	3788	745.357831498701	0
0	3795	745.479826659326	1
0	3797	745.818748170307	0
0	3805	745.875728021748	1
0	3809	746.75237709104	0
0	3820	747.087261467149	1
0	3821	748.153405906462	0
0	3844	753.457078168292	1
0	3855	756.330122556347	0
0	3869	758.61329979607	1
0	3874	760.15387653468	2
0	3875	760.154171567165	1
0	3880	760.174182557676	0
0	3887	761.234941587002	1
0	3891	762.293112984923	0
0	3897	762.324702506752	1
0	3898	762.915873859745	0
0	3902	764.192052283078	1
0	3906	767.382706376772	0
0	3910	768.260014285132	1
0	3915	768.840380602504	2
0	3918	769.459897598207	1
0	3923	770.092109152694	0
0	3979	777.680885597387	1
0	3981	778.489374011932	2
0	3983	779.072845537476	3
0	3985	782.409500251628	4
0	3987	782.666119798662	5
0	3989	783.257104261386	6
0	3993	783.399220286975	7
0	3995	783.542270018001	8
0	3998	783.960699578983	7
0	4004	783.973402628657	8
0	4007	785.851452717442	7
0	4014	786.779928830551	6
0	4020	786.797728606248	7
0	4022	787.442709709147	8
0	4023	787.936146189124	7
0	4030	788.590778707621	6
0	4035	789.189670216798	5
0	4041	789.821752952978	6
0	4044	791.724808837739	5
0	4048	792.918495802248	6
0	4053	793.573042403792	5
0	4059	794.578800957454	6
0	4061	795.897030190377	7
0	4062	796.719254926765	6
0	4066	797.070111145158	7
0	4068	798.054502681664	8
0	4078	800.696872263821	7
0	4084	802.589938759458	6
0	4091	802.775219724222	7
0	4092	803.044662597727	6
0	4101	804.350350215393	5
0	4106	804.673219088177	4
0	4112	804.753555844821	5
0	4113	804.841455835879	4
0	4119	805.21568914495	5
0	4120	805.228007035913	4
0	4124	807.338434746967	5
0	4126	807.549223192376	6
0	4131	808.771821530648	7
0	4135	809.311292281717	8
0	4137	809.66784079929	9
0	4138	809.669205082968	8
0	4143	809.862530602956	7
0	4148	810.244454978231	6
0	4154	811.897012139233	7
0	4157	812.304066210497	6
0	4163	814.524558111517	7
0	4164	814.63438401311	6
0	4170	815.188021471952	7
0	4172	815.85504973574	6
0	4181	816.793294799776	7
0	4182	816.983171921385	6
0	4187	818.002275606116	5
0	4193	818.729558257038	6
0	4195	818.993310099815	7
0	4196	819.10647701001	6
0	4203	820.532715893243	5
0	4207	822.070265698494	6
0	4211	822.528233738294	7
0	4212	822.601966790999	6
0	4216	822.603363583958	7
0	4222	824.101355367014	8
0	4227	825.354425356814	7
0	4231	825.892692000768	8
0	4235	828.620188832709	7
0	4240	829.326031496049	6
0	4244	830.097145868351	7
0	4250	832.462474976479	8
0	4251	833.518410135796	7
0	4256	835.023442866779	6
0	4263	835.887446613588	5
0	4269	837.126341379219	6
0	4272	838.426102699828	7
0	4274	839.785955179025	6
0	4279	839.913360975244	5
0	4285	840.139336176985	6
0	4288	841.799354012199	5
0	4295	842.405509654526	6
0	4296	844.257056828116	5
0	4301	844.575676092207	4
0	4306	844.965099288332	3
0	4311	845.366296470317	2
0	4315	846.931007328549	3
0	4322	849.03540208439	2
0	4327	849.771972333706	1
0	4333	850.553330555868	0
0	4351	851.172893777009	1
0	4358	852.482372808471	0
0	4376	855.587330639521	1
0	4378	856.381549344042	2
0	4379	857.346623406132	1
0	4385	857.578480617872	2
0	4387	857.909908704602	1
0	4393	858.651968761488	0
0	4414	861.818526888839	1
0	4418	863.015433906939	2
0	4419	864.042527358619	1
0	4428	864.7239057555	2
0	4429	864.837886081135	1
0	4434	865.494840482762	0
0	4440	865.734856427371	1
0	4441	866.078701682627	0
0	4447	866.74136261863	1
0	4449	867.953575147342	2
0	4451	868.877808100668	3
0	4452	869.084383035764	2
0	4457	870.109868772372	1
0	4462	871.190892160358	0
0	4473	873.132728754606	1
0	4474	873.40136395497	0
0	4480	873.653862582473	1
0	4483	874.749962579611	2
0	4484	874.883927781491	1
0	4489	875.368846563503	0
0	4493	875.607432243459	1
0	4498	876.789047234366	0
0	4515	878.303032306773	1
0	4516	878.346343437477	0
0	4530	880.462087752239	1
0	4532	880.775713768432	2
0	4533	880.799714622049	1
0	4542	881.773919747062	2
0	4543	882.219561902189	1
0	4549	882.268529391861	2
0	4550	882.486256306713	1
0	4556	882.616081893974	0
0	4570	883.672760653966	1
0	4575	883.815267092982	0
0	4596	888.555691102826	1
0	4602	889.591526588834	0
0	4619	891.307422868853	1
0	4624	893.475966393963	0
0	4636	894.30314444567	1
0	4642	895.492137099969	2
0	4645	896.873348129784	1
0	4651	897.223769388644	2
0	4653	897.659128899052	3
0	4654	899.060697595367	2
0	4659	899.337760107841	1
0	4663	899.34534442744	2
0	4665	899.728206651433	3
0	4667	900.414229096486	4
0	4670	900.87084024008	3
0	4674	901.256949527962	4
0	4677	902.223524542264	3
0	4681	902.510755258564	4
0	4683	902.640894779498	5
0	4686	902.987227164966	4
0	4695	904.776931489939	3
0	4703	905.328560151038	4
0	4705	905.898743612545	5
0	4708	906.699711788949	4
0	4713	907.786254923938	3
0	4717	908.298032894319	4
0	4722	909.255522012382	3
0	4726	910.803015046153	4
0	4729	911.753449883076	3
0	4733	911.945497885015	4
0	4737	913.420104316084	5
0	4741	916.6337017409	6
0	4745	917.690542082888	7
0	4748	918.078221358755	6
0	4753	919.244300020289	5
0	4759	920.020453374258	6
0	4761	920.859486531052	7
0	4763	920.967047455784	8
0	4764	921.293634364056	7
0	4768	922.335997398985	8
0	4770	922.483477541043	9
0	4774	923.43067315968	10
0	4777	924.262976480361	9
0	4782	924.470301019573	8
0	4790	925.432646421346	9
0	4795	926.072175690645	8
0	4799	926.368627517823	9
0	4804	927.55080071702	8
0	4811	928.242326339385	7
0	4817	930.531430786173	8
0	4819	931.171176613227	9
0	4821	932.329319051757	10
0	4823	933.835872289441	11
0	4826	935.109349836087	10
0	4830	935.636157708555	11
0	4834	936.329613302685	12
0	4835	936.801824311089	11
0	4839	937.974982462596	12
0	4842	938.577773047811	11
0	4846	939.337673519179	12
0	4848	940.402267108717	13
0	4851	941.59173324593	12
0	4856	944.441578843517	11
0	4862	947.660999276561	10
0	4868	948.384837754659	9
0	4873	948.419650654503	8
0	4879	948.777829373208	9
0	4881	948.913836365144	10
0	4882	948.937401225123	9
0	4888	950.158386862892	10
0	4892	950.790321301974	11
0	4893	951.097766718758	10
0	4898	951.430519596318	9
0	4904	952.358348517409	10
0	4908	953.521617062559	11
0	4909	953.692372232601	10
0	4917	954.077789263778	9
0	4922	954.149467833924	8
0	4928	954.762751321158	9
0	4929	955.189275832265	8
0	4933	955.367731044815	9
0	4937	958.039632343376	10
0	4938	958.885262866041	9
0	4942	959.529340593108	10
0	4944	959.916522356099	11
0	4952	963.071927051552	10
0	4958	963.156300636592	11
0	4959	963.472190359011	10
0	4963	963.861357115827	11
0	4967	966.15061624397	12
0	4970	966.814058891379	11
0	4975	967.217153159396	10
0	4979	967.317688744305	11
0	4982	968.039097993498	10
0	4986	968.540204746526	11
0	4993	970.747961649247	10
0	5001	972.928974242151	11
0	5002	973.181654353407	10
0	5008	973.317740116466	11
0	5011	973.57775444628	12
0	5012	973.942984764863	11
0	5019	974.531008645604	12
0	5020	974.756663085276	11
0	5025	974.907100334237	10
0	5030	975.015477585785	9
0	5034	975.567270107	10
0	5036	976.131790192083	11
0	5039	976.925928246382	10
0	5044	977.963595210313	9
0	5048	978.180502845458	10
0	5050	978.477655844783	11
0	5053	981.701683215874	10
0	5059	982.542492474253	11
0	5061	982.91088246698	12
0	5063	983.662951397316	13
0	5065	984.153722476052	14
0	5068	984.442457379837	13
0	5073	984.945615449693	12
0	5080	985.790923649954	11
0	5091	986.883854358495	10
0	5095	987.098664483751	11
0	5099	988.624777393569	12
0	5100	989.395912292615	11
0	5105	990.223821118095	10
0	5111	990.613179065135	11
0	5116	991.471526197528	12
0	5117	991.806451242486	11
0	5122	991.912981605467	10
0	5126	992.196850635325	11
0	5129	992.807429085925	10
0	5136	995.755004418153	9
0	5143	995.915054171288	10
0	5144	996.295295533253	9
0	5149	996.925757705324	8
0	5154	997.804853433656	7
0	5158	998.025477000683	8
0	5162	999.115410553304	9
0	5165	1000.488227522254	8
0	5171	1001.01767016467	9
0	5175	1001.182297857674	10
0	5179	1002.084056382835	11
0	5180	1002.42447552531	10
0	5187	1003.277468927798	9
0	5191	1003.979848774725	10
0	5193	1004.431421003267	11
0	5197	1004.459276240079	12
0	5199	1004.661070540887	13
0	5203	1005.99339188261	12
0	5208	1007.010543074247	11
0	5212	1008.065028786746	12
0	5218	1009.733916904161	13
0	5219	1009.820558622214	12
0	5223	1010.157013112566	13
0	5228	1012.36577960952	12
0	5234	1013.817568860248	13
0	5237	1014.019552504239	12
0	5241	1015.33573773266	13
0	5245	1018.002129213207	14
0	5246	1018.559135749543	13
0	5253	1019.151503160608	12
0	5260	1020.427092910275	11
0	5265	1020.602538634105	10
0	5269	1021.161693881522	11
0	5273	1021.73175706043	12
0	5275	1021.890435911473	13
0	5277	1022.099597790988	14
0	5279	1022.232836332919	15
0	5281	1023.200147399702	16
0	5285	1023.860011698808	17
0	5287	1024.042249098183	16
0	5293	1024.179928330693	17
0	5297	1025.277791583248	16
0	5302	1025.565790902098	15
0	5307	1026.180288506273	14
0	5315	1026.913875464459	15
0	5316	1027.123860672197	14
0	5320	1027.179238853183	15
0	5322	1027.688317484875	16
0	5328	1029.461892224277	17
0	5329	1029.948235201309	16
0	5336	1031.130752810831	17
0	5338	1031.263075674578	18
0	5339	1031.50154849622	17
0	5344	1031.534184726643	16
0	5349	1033.063611488924	15
0	5353	1033.388062499555	16
0	5355	1033.472975287346	17
0	5359	1034.452345016451	18
0	5360	1034.879941475828	17
0	5364	1035.53730081828	18
0	5368	1035.819497975203	19
0	5370	1035.941168546775	20
0	5372	1036.023687215261	21
0	5378	1038.690282514934	22
0	5379	1038.737501530492	21
0	5383	1039.117857440323	22
0	5388	1041.71527098522	21
0	5393	1043.07291870251	20
0	5398	1044.069357569484	19
0	5403	1044.715085494059	18
0	5409	1046.124013899578	17
0	5417	1047.030921183266	18
0	5420	1047.72377971671	17
0	5425	1047.7715508517	16
0	5431	1047.87422917328	17
0	5432	1048.898965938346	16
0	5439	1050.276232920621	15
0	5446	1052.629768844694	14
0	5452	1054.103169381606	15
0	5453	1054.407083152314	14
0	5457	1054.592085660026	15
0	5461	1055.692166707516	16
0	5465	1056.326316610311	17
0	5466	1056.543885928543	16
0	5470	1056.793582103231	17
0	5474	1057.336255654463	16
0	5483	1059.233484870906	15
0	5488	1060.179550222624	14
0	5494	1060.692244515709	15
0	5497	1060.927297657568	16
0	5498	1061.859963614958	15
0	5504	1062.096554808964	16
0	5506	1062.103782354099	17
0	5508	1062.648378884227	16
0	5514	1063.227296983947	17
0	5517	1064.732235069588	16
0	5523	1065.908035353008	17
0	5527	1066.340342723756	18
0	5528	1066.359731541407	17
0	5534	1066.446997584356	18
0	5535	1066.626122005833	17
0	5540	1066.812908377673	16
0	5546	1067.800382813558	15
0	5551	1067.83730340849	14
0	5557	1068.052481277559	15
0	5558	1068.129571455647	14
0	5564	1068.759360500597	15
0	5565	1071.448103554429	14
0	5571	1073.17307235743	13
0	5576	1073.406275695573	12
0	5580	1073.943811175638	13
0	5583	1074.888892532177	12
0	5588	1075.762150553007	11
0	5592	1075.873655602655	12
0	5594	1076.963801907548	13
0	5600	1078.241185171556	12
0	5606	1078.335023941852	13
0	5607	1078.426967217971	12
0	5611	1078.452621568436	13
0	5613	1079.717968566786	14
0	5616	1080.787692385758	13
0	5620	1082.006291342631	14
0	5625	1083.786566443096	13
0	5631	1084.974482692958	14
0	5632	1085.390127882303	13
0	5636	1086.34757100917	14
0	5638	1086.550363769685	15
0	5642	1088.107017779815	14
0	5650	1089.924151407453	13
0	5656	1090.606698071294	14
0	5657	1090.986882838246	13
0	5663	1092.840154219607	14
0	5667	1092.944763058816	15
0	5668	1093.245901094826	14
0	5672	1093.529796210417	15
0	5674	1093.747627113258	16
0	5678	1095.607972522968	17
0	5682	1095.744503648728	18
0	5685	1096.358634444839	17
0	5692	1099.971059148925	16
0	5697	1101.38496608845	15
0	5702	1103.664523412388	14
0	5708	1105.613367585029	15
0	5711	1106.205428599306	14
0	5716	1106.971947406885	13
0	5720	1107.880345393763	14
0	5726	1109.052158610039	15
0	5727	1109.297682207235	14
0	5732	1109.317510742847	13
0	5738	1110.767473357674	12
0	5744	1111.335620827278	11
0	5749	1111.502982406907	10
0	5753	1111.764533728965	11
0	5759	1112.790559625831	12
0	5760	1113.471919777116	11
0	5765	1114.219106828437	10
0	5773	1115.789713877785	11
0	5775	1116.430470239358	10
0	5781	1116.445211634266	11
0	5783	1117.412334885214	10
0	5789	1117.838584533376	11
0	5792	1118.582474482421	10
0	5797	1119.603995242731	9
0	5803	1120.424096210839	10
0	5806	1121.714294594641	11
0	5808	1122.000385531499	12
0	5809	1122.04549350237	11
0	5814	1123.790901765939	10
0	5821	1124.7891302827	11
0	5823	1124.903126623691	10
0	5829	1125.030891436907	11
0	5832	1126.588952308705	12
0	5833	1126.91873506126	11
0	5838	1127.104800184924	10
0	5844	1128.739541214234	9
0	5849	1129.088942517619	8
0	5853	1129.828570520348	9
0	5856	1131.692897720423	8
0	5860	1131.708135801089	9
0	5862	1133.474559424702	10
0	5864	1134.945109374038	11
0	5867	1135.613985542285	10
0	5873	1138.334291836105	11
0	5876	1138.397239520559	10
0	5881	1139.286238143992	9
0	5885	1140.632287806098	10
0	5891	1143.576356936745	11
0	5892	1144.700795935204	10
0	5899	1146.800863910651	9
0	5903	1147.581883754796	10
0	5906	1148.62456272144	9
0	5910	1148.914805891414	10
0	5915	1150.038342898333	9
0	5920	1150.695926500868	8
0	5924	1150.853396166447	9
0	5928	1151.040329718904	10
0	5929	1151.259769629362	9
0	5933	1151.35209917229	10
0	5935	1152.724215211646	11
0	5940	1153.934723117838	10
0	5946	1155.863278295052	11
0	5948	1155.864414294714	12
0	5949	1156.900347813713	11
0	5955	1158.247910335377	12
0	5956	1158.54227673401	11
0	5960	1158.637391722826	12
0	5966	1160.664228287709	13
0	5968	1160.738227067238	14
0	5969	1161.953611339812	13
0	5974	1162.232216386397	12
0	5979	1162.406238944174	11
0	5984	1163.896455782277	10
0	5988	1164.188716674426	11
0	5992	1164.628231478399	12
0	5993	1165.464624593541	11
0	5997	1166.916996892935	12
0	6000	1167.098250649664	11
0	6004	1167.133261244773	12
0	6006	1167.257584622725	13
0	6010	1168.992779579435	14
0	6011	1169.373238772522	13
0	6018	1170.927883093947	12
0	6023	1171.110342950954	11
0	6027	1171.558642000481	12
0	6029	1171.86722378581	13
0	6032	1172.848283059485	12
0	6037	1174.160821622735	11
0	6043	1174.582490124801	12
0	6044	1175.159747701034	11
0	6049	1175.479078567332	10
0	6054	1175.80422146282	9
0	6063	1178.729785630349	10
0	6064	1179.568102456052	9
0	6069	1181.083290504585	8
0	6076	1182.511961098273	7
0	6081	1182.821961098592	6
0	6085	1182.885183003752	7
0	6088	1185.700394983875	6
0	6092	1186.059964102706	7
0	6099	1186.75655473158	6
0	6107	1187.8869099801	7
0	6108	1188.909388896002	6
0	6113	1189.468644823109	5
0	6118	1191.697087058979	4
0	6125	1192.195121009709	3
0	6131	1192.831342849708	4
0	6132	1193.103073639793	3
0	6140	1193.607283235863	4
0	6142	1194.324063199572	5
0	6143	1194.324315469221	4
0	6150	1194.701072617788	3
0	6154	1194.937675440773	4
0	6157	1197.399754380163	3
0	6161	1197.431634427275	4
0	6165	1198.88440008257	5
0	6168	1199.386383043845	4
0	6172	1201.349573571344	5
0	6177	1203.287480356282	4
0	6183	1204.242370130382	5
0	6184	1204.367415704899	4
0	6191	1206.195117708014	3
0	6201	1206.987442356851	2
0	6209	1208.273910528564	1
0	6214	1208.31211083545	0
0	6226	1211.342232646249	1
0	6227	1212.354028554373	0
0	6231	1212.678763900999	1
0	6233	1212.732988274022	2
0	6238	1214.509182083043	1
0	6243	1214.584654657224	0
0	6254	1214.872143384549	1
0	6256	1215.69153507655	0
0	6268	1216.299460763422	1
0	6270	1216.760374165944	2
0	6271	1216.769453176834	1
0	6277	1216.869775923488	2
0	6278	1216.971998349008	1
0	6282	1217.207622892559	2
0	6284	1217.501803240022	3
0	6286	1218.082193368223	4
0	6289	1218.424404482854	3
0	6295	1218.746319904501	4
0	6300	1219.385067478791	5
0	6301	1219.620722541421	4
0	6306	1220.265071473713	3
0	6311	1221.071895015834	2
0	6316	1221.859831331085	1
0	6322	1222.682150106878	2
0	6324	1224.62566295387	1
0	6329	1224.742910792626	0
0	6333	1227.021048027121	1
0	6335	1227.649239635183	2
0	6337	1228.500340264429	3
0	6339	1229.14421603976	4
0	6345	1230.637268632884	5
0	6346	1231.19197338192	4
0	6350	1232.050218428789	5
0	6354	1232.224394558512	6
0	6356	1232.28586759878	7
0	6360	1232.556531648098	8
0	6365	1233.751794554262	9
0	6366	1234.333575737411	8
0	6371	1235.80292815795	7
0	6376	1236.907539985641	6
0	6387	1242.547936334594	7
0	6388	1242.908673778878	6
0	6396	1243.555354140236	7
0	6399	1243.753252719178	6
0	6406	1246.100832374061	5
0	6412	1246.226136628181	6
0	6413	1246.498622991536	5
0	6418	1247.074091907908	4
0	6427	1248.891881006833	5
0	6428	1250.065076490405	4
0	6438	1250.353678191125	3
0	6444	1250.570175583371	4
0	6445	1250.675857997414	3
0	6449	1250.908688638307	4
0	6451	1251.266350371697	5
0	6455	1251.821929579972	6
0	6456	1252.179127816048	5
0	6461	1253.228715537745	4
0	6466	1255.769087059991	3
0	6471	1256.758485210801	2
0	6475	1259.288451903139	3
0	6478	1262.73818471908	2
0	6483	1263.702402758923	1
0	6487	1263.712630866031	2
0	6491	1265.004963500248	3
0	6492	1265.015336714636	2
0	6496	1265.140546868048	3
0	6499	1265.823746431611	2
0	6503	1269.208585612199	3
0	6505	1269.643352390955	4
0	6508	1269.931962429464	3
0	6515	1271.50685752284	2
0	6520	1273.244512676803	1
0	6524	1273.367422021622	2
0	6530	1275.266735601875	1
0	6537	1276.486463381807	0
0	6549	1277.31965259243	1
0	6553	1279.438638413031	2
0	6554	1279.790213611006	1
0	6560	1279.95478153049	0
0	6597	1282.835477014376	1
0	6601	1283.177374726856	2
0	6605	1287.614609914265	3
0	6606	1287.714258935115	2
0	6612	1287.911356802291	3
0	6614	1287.953540201439	4
0	6615	1288.41442959076	3
0	6619	1288.986263541996	4
0	6621	1289.263204957565	5
0	6627	1290.324186724477	6
0	6629	1290.746195371193	7
0	6631	1291.147315146488	6
0	6637	1292.176440585315	5
0	6642	1292.394932464601	4
0	6647	1292.71702774466	3
0	6651	1292.73552359123	4
0	6654	1293.465839357665	3
0	6658	1293.884827809823	4
0	6660	1294.674673376819	5
0	6663	1295.161008673037	4
0	6671	1296.985697951107	3
0	6680	1297.521163476298	4
0	6681	1297.586387423878	3
0	6686	1297.624975652148	2
0	6692	1298.177750296556	3
0	6694	1300.022247175688	2
0	6700	1301.398473906914	1
0	6706	1301.56190603566	2
0	6708	1302.046459917266	3
0	6710	1302.278676250049	2
0	6716	1302.32719879307	3
0	6717	1302.855437067405	2
0	6723	1305.103802269807	3
0	6725	1305.696534170752	4
0	6728	1306.518493978738	5
0	6729	1306.904480862989	4
0	6734	1307.255306359407	3
0	6741	1309.316882411443	2
0	6748	1312.336290479005	1
0	6753	1312.703043424457	0
0	6774	1315.305596808174	1
0	6777	1316.66012321338	0
0	6783	1317.032701730589	1
0	6785	1317.75278455721	0
0	6799	1320.192721613167	1
0	6803	1320.836395016171	2
0	6808	1322.367120298702	1
0	6816	1322.972529118184	2
0	6817	1323.138145753473	1
0	6827	1324.380674422588	2
0	6828	1324.444804658795	1
0	6833	1325.161510012306	0
0	6882	1330.291832279364	1
0	6884	1330.853233314173	0
0	6907	1332.839651021383	1
0	6910	1333.609691336261	0
0	6919	1334.658298146424	1
0	6925	1335.488100327363	2
0	6926	1336.585415050672	1
0	6934	1337.08424899553	2
0	6935	1337.112527115368	1
0	6940	1337.342151081706	0
0	6947	1338.162718484586	1
0	6949	1338.311629738201	2
0	6950	1338.317209644278	1
0	6955	1338.515727069171	0
0	6973	1342.38411227165	1
0	6976	1342.886278726329	0
0	6982	1343.006342236722	1
0	6983	1343.113727189272	0
0	7007	1348.436327100393	1
0	7010	1350.225499431392	0
0	7032	1355.965891907088	1
0	7038	1356.562877328878	0
0	7051	1357.025387565534	1
0	7054	1357.932682435551	0
0	7063	1359.300806834541	1
0	7067	1359.693424447535	2
0	7068	1359.790078502494	1
0	7072	1360.101842927055	2
0	7076	1360.577028129423	3
0	7077	1361.161208959912	2
0	7082	1363.059513616545	1
0	7086	1364.525197978515	2
0	7091	1365.258759513364	1
0	7100	1368.492959624392	0
0	7104	1368.532668256233	1
0	7107	1369.892496666829	0
0	7118	1373.256642909043	1
0	7122	1373.981375586952	2
0	7123	1374.05327914966	1
0	7131	1377.327180081114	2
0	7133	1378.404333764283	3
0	7138	1379.337136467058	2
0	7142	1379.763767998249	3
0	7150	1382.75510251363	4
0	7151	1382.926281876824	3
0	7155	1383.721339119009	4
0	7157	1383.97938852041	5
0	7161	1385.262487700493	6
0	7164	1385.610277013557	7
0	7166	1387.226127927212	6
0	7172	1387.692240631651	5
0	7177	1388.083840880479	4
0	7184	1388.735858935685	3
0	7190	1389.348608143199	4
0	7194	1390.09311725567	3
0	7200	1390.382834161373	4
0	7201	1390.403834096996	3
0	7206	1391.291170359167	2
0	7211	1394.786088458153	1
0	7215	1394.824832281739	2
0	7217	1395.116178658403	3
0	7221	1396.631564430543	4
0	7224	1396.927579683729	3
0	7228	1397.376571132245	4
0	7230	1398.721812766057	5
0	7234	1399.262091552689	6
0	7237	1400.032565027528	5
0	7241	1400.307341893119	6
0	7243	1400.600360515917	7
0	7245	1400.953283114318	8
0	7248	1401.18885208869	7
0	7254	1402.18202583536	8
0	7256	1403.270635073716	9
0	7259	1403.952506647383	8
0	7267	1404.296844197918	9
0	7268	1404.315372944814	8
0	7277	1407.122788150606	9
0	7279	1408.199787930335	10
0	7280	1408.810445935152	9
0	7286	1410.167401619375	10
0	7287	1410.787901202973	9
0	7291	1412.138332658949	10
0	7294	1413.559699886818	9
0	7298	1414.485356009983	10
0	7300	1414.877467587082	11
0	7302	1414.983847605593	12
0	7306	1416.953035407696	11
0	7311	1417.093850825816	10
0	7315	1417.885017618265	11
0	7319	1419.130526403527	12
0	7323	1419.543201537451	11
0	7328	1420.570348829743	10
0	7333	1421.534571478664	9
0	7340	1422.307925694481	8
0	7344	1423.361373066609	9
0	7349	1424.640834980033	10
0	7350	1424.820022262661	9
0	7356	1425.006291137691	10
0	7358	1425.415907863443	11
0	7360	1425.491713978849	12
0	7361	1426.036417422842	11
0	7367	1428.182223883131	10
0	7373	1429.167596000156	9
0	7378	1430.494538737843	8
0	7383	1431.584457492886	7
0	7387	1433.538380711166	8
0	7390	1434.136624091686	7
0	7395	1435.295182070857	6
0	7401	1435.857785323679	7
0	7402	1437.006835191655	6
0	7409	1440.222897987804	5
0	7414	1441.27360146828	4
0	7422	1442.165757578554	5
0	7429	1443.820948309893	4
0	7438	1444.778129801434	3
0	7442	1444.895975735538	4
0	7445	1446.046356154275	3
0	7451	1446.953015373289	2
0	7456	1447.172087375584	1
0	7463	1447.790037682712	2
0	7464	1448.621555976288	1
0	7469	1448.809440327301	0
0	7482	1453.129128644306	1
0	7485	1454.047932756087	0
0	7526	1460.962686014028	1
0	7528	1461.575339404473	0
0	7537	1461.997722768475	1
0	7543	1463.324666550201	2
0	7546	1463.641350074391	3
0	7548	1465.495434119551	4
0	7549	1465.847197826596	3
0	7555	1466.169565715892	4
0	7558	1467.108477231014	3
0	7565	1469.013112180314	4
0	7567	1469.036407544187	5
0	7568	1470.650461767728	4
0	7573	1470.845142179685	3
0	7579	1471.78410300195	2
0	7585	1472.642821744821	1
0	7594	1474.183902070838	0
0	7601	1475.045079996463	1
0	7602	1475.467960302372	0
0	7639	1478.167388385697	1
0	7640	1478.396783931927	0
0	7658	1480.140757385545	1
0	7659	1480.209243159533	0
0	7678	1483.245586092352	1
0	7680	1483.901172752762	2
0	7682	1484.601035698095	3
0	7683	1485.377536075837	2
0	7689	1485.443452376985	3
0	7690	1485.956217576511	2
0	7696	1486.238476152708	3
0	7697	1486.244978576296	2
0	7702	1486.986857523236	1
0	7707	1487.5383006617	0
0	7711	1487.852619389391	1
0	7715	1488.259156566112	2
0	7716	1488.388241946572	1
0	7720	1489.242825040037	2
0	7722	1489.863601871889	3
0	7726	1490.553588064579	4
0	7727	1490.923966346669	3
0	7731	1491.167739797476	4
0	7734	1491.552812279983	3
0	7739	1492.628604278642	2
0	7745	1493.102062013166	1
0	7751	1493.132525686013	2
0	7752	1493.169396922718	1
0	7757	1493.737795188007	0
0	7766	1494.405788784733	1
0	7768	1494.949195650181	2
0	7770	1495.93164682156	1
0	7775	1496.574138629228	0
0	7779	1496.686434931602	1
0	7784	1501.956696092247	2
0	7785	1502.059975215952	1
0	7790	1502.195145877045	0
0	7815	1505.767826381944	1
0	7817	1507.49425487711	2
0	7821	1508.880580153722	3
0	7824	1509.819509011352	2
0	7831	1510.461213670634	1
0	7838	1510.953427761824	2
0	7839	1511.693334484269	1
0	7845	1512.07047060152	2
0	7846	1512.241838473497	1
0	7854	1514.132253302472	0
0	7858	1514.649469599263	1
0	7860	1516.157352146316	2
0	7863	1516.566535615113	1
0	7869	1517.373020836014	2
0	7871	1519.107291991415	1
0	7876	1519.584906785996	0
0	7880	1519.718549148773	1
0	7886	1520.482220542878	2
0	7889	1521.036901758523	3
0	7890	1521.533713329472	2
0	7896	1521.640066744278	3
0	7898	1522.173866945137	2
0	7903	1522.390463579581	1
0	7907	1522.670177877984	2
0	7909	1522.83937060493	3
0	7912	1523.546730393951	2
0	7916	1525.12098351557	3
0	7918	1525.607587888221	4
0	7921	1526.066441667	3
0	7925	1526.297991378774	4
0	7929	1527.253459683928	5
0	7930	1527.431839289724	4
0	7936	1527.886554259246	3
0	7942	1528.102820327172	4
0	7945	1531.12650311777	3
0	7950	1531.262954198714	2
0	7958	1531.949651306537	1
0	7963	1532.150292207336	0
0	7982	1534.223377135666	1
0	7985	1536.12345318837	0
0	7994	1537.426017326612	1
0	7997	1537.760972050775	0
0	8008	1544.041298746014	1
0	8011	1544.862268982849	0
0	8026	1547.705707093482	1
0	8028	1548.016836425728	2
0	8035	1551.732841442227	1
0	8041	1551.771798348865	2
0	8043	1551.915378358645	1
0	8049	1552.51485848148	2
0	8050	1553.275247520053	1
0	8060	1554.797919825309	2
0	8061	1555.115040210141	1
0	8066	1556.83639288107	0
0	8099	1561.90676727827	1
0	8101	1563.095099767371	2
0	8106	1566.25631528284	1
0	8114	1567.476557609371	2
0	8116	1568.573773456901	3
0	8118	1568.929671217585	4
0	8121	1569.801425002631	3
0	8127	1570.119908125435	2
0	8133	1570.225037313776	1
0	8138	1570.426616950733	0
0	8157	1572.096219866281	1
0	8160	1572.783862572455	0
0	8167	1574.159719619982	1
0	8170	1575.336551949662	0
0	8178	1575.649325705158	1
0	8179	1575.650985857561	0
0	8191	1576.952664819651	1
0	8192	1577.024658607015	0
0	8198	1578.805571217945	1
0	8201	1580.690408424099	0
0	8207	1580.981570975418	1
0	8209	1581.413270479079	0
0	8215	1581.51235602999	1
0	8216	1581.855739229614	0
0	8235	1586.084602292389	1
0	8238	1587.274758200015	0
0	8260	1592.91274637562	1
0	8269	1593.916692437217	0
0	8278	1594.944206911756	1
0	8280	1595.97931112207	2
0	8282	1597.2159919879	3
0	8285	1598.582611507247	2
0	8289	1600.641693209168	3
0	8297	1604.137115066716	4
0	8298	1604.231248441928	3
0	8303	1608.455816604316	2
0	8307	1608.486056037913	3
0	8315	1611.766273775335	4
0	8316	1612.193157446658	3
0	8320	1612.506891971162	4
0	8325	1613.332311761438	3
0	8330	1613.627356550165	2
0	8336	1614.787827972159	1
0	8342	1616.506508828416	0
0	8354	1616.796008530705	1
0	8356	1617.231091161351	0
0	8387	1621.270875925698	1
0	8388	1621.665853112309	0
0	8399	1623.616312382696	1
0	8401	1624.186056783362	0
0	8416	1625.176933026323	1
0	8419	1626.900252794057	0
0	8432	1630.537389914974	1
0	8434	1631.149134092639	0
0	8455	1634.493646490248	1
0	8458	1634.806681645705	0
0	8465	1635.374754897887	1
0	8467	1635.722852615088	0
0	8488	1638.683977291192	1
0	8490	1638.896539199712	2
0	8491	1639.327013970612	1
0	8497	1640.467309032761	0
0	8529	1646.099335769019	1
0	8530	1646.184688974787	0
0	8566	1652.99102330315	1
0	8570	1655.406841401182	2
0	8573	1656.330137369892	1
0	8578	1656.42760809778	0
0	8585	1656.561649872371	1
0	8590	1659.051098976658	2
0	8593	1659.987752359126	1
0	8599	1661.144062264136	0
0	8624	1669.322698028192	1
0	8628	1670.008315725066	2
0	8633	1674.096695653647	1
0	8639	1674.671333151358	2
0	8640	1674.704111936835	1
0	8645	1674.76263204073	0
0	8649	1675.243243157955	1
0	8651	1676.055494367068	2
0	8657	1677.702170328072	3
0	8658	1677.863202349808	2
0	8662	1677.94157739529	3
0	8664	1678.277198807287	4
0	8668	1678.870098114993	5
0	8670	1678.95089468796	6
0	8672	1680.68617819627	7
0	8677	1684.302512073933	6
0	8682	1684.686455996993	5
0	8689	1687.279599222628	4
0	8695	1688.720816159436	5
0	8696	1689.616842695135	4
0	8701	1689.837772429609	3
0	8707	1690.391808689977	2
0	8714	1691.201355807301	1
0	8721	1692.484598274364	0
0	8727	1694.53796201303	1
0	8732	1697.483792670801	0
0	8744	1700.412729790031	1
0	8747	1701.280155434941	0
0	8794	1706.938768437873	1
0	8796	1707.354572553371	2
0	8797	1708.005545397718	1
0	8803	1708.303539574167	0
0	8817	1708.495397023012	1
0	8820	1709.539094503633	0
0	8826	1711.590716857795	1
0	8827	1711.848950410338	0
0	8849	1716.124475728478	1
0	8851	1716.82427851256	2
0	8852	1716.935167854276	1
0	8865	1720.120519455676	2
0	8867	1720.706783504824	3
0	8869	1722.194102810196	2
0	8875	1722.803871737348	3
0	8878	1723.676589341366	4
0	8881	1723.907283479205	3
0	8886	1726.969039653381	2
0	8893	1727.36914703269	3
0	8894	1727.80018359474	2
0	8899	1728.079011744846	1
0	8904	1729.683655832375	0
0	8912	1731.005888942727	1
0	8914	1731.26774824272	2
0	8915	1731.33408001437	1
0	8921	1731.705857353242	2
0	8923	1731.709590111271	3
0	8925	1732.401636316853	4
0	8926	1734.576340872079	3
0	8930	1735.054217843974	4
0	8935	1736.464094958652	3
0	8939	1738.114661287803	4
0	8944	1738.952783502119	3
0	8950	1739.015417449299	4
0	8951	1739.999886999162	3
0	8956	1740.92934618303	2
0	8964	1743.297848328079	1
0	8970	1743.475417297055	0
0	8999	1747.720435359269	1
0	9000	1747.896106733109	0
0	9007	1748.55627930754	1
0	9009	1749.339450884471	0
0	9015	1751.94647981718	1
0	9016	1752.172466600804	0
0	9022	1753.447924822053	1
0	9026	1754.117611193608	2
0	9033	1756.240562080533	1
0	9040	1757.44607507595	0
0	9066	1759.920378091518	1
0	9072	1761.307215457603	2
0	9074	1762.657944901335	3
0	9076	1762.918344258877	4
0	9078	1763.654432306595	5
0	9079	1764.169942612133	4
0	9086	1764.540608241332	3
0	9091	1764.785205322015	2
0	9095	1767.165320414182	3
0	9100	1768.24677532247	4
0	9104	1770.992736424328	5
0	9105	1771.51639193799	4
0	9113	1772.68975149747	3
0	9118	1772.781585577041	2
0	9124	1774.265985011762	3
0	9125	1774.829857100799	2
0	9130	1775.97982801238	1
0	9138	1777.738173550705	0
0	9158	1780.084671635214	1
0	9161	1781.901075408478	2
0	9165	1783.960443292969	1
0	9170	1785.237435156671	0
0	9195	1788.377828403119	1
0	9199	1791.515414834569	2
0	9201	1792.147183913624	3
0	9202	1792.683084035603	2
0	9210	1793.053969806423	1
0	9216	1793.379201113851	0
0	9241	1797.849081987758	1
0	9243	1798.652681899911	0
0	9254	1799.495182563768	1
0	9257	1801.022797434401	0
0	9263	1801.996502094796	1
0	9264	1802.081213008811	0
0	9292	1806.704423436715	1
0	9296	1807.603225846367	2
0	9297	1807.613927342237	1
0	9305	1808.181359659144	2
0	9307	1808.50878024745	3
0	9308	1808.587132126104	2
0	9313	1808.839167024294	1
0	9319	1808.944180469762	2
0	9320	1809.719337500354	1
0	9324	1809.783721381285	2
0	9329	1812.901078788704	3
0	9330	1813.151180182812	2
0	9336	1813.236772596697	3
0	9337	1814.267014072504	2
0	9342	1814.780700655128	1
0	9347	1815.41709786399	0
0	9402	1823.658516055907	1
0	9405	1825.314334207749	0
0	9435	1828.946714809714	1
0	9436	1829.086775635035	0
0	9445	1829.662631641086	1
0	9454	1833.011294992634	2
0	9457	1835.988664747078	1
0	9462	1836.194836267454	0
0	9473	1837.877347280352	1
0	9475	1838.294571672736	2
0	9482	1839.617556039604	3
0	9483	1841.459785707476	2
0	9490	1842.362821259617	1
0	9496	1842.397533884754	2
0	9498	1842.590679250556	1
0	9503	1842.967109381185	0
0	9515	1843.781616681101	1
0	9517	1844.911947237781	2
0	9520	1845.188614829559	3
0	9521	1845.404007820649	2
0	9527	1845.463832813736	1
0	9534	1846.290091772781	0
0	9551	1847.505141812972	1
0	9553	1847.594879839696	2
0	9556	1847.822754160061	1
0	9561	1847.975259566172	0
0	9581	1849.398577092907	1
0	9582	1850.527955661165	0
0	9589	1850.81718935645	1
0	9591	1853.199528406383	2
0	9592	1853.28874144629	1
0	9599	1854.018603873535	0
0	9607	1854.540427535968	1
0	9610	1854.849525153748	0
0	9622	1856.940005703488	1
0	9624	1858.606921824008	0
0	9638	1859.057975556129	1
0	9648	1861.991626635876	2
0	9650	1862.98482996981	1
0	9657	1865.849801364767	0
0	9668	1867.461347894454	1
0	9670	1867.696969083839	0
0	9677	1869.337357779756	1
0	9678	1870.103624263315	0
0	9684	1870.390238668121	1
0	9685	1871.408731884456	0
0	9708	1875.097424702605	1
0	9710	1875.444577721861	2
0	9711	1875.934120535583	1
0	9717	1877.607587091792	0
0	9744	1883.894063431761	1
0	9747	1886.301005158726	0
0	9760	1887.87763314105	1
0	9762	1888.736458741347	2
0	9763	1888.778625465228	1
0	9768	1888.977705779743	0
0	9789	1894.891558622616	1
0	9792	1899.732789438106	0
0	9802	1903.057365852932	1
0	9808	1904.753727086235	2
0	9811	1905.721976964322	1
0	9818	1906.416443206618	0
0	9847	1910.873755833473	1
0	9851	1911.902846463378	2
0	9854	1913.452719847208	1
0	9859	1913.569698048013	0
0	9880	1916.04458486845	1
0	9884	1918.399545400948	0
0	9899	1921.025682088036	1
0	9904	1921.759329674832	0
0	9920	1923.783188773393	1
0	9926	1926.886936667968	0
0	9937	1927.306021476184	1
0	9939	1927.540575255503	0
0	9962	1930.100606902326	1
0	9965	1932.169250085815	0
0	9980	1934.593321386449	1
0	9984	1936.468219533614	0
0	10005	1945.190773007818	1
0	10007	1945.512315615852	2
0	10012	1946.358289633116	1
0	10018	1947.415229445913	0
0	10029	1948.999880286313	1
0	10031	1950.082596531832	0
0	10041	1951.435694234682	1
0	10045	1955.776936893567	2
0	10046	1956.017910481034	1
0	10052	1957.008220573246	0
0	10075	1959.85889236668	1
0	10083	1963.108191802232	2
0	10085	1964.08925510338	3
0	10087	1964.374603656147	4
0	10088	1964.905351325787	3
0	10094	1965.43029644332	4
0	10096	1965.499095566893	5
0	10098	1966.683058462846	4
0	10103	1966.937642731559	3
0	10107	1967.039620606332	4
0	10109	1967.704408150401	5
0	10111	1967.854483755305	6
0	10113	1969.011418034291	7
0	10116	1969.167926674539	6
0	10126	1970.348820008115	5
0	10131	1970.800702348485	4
0	10136	1971.17928800137	3
0	10142	1973.046166847117	4
0	10144	1973.070812601294	5
0	10148	1974.226167718444	4
0	10154	1974.249538436022	5
0	10156	1974.255107323721	6
0	10157	1974.303653579167	5
0	10162	1974.570086037805	4
0	10168	1975.178809538562	5
0	10170	1975.320709658077	6
0	10171	1975.961817039002	5
0	10177	1979.147445043953	6
0	10181	1980.411318526608	7
0	10184	1981.155032818391	6
0	10189	1982.028750178165	5
0	10194	1985.329427319688	4
0	10199	1985.502915469414	3
0	10207	1989.074172086378	4
0	10208	1989.833822025231	3
0	10216	1991.456818660786	2
0	10221	1991.724397981179	1
0	10226	1992.678757963133	0
0	10230	1993.254549585082	1
0	10232	1993.523712087296	2
0	10236	1994.271712777492	3
0	10238	1994.698650091565	4
0	10239	1994.955437932205	3
0	10245	1999.42525281084	4
0	10247	1999.712055029595	5
0	10248	2002.094948286629	4
0	10264	2004.251737332492	5
0	10265	2004.693427992501	4
0	10270	2005.611778030892	3
0	10276	2005.649785905484	4
0	10277	2005.720770591141	3
0	10281	2007.67314400843	4
0	10287	2008.600028124105	3
0	10292	2008.806511330779	2
0	10297	2010.589116702727	1
0	10301	2011.628475251255	2
0	10307	2012.796390031663	1
0	10312	2013.019502073672	0
0	10356	2018.841811554577	1
0	10358	2019.016090003258	2
0	10359	2019.031735247321	1
0	10365	2019.280099451044	2
0	10366	2019.682354337664	1
0	10371	2019.825218566721	0
0	10377	2021.055945787141	1
0	10379	2021.167424908056	2
0	10381	2021.632253800383	1
0	10385	2021.6512527702	2
0	10388	2022.277637084736	1
0	10394	2023.594571037818	0
0	10405	2025.182019343911	1
0	10406	2025.40571910349	0
0	10410	2025.573037080445	1
0	10414	2026.977435519721	2
0	10418	2027.821413849333	3
0	10420	2027.896627991198	4
0	10421	2027.962276595205	3
0	10426	2029.583382821668	2
0	10433	2030.663087297323	1
0	10437	2030.743696766921	2
0	10444	2033.153410086046	1
0	10449	2033.34754951187	0
0	10453	2034.276296193101	1
0	10460	2036.816034232685	2
0	10465	2037.744820798232	1
0	10471	2037.875355810812	2
0	10472	2037.894187975717	1
0	10478	2038.126857007314	0
0	10486	2038.502864039983	1
0	10487	2039.043093952654	0
0	10491	2039.117190644666	1
0	10494	2039.3970577938	0
0	10502	2041.60558058702	1
0	10503	2043.612964494088	0
0	10509	2044.845401907156	1
0	10514	2050.213160845578	0
0	10518	2050.724534707941	1
0	10521	2051.709242034045	0
0	10537	2054.131878669144	1
0	10538	2054.161870409504	0
0	10542	2054.700215157915	1
0	10546	2054.819483442394	2
0	10549	2055.425165861256	1
0	10555	2055.664172659129	0
0	10561	2055.960126196256	1
0	10562	2055.963593082114	0
0	10566	2056.039597304199	1
0	10569	2057.017963488278	0
0	10573	2058.088207023236	1
0	10575	2060.622304239902	2
0	10579	2060.78754571232	3
0	10581	2061.032837248793	2
0	10588	2062.326506189224	3
0	10594	2064.881862559398	2
0	10600	2066.30447957615	3
0	10601	2067.263636076286	2
0	10608	2071.223527422145	1
0	10613	2071.502575139971	0
0	10619	2072.008833955252	1
0	10620	2073.051398377463	0
0	10624	2073.340095642771	1
0	10630	2074.345022284077	2
0	10631	2074.997931147738	1
0	10637	2076.589155346701	2
0	10638	2076.722090760313	1
0	10644	2077.388434289855	2
0	10645	2077.414786691836	1
0	10651	2078.131429920942	2
0	10654	2079.264243272676	1
0	10662	2081.095367801985	0
0	10685	2082.495149390637	1
0	10687	2082.608765925329	2
0	10688	2084.082258309736	1
0	10697	2085.120799150077	2
0	10699	2085.274590291043	3
0	10700	2085.370657910329	2
0	10710	2088.660270647645	3
0	10712	2088.791397245574	4
0	10713	2089.316982128941	3
0	10719	2089.943913867261	2
0	10724	2090.750972803627	1
0	10730	2091.774294238519	0
0	10747	2093.008734054352	1
0	10752	2094.284310186188	0
0	10771	2095.306165962615	1
0	10773	2095.596356202166	2
0	10775	2095.755826534661	3
0	10777	2097.423597429456	4
0	10783	2099.894150815586	3
0	10789	2100.464424828522	2
0	10794	2100.74085204559	1
0	10800	2101.30704624097	2
0	10803	2102.51610900645	1
0	10808	2102.840150009133	0
0	10815	2104.227669697261	1
0	10816	2104.967542997062	0
0	10864	2111.403850113921	1
0	10868	2112.176631300014	0
0	10882	2113.52051107513	1
0	10887	2114.494671584544	2
0	10890	2115.092463277512	1
0	10896	2115.710159104909	2
0	10899	2116.782397705118	3
0	10900	2116.976134032021	2
0	10908	2117.538895623009	3
0	10909	2117.825833391153	2
0	10914	2118.344997452995	1
0	10919	2119.735065094387	0
0	10925	2121.196406453768	1
0	10926	2121.350792862527	0
0	10934	2123.096856080171	1
0	10935	2123.116560381857	0
0	10947	2126.36543078386	1
0	10949	2126.477760098658	0
0	10967	2129.694567300064	1
0	10971	2130.154460816219	2
0	10972	2130.606447894312	1
0	10977	2130.996412774527	0
0	11018	2137.901675619501	1
0	11019	2138.425604671567	0
0	11042	2141.086936176025	1
0	11044	2141.705557976976	2
0	11046	2141.836435651928	3
0	11050	2142.4260261182	4
0	11051	2142.612694973842	3
0	11060	2142.83662996694	4
0	11062	2144.398731805828	3
0	11067	2144.407943314396	2
0	11076	2146.101458696686	3
0	11080	2146.945592391676	4
0	11081	2147.366510721112	3
0	11087	2147.68972866634	4
0	11088	2147.717680087666	3
0	11095	2148.772441288545	2
0	11101	2149.561577785133	3
0	11103	2150.264484039536	2
0	11110	2151.768914914577	1
0	11116	2151.938681619577	2
0	11119	2152.567864386153	1
0	11124	2152.69877446501	0
0	11132	2154.576794036532	1
0	11135	2155.040643787098	0
0	11154	2156.536512399037	1
0	11155	2156.933831135194	0
0	11178	2163.925620214696	1
0	11185	2165.410124876343	0
0	11222	2172.776647915022	1
0	11228	2176.089535984114	0
0	11234	2176.138108667509	1
0	11236	2177.893744308142	0
0	11242	2177.932593766866	1
0	11243	2177.969554492184	0
0	11247	2178.429115119071	1
0	11253	2179.94735751561	2
0	11255	2180.901111964256	1
0	11264	2181.925093386419	0
0	11283	2183.002305973531	1
0	11284	2183.505635882798	0
0	11300	2185.126416679328	1
0	11303	2185.904801563148	0
0	11317	2191.094504308877	1
0	11319	2192.344470518925	2
0	11320	2192.95000205714	1
0	11325	2193.087721577105	0
0	11340	2194.228006108192	1
0	11342	2196.310017121466	2
0	11345	2197.319938468545	1
0	11351	2198.130251623399	0
0	11358	2199.221619423647	1
0	11359	2200.053033623714	0
0	11370	2201.333632542196	1
0	11374	2202.843339236764	0
0	11378	2202.992184449325	1
0	11383	2205.872188317371	2
0	11384	2206.315770127186	1
0	11388	2206.966074967598	2
0	11393	2207.56908989723	3
0	11394	2207.827910899823	2
0	11399	2208.455177522893	1
0	11405	2210.239568797084	2
0	11408	2210.661174027935	1
0	11414	2211.565068628892	0
0	11433	2213.564504608101	1
0	11436	2214.095234157362	0
0	11444	2215.580058299301	1
0	11445	2216.163105214687	0
0	11465	2218.256236617169	1
0	11467	2218.363460069669	2
0	11471	2219.663022742178	3
0	11474	2220.393264613074	4
0	11475	2220.492164179676	3
0	11482	2221.848051534888	2
0	11488	2223.022662210672	1
0	11494	2223.751169010789	2
0	11497	2226.307363173992	1
0	11503	2226.902398945617	0
0	11534	2231.098877686248	1
0	11537	2231.841633254307	0
0	11566	2235.299119472788	1
0	11567	2235.681097634731	0
0	11581	2240.5838235473	1
0	11583	2241.166975334359	0
0	11589	2241.1851229124	1
0	11590	2242.06295291604	0
0	11608	2242.758504924744	1
0	11610	2242.854616352921	2
0	11614	2243.586706046538	1
0	11620	2243.670110005894	2
0	11624	2244.457590770028	1
0	11628	2244.465742815956	2
0	11631	2246.552048745567	1
0	11635	2247.849469453247	2
0	11637	2248.234858344526	3
0	11639	2249.803100784299	4
0	11647	2252.466697914097	5
0	11648	2252.472301912668	4
0	11653	2253.112344835647	3
0	11658	2255.424670605014	2
0	11662	2256.070146201659	3
0	11666	2257.349742011873	4
0	11670	2257.829148500155	5
0	11671	2257.995268850629	4
0	11676	2259.093425611734	3
0	11680	2260.851565641766	4
0	11682	2260.872891231423	5
0	11685	2260.9494745937	4
0	11689	2261.727501144002	5
0	11699	2264.511319059301	4
0	11705	2264.609031470617	5
0	11707	2265.342426703369	6
0	11708	2265.516828764606	5
0	11715	2266.382582159265	4
0	11720	2267.851078301878	3
0	11724	2268.81855062609	4
0	11726	2270.14303653348	5
0	11730	2270.636305570018	6
0	11733	2273.100972466672	5
0	11740	2273.664794717477	4
0	11747	2275.771878564019	5
0	11748	2276.395436007238	4
0	11753	2276.548095738932	3
0	11758	2279.634295708053	2
0	11762	2282.045376499311	3
0	11764	2282.057193866905	4
0	11766	2282.280129731847	5
0	11769	2282.756690987747	4
0	11775	2282.905175175739	5
0	11779	2283.864210664496	6
0	11780	2284.353426086102	5
0	11785	2284.672368083999	4
0	11794	2285.633439901908	5
0	11798	2285.822227561223	6
0	11799	2285.985025785601	5
0	11805	2286.038791482164	6
0	11807	2286.272596672102	7
0	11808	2286.365052886383	6
0	11812	2286.776462894729	7
0	11814	2287.172237829794	8
0	11816	2287.194315415022	9
0	11821	2288.999502587627	8
0	11828	2289.702932467845	7
0	11832	2290.159702252988	8
0	11834	2290.175286826417	9
0	11837	2291.061324200506	8
0	11844	2291.732815795485	9
0	11845	2292.039988725286	8
0	11851	2293.172880296776	7
0	11857	2293.293613116493	8
0	11861	2295.56411291943	7
0	11867	2296.10172737833	8
0	11868	2297.689841698592	7
0	11873	2298.867794652078	6
0	11878	2300.760482719995	5
0	11882	2301.24355664437	6
0	11884	2302.224930271644	7
0	11888	2302.939730932578	8
0	11889	2303.666499136108	7
0	11894	2304.518630240648	6
0	11899	2304.768117928972	5
0	11903	2305.468437416133	6
0	11905	2305.703679054772	7
0	11909	2306.481767744402	8
0	11912	2306.816011880511	7
0	11919	2308.198494318948	8
0	11920	2308.578084332	7
0	11925	2309.622127434268	6
0	11931	2310.137316255731	7
0	11933	2312.117166439348	6
0	11938	2312.176589207104	5
0	11942	2312.285487082337	6
0	11944	2312.791884042177	7
0	11948	2315.287036326548	8
0	11950	2315.443469251145	9
0	11955	2317.509630548862	8
0	11960	2317.699811156515	7
0	11964	2317.770414215624	8
0	11969	2320.279602212337	7
0	11974	2321.724082670802	6
0	11979	2323.311687875416	5
0	11984	2323.896355033662	4
0	11990	2325.372029795299	5
0	11991	2325.588755008721	4
0	11997	2326.355802418986	3
0	12002	2326.462245167868	2
0	12006	2326.541779095372	3
0	12008	2326.780290060435	4
0	12014	2328.496117797767	3
0	12019	2329.480220551961	2
0	12023	2329.533690521936	3
0	12030	2331.112778718611	2
0	12035	2332.551917405677	1
0	12041	2333.548812168828	2
0	12047	2336.997631042001	3
0	12048	2339.068862243228	2
0	12056	2342.539375919784	1
0	12062	2344.302040855249	0
0	12073	2345.057771441156	1
0	12077	2346.200906997608	0
0	12099	2350.351338714569	1
0	12102	2351.25830271046	0
0	12113	2352.864134779482	1
0	12115	2353.211445700705	0
0	12121	2353.782545654643	1
0	12123	2354.59913160528	0
0	12143	2357.532463632383	1
0	12145	2358.157188371931	2
0	12147	2358.277768493337	3
0	12150	2358.856618665782	4
0	12153	2359.563390838348	3
0	12160	2359.934141910294	2
0	12167	2361.891242529553	1
0	12176	2363.37630558682	2
0	12177	2364.244394433722	1
0	12183	2364.290663196309	2
0	12187	2364.484259461747	1
0	12193	2364.65093636955	2
0	12196	2364.805656315518	3
0	12197	2364.975887962996	2
0	12202	2365.129551438312	1
0	12210	2366.159182052868	0
0	12232	2369.287321715172	1
0	12235	2369.951065396046	0
0	12243	2372.183012187749	1
0	12245	2373.064096824035	0
0	12269	2377.205129553039	1
0	12271	2377.974126206249	2
0	12273	2378.290115739735	3
0	12279	2380.713588047408	2
0	12286	2381.476883371316	1
0	12292	2381.736573578968	2
0	12294	2381.998626659036	3
0	12295	2382.685320039439	2
0	12301	2382.949414829184	3
0	12303	2382.949444299241	4
0	12305	2383.548692162804	3
0	12312	2384.599534363873	2
0	12317	2385.322937714147	1
0	12322	2385.68522843765	0
0	12330	2386.017044329516	1
0	12332	2387.176601067259	0
0	12341	2387.728568630221	1
0	12342	2388.659384466242	0
0	12355	2389.42030600346	1
0	12358	2389.692236379467	0
0	12362	2389.881771847096	1
0	12367	2392.351894584554	2
0	12373	2393.006418239762	1
0	12378	2393.890884506541	0
0	12398	2395.914981664404	1
0	12402	2396.698669335298	2
0	12405	2398.182787816196	1
0	12411	2398.77553832712	0
0	12448	2404.129254380047	1
0	12451	2404.974512678761	0
0	12460	2405.164673796888	1
0	12465	2406.629415274778	2
0	12467	2406.787631871297	1
0	12473	2406.914034578143	2
0	12474	2407.188712025863	1
0	12480	2408.063532310474	0
0	12484	2408.413319266754	1
0	12489	2409.995239821873	2
0	12491	2410.347790754947	1
0	12497	2410.57249920325	0
0	12513	2411.321847007071	1
0	12515	2411.559222950402	2
0	12518	2412.588831421537	3
0	12519	2412.869682540781	2
0	12524	2413.689156330179	1
0	12532	2414.395525413265	0
0	12536	2415.118532963103	1
0	12542	2417.60563885805	0
0	12548	2417.696306241591	1
0	12549	2418.186742583783	0
0	12553	2419.958057207837	1
0	12556	2420.088886611787	0
0	12575	2421.851511003238	1
0	12578	2422.719933823498	0
0	12585	2423.742117505806	1
0	12586	2423.859327852625	0
0	12605	2425.240462403014	1
0	12606	2425.710697107572	0
0	12615	2426.729357688074	1
0	12617	2427.247055173646	2
0	12619	2427.628070050428	3
0	12624	2428.825412992105	2
0	12634	2430.377882953047	1
0	12639	2430.584488598578	0
0	12645	2431.638397654633	1
0	12647	2431.677747986218	2
0	12648	2431.73070126507	1
0	12656	2432.612888825655	0
0	12668	2434.025282969372	1
0	12670	2434.082060917639	2
0	12671	2434.104300423471	1
0	12677	2434.450420299592	2
0	12678	2435.516604481935	1
0	12684	2436.268931460629	0
0	12688	2436.823639552713	1
0	12691	2438.205677499757	0
0	12720	2440.635222588804	1
0	12725	2442.104822415434	0
0	12736	2442.813077919896	1
0	12738	2443.144249673003	2
0	12740	2444.034966604439	1
0	12745	2444.235452696391	0
0	12752	2444.47744931628	1
0	12757	2447.855540260121	0
0	12768	2448.401158025491	1
0	12770	2448.601485973192	2
0	12771	2449.951765462792	1
0	12776	2450.403789904616	0
0	12794	2454.250522462105	1
0	12796	2454.66524600733	2
0	12801	2455.107787677862	3
0	12802	2455.993613709664	2
0	12807	2456.071085649593	1
0	12813	2457.103432623521	2
0	12814	2457.804636757616	1
0	12823	2458.803204285066	0
0	12829	2459.582912599287	1
0	12830	2460.544867227482	0
0	12839	2461.65590636817	1
0	12840	2462.845458914955	0
0	12853	2465.770881641183	1
0	12855	2466.035678138971	0
0	12896	2472.807013698599	1
0	12899	2473.40485036834	0
0	12920	2478.604032188431	1
0	12921	2479.147088878411	0
0	12927	2479.558942346661	1
0	12930	2480.181484171095	0
0	12937	2482.42538955619	1
0	12942	2483.702697583974	0
0	12963	2486.504335919578	1
0	12964	2486.660937857378	0
0	12971	2487.077093002601	1
0	12974	2487.948321658977	2
0	12975	2487.980031507	1
0	12981	2489.863741270537	2
0	12982	2490.993232099284	1
0	12987	2491.444782536113	0
0	13004	2492.499214618546	1
0	13012	2497.371363355145	0
0	13026	2498.475759212183	1
0	13028	2499.454777838187	0
0	13042	2502.318701679674	1
0	13043	2502.623665382553	0
0	13049	2503.17845505647	1
0	13050	2503.253978235573	0
0	13061	2504.085767436039	1
0	13063	2504.188553441801	2
0	13065	2504.581093378329	1
0	13070	2504.689480754682	0
0	13077	2505.997707355366	1
0	13078	2507.002372427504	0
0	13087	2507.229703484117	1
0	13092	2507.902140713798	2
0	13095	2508.401796327477	3
0	13099	2511.037350509365	4
0	13100	2511.463251551374	3
0	13105	2511.471846308284	2
0	13110	2511.935495450912	1
0	13114	2512.291746740996	2
0	13119	2513.906104993695	1
0	13125	2514.43867876031	2
0	13127	2514.884325231802	3
0	13130	2515.101146193966	2
0	13136	2515.172779943405	3
0	13137	2515.24426898058	2
0	13143	2517.446981427813	3
0	13144	2517.657692992109	2
0	13153	2519.500929271603	1
0	13159	2519.918736972985	0
0	13184	2525.649696421794	1
0	13187	2526.117916534687	0
0	13194	2526.692854173982	1
0	13196	2526.84499777926	2
0	13197	2527.031061464148	1
0	13202	2527.246035808734	0
0	13216	2528.079036932459	1
0	13217	2528.886298721836	0
0	13233	2532.034504827891	1
0	13240	2535.858634584679	0
0	13255	2537.978380036256	1
0	13257	2538.226649503404	2
0	13260	2539.738100592871	1
0	13266	2540.511719052328	0
0	13276	2541.316898289434	1
0	13278	2542.167132493767	2
0	13281	2544.81336320818	1
0	13286	2545.515657496867	0
0	13299	2551.13429216562	1
0	13302	2552.280038690982	0
0	13314	2554.505283807514	1
0	13316	2556.33932737964	0
0	13325	2556.684819418035	1
0	13327	2557.085718232701	2
0	13331	2558.030412658656	1
0	13340	2559.048303606302	0
0	13364	2560.389049066669	1
0	13366	2560.538782972628	2
0	13370	2561.623410225723	1
0	13375	2561.812460906459	0
0	13382	2562.461159356666	1
0	13385	2562.772032368347	0
0	13397	2563.506482575567	1
0	13400	2565.12506361167	0
0	13406	2565.262432774688	1
0	13408	2565.340185243675	2
0	13410	2565.641829444531	3
0	13416	2567.613365650824	4
0	13417	2567.829893358889	3
0	13423	2568.022026712315	4
0	13424	2568.028716114249	3
0	13431	2570.343849024604	2
0	13437	2571.790096154263	3
0	13438	2572.223032703637	2
0	13444	2572.4566859156	3
0	13448	2574.804127927935	2
0	13453	2575.830238623453	1
0	13462	2576.667233103314	0
0	13466	2576.814678638604	1
0	13468	2578.666542168212	2
0	13470	2579.124132242157	3
0	13472	2579.804175281467	4
0	13475	2581.950039421611	3
0	13479	2581.95683818565	4
0	13481	2584.358668895344	5
0	13488	2585.500359195119	4
0	13494	2586.23422979586	5
0	13495	2586.742775838153	4
0	13502	2588.036345267998	3
0	13507	2591.25389749151	2
0	13511	2591.514713164665	3
0	13517	2592.700815967959	2
0	13523	2594.130485965713	1
0	13528	2594.197777071258	0
0	13540	2596.240367824221	1
0	13545	2597.326534049349	2
0	13548	2597.67521419666	3
0	13550	2597.704488961134	4
0	13552	2598.223536888132	5
0	13553	2598.766607802864	4
0	13559	2600.059933854782	3
0	13565	2601.278914002009	2
0	13571	2601.410695782278	3
0	13572	2601.564054241658	2
0	13577	2601.89162310909	1
0	13581	2602.812207355909	2
0	13583	2603.154282023319	3
0	13585	2604.251663702907	4
0	13588	2604.703304888481	3
0	13595	2606.964775020223	4
0	13596	2607.052451345159	3
0	13603	2607.784112759538	4
0	13605	2608.532502258843	5
0	13607	2609.397809371754	4
0	13612	2609.70105717726	3
0	13617	2610.952605837642	2
0	13621	2611.428400692567	3
0	13625	2614.637772629084	4
0	13627	2614.705096690566	5
0	13630	2615.010210964276	4
0	13635	2615.340872388618	3
0	13640	2616.299918061293	2
0	13644	2616.878872918961	3
0	13648	2617.413932709359	4
0	13651	2620.736768007539	3
0	13658	2621.32018482989	4
0	13659	2622.316778469831	3
0	13665	2622.514252168074	4
0	13668	2622.550933730351	3
0	13673	2622.7517007137	2
0	13678	2623.993084073018	1
0	13683	2624.379400290402	0
0	13687	2625.987267426642	1
0	13690	2626.445733638678	0
0	13696	2628.798932377954	1
0	13697	2629.078525016262	0
0	13709	2632.998420872304	1
0	13710	2633.638600622158	0
0	13737	2636.302724773344	1
0	13746	2638.423853948792	0
0	13752	2639.153476186335	1
0	13753	2640.087854082493	0
0	13762	2641.961084815286	1
0	13765	2643.465744590816	0
0	13784	2645.471778868222	1
0	13786	2646.527262274515	2
0	13796	2650.318078553155	3
0	13799	2651.625218590911	2
0	13805	2651.857477516881	3
0	13807	2651.995061811861	2
0	13813	2652.386267212068	1
0	13818	2653.233663966571	0
0	13826	2657.040518801464	1
0	13830	2658.950966902132	2
0	13831	2659.581352067881	1
0	13837	2661.764394659471	2
0	13838	2662.355008904545	1
0	13843	2664.18133665258	0
0	13861	2665.853022477809	1
0	13862	2666.524622700901	0
0	13873	2667.862853691034	1
0	13875	2668.058783713078	2
0	13877	2668.606709143423	3
0	13881	2669.49715903038	2
0	13886	2669.514647843256	1
0	13890	2669.73325946229	2
0	13892	2672.235447519776	3
0	13896	2672.536497494008	4
0	13898	2672.639758904628	5
0	13901	2674.439044402769	4
0	13912	2675.779287332823	5
0	13913	2675.901410683259	4
0	13918	2676.054292228929	3
0	13924	2676.426665601625	4
0	13929	2677.50943308135	3
0	13934	2677.669676167322	2
0	13943	2678.553720923625	1
0	13947	2678.815487105271	2
0	13952	2679.806982417327	1
0	13957	2682.419113869882	0
0	13963	2682.555395176922	1
0	13964	2683.17235263922	0
0	13990	2688.043510694882	1
0	13992	2689.285771962162	0
0	13998	2689.570268764184	1
0	14000	2690.13741249893	0
0	14023	2693.854741111217	1
0	14027	2695.351561435872	2
0	14028	2695.384775918645	1
0	14033	2696.209815080169	0
0	14037	2697.75046938936	1
0	14040	2697.75557257103	0
0	14061	2700.374940315667	1
0	14069	2703.389769635311	2
0	14073	2705.072665906229	1
0	14082	2705.32085191133	2
0	14083	2705.539099090073	1
0	14090	2706.199576611645	0
0	14109	2707.061452494628	1
0	14112	2707.672500744679	0
0	14121	2709.861424761426	1
0	14122	2710.039188842805	0
0	14138	2712.376370607334	1
0	14139	2712.578652397719	0
0	14176	2718.534336056362	1
0	14177	2718.637302891027	0
0	14222	2727.737819039953	1
0	14227	2729.129153471188	0
0	14249	2733.736415819956	1
0	14251	2734.49183015312	2
0	14253	2734.739001424374	3
0	14259	2735.181865688704	4
0	14260	2735.345712566074	3
0	14266	2736.342849223865	2
0	14274	2736.790948585041	3
0	14275	2736.922299379814	2
0	14281	2737.032416751992	3
0	14282	2737.244894903522	2
0	14287	2737.319456050765	1
0	14292	2737.377160993697	0
0	14296	2737.683123588198	1
0	14308	2740.314074583283	0
0	14325	2741.367570802533	1
0	14326	2741.427056325403	0
0	14346	2744.462100359775	1
0	14347	2744.755716542208	0
0	14377	2751.779291222873	1
0	14378	2751.960901428123	0
0	14386	2752.780263745826	1
0	14388	2752.89642226897	2
0	14391	2753.37858595472	1
0	14396	2754.375292053213	0
0	14434	2759.100501566966	1
0	14436	2759.280434511145	2
0	14439	2760.454753553053	1
0	14444	2761.346348775236	0
0	14450	2761.742887521714	1
0	14453	2761.956880025293	2
0	14454	2762.197714673058	1
0	14459	2762.219544895642	0
0	14463	2762.51843970821	1
0	14465	2762.630778215377	2
0	14468	2763.649300008213	1
0	14473	2764.36872596403	0
0	14489	2766.661731939481	1
0	14491	2768.971981894695	2
0	14493	2769.599666349091	3
0	14499	2770.451157461775	4
0	14502	2771.097575644981	5
0	14504	2771.72689924391	4
0	14512	2772.545814051495	5
0	14514	2772.899662184418	6
0	14517	2773.976019176313	7
0	14518	2774.039059350417	6
0	14523	2774.129194045537	5
0	14528	2774.983098440095	4
0	14535	2776.104651303474	3
0	14540	2776.760270188682	2
0	14544	2776.926512968964	3
0	14547	2779.633366308009	2
0	14552	2780.223737725083	1
0	14556	2780.422404518063	2
0	14559	2780.63868504859	1
0	14565	2781.500704192439	2
0	14571	2784.028895367762	1
0	14576	2784.170184864313	0
0	14588	2785.491097913269	1
0	14589	2785.659749237946	0
0	14605	2786.915167543455	1
0	14606	2787.03995233064	0
0	14615	2787.693540585946	1
0	14619	2788.238226441303	2
0	14622	2788.478375591474	3
0	14624	2788.993359730485	2
0	14629	2789.11940685094	1
0	14636	2790.181329829619	0
0	14655	2790.692454872851	1
0	14660	2791.876609595047	0
0	14670	2795.263299372602	1
0	14672	2795.805997971694	2
0	14676	2796.299192424678	3
0	14678	2796.589649541145	4
0	14680	2797.335122974151	5
0	14681	2797.746500530082	4
0	14686	2797.861815985094	3
0	14690	2798.691681650197	4
0	14694	2799.436583600893	5
0	14696	2800.610663957305	4
0	14704	2802.362990873866	3
0	14710	2803.359880710988	2
0	14715	2803.481006394616	1
0	14726	2806.146668716402	0
0	14745	2807.438935862682	1
0	14747	2808.171456999674	2
0	14749	2809.699981518688	3
0	14755	2811.605935071549	4
0	14756	2812.924891701497	3
0	14760	2813.204458324237	4
0	14765	2814.018969265709	5
0	14767	2814.547634716082	4
0	14779	2816.34986477591	3
0	14784	2816.475226991884	2
0	14789	2817.20509598777	1
0	14793	2817.287491005046	2
0	14797	2817.810653714114	3
0	14804	2819.517865859206	2
0	14808	2819.638564327606	3
0	14815	2820.627700790903	2
0	14819	2820.667572299346	3
0	14822	2821.80045942077	2
0	14828	2822.09818205919	3
0	14831	2822.222934875604	2
0	14839	2824.11548464002	1
0	14844	2824.25451311407	0
0	14854	2825.917735347131	1
0	14855	2826.327661554484	0
0	14859	2826.815155839891	1
0	14862	2828.256791585957	0
0	14866	2828.592383469091	1
0	14870	2829.481214370265	2
0	14872	2829.684588785108	3
0	14874	2829.787514755643	4
0	14875	2829.864469063307	3
0	14884	2831.798939485181	2
0	14888	2832.536208700561	3
0	14893	2833.393461886587	2
0	14897	2834.164779785284	3
0	14900	2834.864998522106	2
0	14906	2837.177072521765	3
0	14907	2837.253660661606	2
0	14912	2838.460612802511	1
0	14919	2842.079541007806	0
0	14929	2843.491590158861	1
0	14931	2843.559889072034	2
0	14932	2843.742303720614	1
0	14939	2844.416061794941	0
0	14973	2849.655230481875	1
0	14975	2851.245602230909	0
0	14984	2853.975184319163	1
0	14988	2855.620017610504	2
0	14990	2856.043020649737	3
0	14996	2857.087343135432	4
0	15000	2858.048746026217	3
0	15006	2858.264318339585	4
0	15008	2859.237454149432	3
0	15014	2860.514833543795	2
0	15020	2860.927011893057	1
0	15025	2861.002426734184	0
0	15034	2863.024361865069	1
0	15036	2863.459806612361	2
0	15038	2863.69949762091	3
0	15040	2864.367854341883	4
0	15042	2866.407353973183	5
0	15044	2866.590352504328	6
0	15046	2867.353163019199	7
0	15053	2868.78479402424	8
0	15055	2869.032050267484	7
0	15060	2869.387160271292	6
0	15065	2870.574497375266	5
0	15069	2872.09362653689	6
0	15071	2872.317473915532	7
0	15073	2873.659868943191	8
0	15075	2874.102245210498	9
0	15080	2876.763046800275	8
0	15087	2878.181441800182	7
0	15091	2878.742998126747	8
0	15093	2879.098994471041	9
0	15096	2879.63213791613	8
0	15102	2881.056595183775	9
0	15104	2881.482423798301	10
0	15109	2882.165141286718	9
0	15115	2883.107947496756	8
0	15123	2884.347728710694	9
0	15127	2885.220605239366	10
0	15128	2885.266234761278	9
0	15133	2886.796245936673	8
0	15139	2887.43139880276	7
0	15146	2888.124648997272	8
0	15147	2888.38044835317	7
0	15155	2890.121903051312	6
0	15160	2890.133384096585	5
0	15166	2891.597422604666	4
0	15173	2892.098391754366	3
0	15178	2892.393364313529	2
0	15183	2892.54435038744	1
0	15189	2895.044805118716	2
0	15190	2895.17148108235	1
0	15195	2896.577343235452	0
0	15203	2897.8718274302	1
0	15206	2900.120867434694	0
0	15210	2900.352697322262	1
0	15212	2902.196548912176	2
0	15214	2902.525663721489	3
0	15216	2904.184311803435	4
0	15221	2905.63391857627	3
0	15228	2907.231261445415	4
0	15229	2907.410370040007	3
0	15235	2907.520589766379	4
0	15236	2907.814138764498	3
0	15240	2908.108692850831	4
0	15244	2909.302752170015	5
0	15248	2909.957712784946	6
0	15249	2910.465552265593	5
0	15257	2911.17055952106	6
0	15264	2913.954139461693	5
0	15269	2914.108862850472	4
0	15275	2914.905069327338	5
0	15276	2915.029358205863	4
0	15286	2917.778188824894	5
0	15287	2917.910075581062	4
0	15295	2920.357235333035	5
0	15297	2921.041818371562	6
0	15299	2921.159800886989	7
0	15303	2921.685750586978	6
0	15308	2922.157291162572	5
0	15315	2924.857196180376	4
0	15325	2929.199148923049	5
0	15327	2929.233282420982	6
0	15329	2929.658829545929	7
0	15330	2929.751873663391	6
0	15335	2930.571542783699	5
0	15342	2931.518934296495	4
0	15350	2932.95812920043	3
0	15355	2933.322470211607	2
0	15360	2934.106932141809	1
0	15365	2936.657097682692	0
0	15376	2938.186634771185	1
0	15377	2938.260968768278	0
0	15410	2947.048947766725	1
0	15411	2947.954725399974	0
0	15432	2954.149982243287	1
0	15433	2954.8534782016	0
0	15440	2955.4987037683	1
0	15441	2955.547281283331	0
0	15452	2957.422973129026	1
0	15456	2961.271156096582	0
0	15484	2964.494972862876	1
0	15490	2968.04833631964	2
0	15492	2969.480022109971	3
0	15494	2969.523189563661	4
0	15496	2970.233387065509	5
0	15498	2970.810058143833	6
0	15505	2972.464948151369	5
0	15512	2973.099910506408	6
[...]
5	150910	29060.698186150207	16.539212888466
5	150915	29062.860326299901	15.113069839763
5	150922	29065.222281528039	13.067810676111
5	150927	29065.697485010977	11.606977449219
5	150934	29066.701511427834	11.717268450973
5	150945	29068.752760708086	13.00704258889
5	150952	29069.138123497171	12.851578910374
5	150958	29069.831507975481	13.493876657198
5	150963	29070.146049958846	13.796323017234
5	150971	29072.094670650798	14.447628293851
5	150980	29073.867814322078	15.77801054722
5	150989	29076.745528787504	16.733656814077
5	150997	29077.69914580269	13.856791667937
5	151002	29078.38699848704	10.883310596357
5	151009	29082.973342231345	14.207774199568
5	151018	29084.948879230233	11.594119374314
5	151027	29086.907406379895	10.505119577372
5	151035	29088.038003989087	4.615890959346
5	151040	29088.455477174592	3.024452248493
5	151050	29089.755570120581	3.261773320524
5	151055	29090.538557570406	2.778365890341
5	151068	29092.827454112576	3.086493772815
5	151073	29092.954091567614	2.187982117064
5	151115	29100.269289786055	1.873453702356
5	151123	29100.950407823683	0.764555521782
5	151128	29101.807957936342	1.189700510821
5	151155	29106.28506049975	4.002815597508
5	151162	29107.086708166291	2.012246266235
5	151167	29107.223816223242	0.65878145487
5	151193	29110.803895407362	0.873348124274
5	151198	29111.753534383182	1.484762264354
5	151277	29129.438538542211	5.346015662966
5	151282	29130.525000741997	4.121875055593
5	151292	29132.841958564179	5.75588767135
5	151299	29133.691289021756	0.966075773347
5	151306	29134.655002317006	1.439130998397
5	151316	29137.163545740294	2.823240643712
5	151348	29140.890910038195	1.715369532945
5	151353	29141.409992897272	1.582084242505
5	151361	29144.235738843203	4.156360683798
5	151366	29144.238672780951	0.852420238922
5	151389	29149.125014183098	4.669480579665
5	151402	29151.793282892319	6.595814782751
5	151407	29152.73923175201	7.35218141172
5	151416	29153.575169450386	7.714085566567
5	151428	29157.379755320228	10.031186980165
5	151435	29159.845419742952	10.657274190822
5	151440	29160.652255467056	9.82977908487
5	151447	29162.410618397492	10.900205236193
5	151456	29164.119981672514	11.360748155258
5	151461	29166.533158917276	12.279004751053
5	151466	29166.989831101775	12.459001237539
5	151471	29168.065626240688	11.790015928775
5	151482	29170.513691762158	10.902890694751
5	151489	29172.496987198788	9.349926740194
5	151504	29173.691260207283	4.293746477872
5	151509	29174.431236852256	4.663997077068
5	151514	29174.89281045178	3.356382681039
5	151521	29176.467058521457	3.362995128047
5	151532	29178.467028645222	5.10984596985
5	151539	29179.799601658536	2.189284105231
5	151558	29187.4257671227	9.181269668187
5	151572	29192.145656019596	12.999998256444
5	151577	29192.771499857739	12.862820925584
5	151586	29196.39987008814	14.065353544688
5	151591	29197.921647579968	15.212381840507
5	151598	29198.358908330685	12.621557954724
5	151605	29199.653384278816	13.312215508033
5	151610	29200.118571417924	13.32064083213
5	151621	29205.090633445901	17.474489903831
5	151629	29206.491651036268	17.317696419476
5	151639	29209.327941245435	18.132485774923
5	151645	29212.080111838861	17.947885042587
5	151654	29213.610262665273	19.153466580961
5	151659	29214.033019833324	14.879404652735
5	151665	29215.697354801112	9.283354113288
5	151670	29215.861390799635	8.604454412597
5	151677	29216.415844839663	3.983834962465
5	151692	29218.753581524613	0.770144034356
5	151717	29226.553207798543	5.696504095484
5	151728	29230.436158698152	8.568183087597
5	151733	29230.976720312438	8.437590674703
5	151742	29232.461486019428	5.20328518465
5	151749	29233.009257417364	5.197424920663
5	151755	29235.012412464458	3.735022946637
5	151760	29235.312612732095	3.034101748252
5	151771	29238.728935560103	6.144647860806
5	151782	29242.281230130796	5.675065080327
5	151788	29244.522914553626	7.442584623376
5	151798	29245.557989567569	6.463400988366
5	151803	29245.801703578973	6.180804832635
5	151816	29249.913172624525	8.841796474522
5	151821	29250.127070347993	5.160233068311
5	151826	29251.868593697481	6.63351752825
5	151833	29254.162189230515	8.047677814102
5	151840	29254.507368943025	5.812106285484
5	151845	29255.196661254584	6.396719670415
5	151854	29257.838418642521	5.133417916493
5	151860	29258.660387090636	4.30547938462
5	151871	29260.459207313641	4.98080952952
5	151880	29262.036117900546	3.008703184207
5	151885	29262.691039290095	3.438032567912
5	151892	29262.953334067253	1.176499301882
5	151914	29265.218384063744	0.888871197007
5	151941	29268.889929771754	2.40772930248
5	151947	29269.367958887781	1.200232720219
5	151964	29271.161847273109	0.757845018195
5	151971	29271.546191855339	0.581209510139
5	152005	29278.154590119317	3.418512343466
5	152015	29278.88469100906	3.681617751817
5	152022	29279.752493607678	1.070873245373
5	152039	29281.690097943994	1.325887769496
5	152046	29281.919978109805	1.126797808655
5	152053	29283.529754597795	1.641351099706
5	152066	29284.4698457998	0.936857878654
5	152091	29286.877960502447	1.414641479536
5	152153	29301.522625790218	4.981587877625
5	152158	29301.577234821803	3.805558983122
5	152182	29305.931603683632	1.70942256588
5	152188	29306.171424402666	1.021364845003
5	152195	29306.929233373551	1.152365290699
5	152208	29311.289248276576	4.976163873452
5	152219	29313.985828114249	5.473896244313
5	152224	29315.068996425032	5.889146903678
5	152229	29315.160401932444	5.499907091543
5	152236	29317.791401582959	6.312297858309
5	152244	29320.124964528622	2.810989485007
5	152249	29320.295052000345	2.126490606767
5	152279	29324.716051197402	3.345829950993
5	152285	29326.173043066163	4.722140118555
5	152304	29329.075977147972	2.861923680216
5	152309	29329.488125138218	2.962799789701
5	152323	29331.24560037254	3.341070381496
5	152332	29332.685358163397	2.426805718377
5	152341	29333.854113326499	2.800864076538
5	152348	29334.549057592358	3.318558133461
5	152361	29339.555482781115	8.013681050061
5	152372	29341.611988372867	8.737256481831
5	152378	29343.533526088331	6.885265171366
5	152385	29343.77427936976	4.013323360189
5	152396	29346.467785438909	5.955365539078
5	152405	29348.242722988767	4.611261565656
5	152416	29351.548267904279	7.73503920145
5	152429	29354.405952937343	10.160101444573
5	152435	29355.603016246391	9.031195569167
5	152440	29355.693261740105	7.635551143511
5	152449	29360.254367838891	11.462991182056
5	152462	29364.800451334999	13.288156055935
5	152473	29369.15321378713	16.370314836534
5	152482	29373.185735891079	18.874344760092
5	152487	29373.898383013364	19.580598212092
5	152496	29375.108763016673	17.224971151614
5	152505	29377.518445383247	17.155051280254
5	152510	29378.259363453204	15.108084723266
5	152515	29380.224402997998	16.737048013563
5	152526	29383.742792834446	15.350004401915
5	152537	29387.696605959251	16.276752842819
5	152544	29388.094670262489	13.980873546934
5	152551	29388.803637070325	13.757742031815
5	152558	29392.384750218246	16.791329734726
5	152565	29392.634549369585	15.558386659361
5	152570	29394.00754966577	13.618580386503
5	152580	29397.498319578101	14.565105323759
5	152586	29398.440598721359	14.893483345478
5	152593	29399.562278058881	13.800456463378
5	152598	29399.739346066879	11.985618516383
5	152607	29403.231301530014	12.817694616611
5	152614	29404.188757262414	8.119342756592
5	152619	29404.746540802872	4.502003035233
5	152632	29406.096327663863	5.75140692804
5	152641	29407.463677045669	2.634806795625
5	152646	29408.827081680361	3.365613480405
5	152653	29410.453847487086	4.742537875121
5	152668	29412.666436982502	5.825017437304
5	152680	29414.379153295625	5.101246421622
5	152685	29414.883848830385	4.224134714144
5	152690	29414.983029513307	4.045294303589
5	152695	29416.39994144855	3.411231751572
5	152700	29419.051187549134	5.928348442007
5	152717	29421.25556368747	2.039282686019
5	152730	29424.716738650316	5.456847208406
5	152737	29427.871500504982	6.867155086498
5	152742	29430.43490519026	9.168571387835
5	152751	29433.808293681039	11.466926870747
5	152757	29434.802612252946	11.666491453591
5	152781	29437.557556492609	1.534020979585
5	152789	29439.443739267786	2.306412434354
5	152841	29450.057757445578	1.761643901666
5	152846	29450.287515247085	0.386568849773
5	152863	29452.376183373291	1.412353321606
5	152890	29457.669086716402	4.918032430678
5	152895	29458.49626942104	5.197938879379
5	152900	29460.162680782317	5.219709863059
5	152905	29460.602602479726	4.23131257819
5	152910	29461.721581020206	4.484305388869
5	152920	29463.696796055746	6.073741665666
5	152928	29464.418241448652	2.527513646764
5	152933	29464.724156738717	1.411384415462
5	152941	29467.393365068507	3.4537547412
5	152948	29470.542410978153	3.422540841273
5	152958	29472.078071383674	3.470711249612
5	152965	29473.385472687783	2.226957203107
5	152989	29474.621092608685	1.18415233203
5	152996	29475.955185613207	1.900051300994
5	153003	29477.041515642362	2.916775079356
5	153011	29478.883550054703	4.675090326362
5	153020	29480.239841120029	5.79591417014
5	153027	29480.399598802802	4.442933261993
5	153032	29482.081514222236	4.660897028685
5	153041	29483.904063862999	3.653585104017
5	153049	29485.34844070455	1.887710231358
5	153056	29485.568681536294	1.971923616016
5	153063	29486.080628271706	1.994420175872
5	153078	29491.484935797524	6.106015166052
5	153085	29492.065336034822	6.264058300297
5	153090	29493.203975540552	7.082024931787
5	153095	29493.692576310468	3.424253325324
5	153102	29495.854533962832	5.206262826534
5	153107	29496.532741337435	4.825083803181
5	153119	29497.390802582571	0.273588402432
5	153142	29502.504919168736	4.210290738283
5	153149	29504.245302997616	3.826746475993
5	153156	29505.564438933696	3.572127024115
5	153169	29506.679719625251	2.70307009748
5	153175	29509.501190137603	4.211669879009
5	153181	29509.708406585966	3.526358773964
5	153188	29511.237885554525	4.720985011384
5	153196	29513.474877652019	6.939578783473
5	153202	29514.24185527707	3.957531018042
5	153227	29516.875625821019	1.088437021542
5	153247	29521.665915354159	3.425924501994
5	153268	29527.249532907714	5.015365210637
5	153278	29529.134342787746	2.078824836735
5	153306	29533.222524811717	2.439273672947
5	153313	29533.742641932292	2.867493746781
5	153325	29534.633462294163	3.0420366851
5	153335	29537.265538647031	4.163404249337
5	153343	29538.845337400729	4.655203946989
5	153348	29540.532698395519	6.175967744837
5	153358	29542.893822768104	4.280358819662
5	153363	29543.748968130901	2.618762683324
5	153368	29546.015530635644	4.067087882419
5	153388	29548.019078584891	1.557656427825
5	153397	29553.821847849099	7.35785577993
5	153402	29554.139135644335	6.122160721099
5	153407	29556.443995230109	8.002399856736
5	153412	29557.694480295733	5.268232664144
5	153433	29561.511633502655	2.998269780078
5	153440	29564.236124254986	3.509462308461
5	153450	29569.083231970181	5.157979397985
5	153477	29574.953303014039	1.735459317431
5	153485	29575.957458050728	2.184102444808
5	153493	29576.579290772962	2.657376735427
5	153531	29585.99768555077	6.855552821882
5	153536	29586.780659295551	7.00885925518
5	153541	29587.012834614442	5.220947787724
5	153546	29587.676836450663	2.676574670843
5	153557	29591.550169696509	5.736726735151
5	153562	29593.750983847109	4.732642210737
5	153568	29596.216434916191	5.985555687581
5	153577	29597.296928586521	6.329489912403
5	153616	29603.405853587794	2.616546449156
5	153621	29603.574310156582	1.009011295147
5	153641	29607.169711481443	2.129871274841
5	153657	29608.822837082229	1.360456861673
5	153664	29609.544152324551	1.297785722075
5	153671	29610.81684506433	1.892501733715
5	153685	29611.256775305792	0.364826233442
5	153718	29616.509131072391	2.949043481435
5	153727	29620.586750462922	6.716853628319
5	153753	29627.496771278139	12.407450855735
5	153758	29628.067391854005	11.196144052095
5	153765	29628.965092445864	11.818247666036
5	153770	29629.851007183979	8.70249262296
5	153779	29633.602347272827	10.46506911416
5	153784	29634.363880109196	10.651344328706
5	153796	29635.863269447821	11.674217924453
5	153803	29637.662136147566	12.464835428199
5	153811	29638.312521754954	12.626387178235
5	153819	29640.804566505867	12.106280998698
5	153826	29641.465027420997	8.424253147038
5	153831	29642.390766273179	6.976607497133
5	153836	29642.971978314266	7.407504528994
5	153845	29644.183174975589	8.608732918637
5	153857	29648.30898145679	5.32570520812
5	153862	29648.585736302191	4.897205922937
5	153873	29651.618622609773	5.710304631708
5	153887	29654.670265981213	8.266781910304
5	153894	29655.512682145136	5.955885346296
5	153899	29655.516412932312	5.292261748352
5	153907	29656.657546635836	6.1194718402
5	153912	29656.819629076061	4.629799698185
5	153917	29657.834441452695	5.381597525944
5	153926	29662.224361730123	8.694735879338
5	153944	29671.018844835508	15.007782808924
5	153952	29671.339722337955	11.034002379069
5	153957	29671.590693654499	10.551607922801
5	153976	29677.057608952762	14.230712534983
5	153984	29680.072820461598	16.505521993731
5	153992	29680.987671988817	14.877245945617
5	153999	29681.187949854184	13.234186044278
5	154006	29682.091606753697	10.123043173704
5	154015	29684.083500010029	12.030278300755
5	154020	29684.30128202398	11.593651217901
5	154025	29685.314877964385	11.986323313234
5	154030	29687.474430793967	13.886000063237
5	154036	29690.623295027975	14.347988733983
5	154041	29691.232191064389	13.675243866376
5	154052	29693.798213573406	12.647807857395
5	154057	29694.608509261082	12.957511220042
5	154069	29695.963142594143	12.271051237745
5	154077	29697.613752011157	5.297604379505
5	154082	29698.284706960758	3.320350263306
5	154087	29699.200698455823	4.073038842292
5	154097	29704.774652538586	8.730732898373
5	154102	29705.257512515028	4.453679953639
5	154115	29707.238069934723	6.074687578863
5	154123	29708.149628282107	2.57038944004
5	154128	29708.545055725485	2.813036269409
5	154135	29710.378836878992	3.85201572882
5	154147	29713.890448722894	4.073292707966
5	154152	29714.224005474629	3.292227960593
5	154165	29717.267584675213	6.062200854452
5	154174	29720.484753825393	9.067173858459
5	154181	29724.177256829094	9.381696252683
5	154198	29728.260923120476	12.517701664408
5	154203	29728.738693838209	12.126522589269
5	154220	29731.224861996734	14.12022371356
5	154226	29732.97905159324	15.198057782912
5	154239	29735.71372524741	14.488134699634
5	154250	29739.240310593771	12.932144789419
5	154263	29740.827559520328	13.469471925053
5	154268	29742.115117567438	14.15364086304
5	154273	29742.533709046723	13.53445006842
5	154281	29747.106006357672	17.831404719859
5	154286	29747.591192347412	18.305624589311
5	154301	29749.803897478556	19.51851972427
5	154306	29749.992784723548	15.826453748597
5	154318	29751.427528673649	16.241148600214
5	154323	29751.502077225681	13.745079882263
5	154333	29752.652803313854	14.131427842825
5	154338	29752.824320405629	13.571036250856
5	154345	29754.835916047907	14.199003285104
5	154355	29756.61701665733	10.376719671956
5	154363	29757.663274861309	10.062959129787
5	154368	29758.144537044718	9.710742908079
5	154374	29759.958287811568	11.117811293017
5	154381	29760.36796269015	11.225958468673
5	154386	29761.749987470921	11.328475507835
5	154393	29764.461553825563	13.333167542259
5	154402	29767.565872737412	15.734645896427
5	154408	29767.990480313753	15.487749115124
5	154413	29768.536451603556	13.819394703889
5	154418	29769.39836354645	14.007192964831
5	154423	29769.666219884968	13.820774497461
5	154432	29771.546229121261	14.398819657456
5	154441	29773.866060414778	13.758562275377
5	154446	29775.294112629946	13.521596940066
5	154451	29776.259072909228	9.35128504102
5	154456	29777.385594990864	7.680784284404
5	154465	29779.47960859256	9.008285581988
5	154476	29782.795962396155	10.872506908988
5	154483	29785.484485839007	12.730209147004
5	154490	29788.640940654664	9.89281232684
5	154496	29789.376997308478	7.677572092676
5	154507	29792.208665400785	10.270771340794
5	154514	29792.609964382141	8.912108528676
5	154520	29793.374511296693	6.374027238968
5	154528	29794.210805181697	3.48794069872
5	154535	29796.27978394241	2.170829452702
5	154553	29800.779521402776	3.501658097111
5	154561	29801.834798689376	2.724250711159
5	154586	29807.220752183227	2.261107486138
5	154600	29807.843515701837	0.495309024439
5	154606	29809.18383763329	1.489145798789
5	154621	29811.381551070064	1.704474208184
5	154636	29813.499737563682	1.805447476572
5	154673	29824.105441889513	3.410504834431
5	154678	29824.337240548586	3.066082725282
5	154688	29826.257580356007	4.15415366428
5	154696	29826.696422012722	1.480452145162
5	154701	29826.718430928519	0.362647337017
5	154749	29832.586248272366	1.805728565349
5	154760	29833.772298403694	2.585479929904
5	154765	29833.932136315717	0.261460235207
5	154799	29838.359434228182	2.995941790554
5	154846	29845.00904019526	2.488235403541
5	154851	29845.734000507751	1.196440144572
5	154892	29858.009710495226	2.63894968911
5	154912	29860.528402792867	1.990564805064
5	154917	29860.765096422903	1.942025088551
5	154922	29860.992192577263	2.119605393774
5	154939	29863.770031357756	2.612950049159
5	154974	29867.458828841161	1.712509747906
5	154979	29867.487076540218	1.224110380155
5	154988	29868.564443268637	1.406138308387
5	155002	29870.21059474288	2.786958981919
5	155008	29870.811416714646	2.95941655493
5	155018	29872.951554238839	4.529536643441
5	155026	29873.799533584428	4.665571917881
5	155031	29873.981301829821	4.614815356182
5	155036	29876.460953275813	6.548897830198
5	155045	29878.334253292702	5.836687850673
5	155054	29881.427299621704	7.900386003878
5	155067	29884.707975991015	7.299020181331
5	155072	29886.941432377197	8.862655873812
5	155078	29887.809906800186	6.970842745074
5	155083	29887.842879348656	5.798661833896
5	155088	29890.395943334385	7.861385698007
5	155095	29894.022653310999	10.462602948784
5	155103	29895.895998558157	12.312391997694
5	155108	29896.160382983052	2.16320958669
5	155113	29897.201374080481	2.283847409512
5	155139	29902.350401534282	0.665754482873
5	155163	29904.723615940038	1.824408227657
5	155168	29905.154911711917	1.504684607059
5	155175	29907.715102131509	3.257270449719
5	155180	29908.215643765063	1.145314355138
5	155219	29915.343410710283	6.628193603406
5	155227	29915.764510579383	6.725598797558
5	155234	29917.215579369613	7.81221388041
5	155243	29917.905880840502	7.095451238014
5	155248	29919.407106309523	4.820371698147
5	155253	29920.425280962099	2.776425850392
5	155267	29923.372347630811	5.706355438377
5	155272	29924.255291551536	3.690924229417
5	155283	29927.911251689812	7.074505728402
5	155292	29929.71382473578	8.787232197205
5	155307	29932.470143824171	10.8464035409
5	155313	29935.443052444991	8.343209487871
5	155318	29936.819832050755	7.167774185235
5	155327	29938.579122661634	7.865895381371
5	155335	29939.022600367363	7.879247530565
5	155340	29939.117486130181	6.864206311058
5	155348	29940.461678556168	8.159406956787
5	155353	29940.921708961533	2.875728197854
5	155362	29942.247764181499	3.517049398836
5	155367	29943.46077059005	3.291890249623
5	155372	29946.0548463694	4.514560144306
5	155416	29955.636326745457	3.484074370443
5	155422	29955.920614928927	1.20971392906
5	155434	29958.052532797351	2.624414467816
5	155441	29959.793729362763	2.647989563784
5	155449	29960.894848355717	3.254417053975
5	155467	29964.503311901037	2.514753564416
5	155503	29968.364239153391	2.098149606003
5	155512	29969.972832083732	2.290123331228
5	155517	29970.367526055426	2.559073376333
5	155522	29970.390083751287	2.465964424103
5	155535	29974.254747544504	5.333674113879
5	155545	29977.615235512947	6.635924590717
5	155550	29978.22724454641	5.274432318739
5	155557	29978.93446597389	5.94848528967
5	155562	29980.846986611166	6.879004769266
5	155567	29981.384777094197	6.740856879934
5	155590	29985.064435884273	3.12529609229
5	155597	29985.625562649505	2.165807329427
5	155604	29985.908875218299	0.847279938113
5	155609	29985.954470360093	0.046230504598
5	155656	29994.248623097325	5.095880552475
5	155661	29994.401498373083	4.891609803958
5	155668	29995.952022049227	4.531846433446
5	155677	29997.82955350284	3.959381943809
5	155682	29997.864244751708	1.587983592275

