version 2
run First-n3-19-20191016-17:04:06-11860
attr configname First-n3
attr datetime 20191016-17:04:06
attr experiment First-n3
attr inifile omnetpp.ini
attr iterationvars ""
attr iterationvarsf ""
attr measurement ""
attr network org.omnetpp.queueing.Pizza
attr processid 11860
attr repetition 19
attr replication ""
attr resultdir results
attr runnumber 19
attr seedset 19
param **.PS.maxInventoriedPS 3
param **.U1.interArrivalTime exponential(2s)
param **.U2.interArrivalTime exponential(4s)
param **.PS.serviceTimeForInventoryU1 exponential(0.8s)
param **.PS.serviceTimeForInventoryU2 exponential(1.0s)
param **.PS.serviceTimeDirectU1 exponential(1.2s)
param **.PS.serviceTimeDirectU2 exponential(1.4s)
param **.PS.probabilityProducing 0.5
param **.CS.serviceTimeU1 exponential(0.8s)
param **.CS.serviceTimeU2 exponential(1.0s)

vector 0 Pizza.EntryQueueU1 queueLength:vector ETV
attr interpolationmode sample-hold
attr title "queue length, vector"
vector 1 Pizza.CS queueLength:vector ETV
attr interpolationmode sample-hold
attr title "queue length, vector"
vector 2 Pizza.EntryQueueU2 queueLength:vector ETV
attr interpolationmode sample-hold
attr title "queue length, vector"
vector 3 Pizza.sink lifeTime:vector ETV
attr interpolationmode none
attr title "lifetime of arrived jobs, vector"
attr unit s
vector 4 Pizza.sink lifeTimeU1:vector ETV
attr interpolationmode none
attr title "lifetime of arrived jobs, vector"
attr unit s
vector 5 Pizza.sink lifeTimeU2:vector ETV
attr interpolationmode none
attr title "lifetime of arrived jobs, vector"
attr unit s
0	0	0	0
0	18	3.069921891541	1
0	20	3.086285159072	2
0	23	4.736737406642	1
0	28	5.37381641914	0
0	53	11.205233952584	1
0	55	12.844308025635	2
0	61	14.795016489315	1
0	66	15.04512490115	0
0	72	15.848687606472	1
0	75	16.524759892954	2
0	76	16.978224798255	1
0	83	17.914806051809	0
0	102	19.544250556432	1
0	104	19.99129642796	2
0	106	20.081641029168	3
0	109	20.726338353825	2
0	115	20.73280690584	3
0	116	20.887938145525	2
0	123	21.967194320233	1
0	131	22.56260978166	2
0	136	24.809828096324	1
0	142	25.077880846914	2
0	143	25.641512509955	1
0	150	26.789170014107	0
0	199	37.434101628883	1
0	201	37.590810448781	0
0	232	46.490919115529	1
0	235	47.065319880967	2
0	238	47.326096169655	1
0	244	47.922186192478	2
0	245	48.240626942867	1
0	253	48.818379335887	2
0	255	49.340735946676	1
0	260	49.406213490696	0
0	271	49.60255026695	1
0	274	50.563368178648	2
0	277	51.900467206037	1
0	282	53.257585659687	0
0	289	55.735245272362	1
0	291	56.092787394274	2
0	292	57.049896974654	1
0	297	57.971219428133	0
0	327	64.293808709169	1
0	330	65.6823108928	0
0	342	68.606522645416	1
0	343	68.628752450595	0
0	366	70.719730354362	1
0	367	71.039975213012	0
0	374	71.524956604137	1
0	376	71.794605907076	2
0	378	72.705078944481	1
0	384	73.473632829843	0
0	421	83.421010351639	1
0	423	83.940150328075	0
0	449	88.312180026403	1
0	451	88.437051507137	2
0	453	89.353210701347	3
0	455	89.439900903293	4
0	456	90.276496112216	3
0	461	90.334620847465	2
0	466	90.433152248013	1
0	474	91.934986518466	0
0	480	92.130237058382	1
0	481	92.189769785495	0
0	487	92.279205043045	1
0	488	93.020379525615	0
0	492	95.119389173676	1
0	494	95.720612505309	2
0	499	97.780851151804	1
0	504	98.471487632061	0
0	541	104.126978729599	1
0	543	104.162988737986	2
0	545	104.396292441447	3
0	552	105.864360488313	2
0	558	106.424470582171	1
0	563	106.606222818742	0
0	601	110.434434871379	1
0	604	110.974558556684	2
0	605	111.021343529739	1
0	611	111.359094547067	0
0	652	119.145535839532	1
0	653	119.331542432615	0
0	666	119.996416504573	1
0	667	120.931706028027	0
0	674	121.076257331978	1
0	676	122.045793791627	0
0	682	122.300313940263	1
0	684	122.345100248004	2
0	685	122.452194819319	1
0	690	122.504648784665	0
0	696	122.801080037434	1
0	697	122.9439637958	0
0	701	123.246194688946	1
0	705	125.085049066351	2
0	706	125.172895288176	1
0	714	126.614012088523	0
0	722	129.655753187543	1
0	723	129.995984547141	0
0	742	132.291992104775	1
0	744	133.140403116888	2
0	746	133.297382829086	1
0	751	133.810595407578	0
0	757	134.51880831722	1
0	765	135.994211446218	0
0	771	136.084256049144	1
0	772	136.479934848159	0
0	786	137.845255487239	1
0	789	138.218097137694	2
0	791	138.296999218347	3
0	793	139.387435501678	2
0	799	140.556704727813	1
0	806	142.089988361123	2
0	807	142.170865323664	1
0	813	142.422646663645	2
0	816	143.353782670762	1
0	822	143.916533399633	0
0	903	155.44296637807	1
0	905	155.896058244403	2
0	906	155.912567732581	1
0	911	156.1211615642	0
0	926	156.572250389604	1
0	927	157.358999787506	0
0	943	162.857018583813	1
0	947	166.783550046784	2
0	951	167.072114535868	3
0	952	168.078823287827	2
0	956	168.940776139619	3
0	962	170.577415513864	2
0	968	171.541239928852	1
0	974	172.003261437508	0
0	991	172.488305798304	1
0	992	172.571882617206	0
0	1015	178.455159828774	1
0	1017	178.872641922502	2
0	1018	179.227915783864	1
0	1022	179.365646013845	2
0	1026	180.061801997967	3
0	1028	180.209371573395	4
0	1029	180.230549639301	3
0	1034	181.648296108066	2
0	1038	181.961229707681	3
0	1042	183.385117874026	2
0	1047	184.150562744392	1
0	1052	188.190441776548	0
0	1056	188.341789336769	1
0	1060	189.521493613347	2
0	1066	189.971888447449	3
0	1067	190.340771356723	2
0	1075	193.603092365725	1
0	1080	193.706215332907	0
0	1116	201.722414699708	1
0	1117	202.504226751821	0
0	1123	202.594318031299	1
0	1124	202.692191318946	0
0	1130	202.989737353706	1
0	1133	203.390424451499	0
0	1137	204.000730366535	1
0	1142	205.40294386798	0
0	1155	206.586821182407	1
0	1157	206.812591600521	2
0	1160	207.52507432259	1
0	1165	207.707330913693	0
0	1171	207.7117292894	1
0	1174	209.380742831324	0
0	1178	209.44275222637	1
0	1182	210.811510892078	0
0	1193	211.924869181124	1
0	1195	211.934300230748	2
0	1202	213.385419357092	3
0	1203	214.595941966382	2
0	1210	215.249748766455	1
0	1216	215.393663461287	2
0	1219	215.908417325401	1
0	1224	217.015432786012	0
0	1248	220.096201635328	1
0	1252	221.359926513653	2
0	1254	222.367489372761	3
0	1257	223.379177330554	2
0	1261	224.237492546076	3
0	1264	224.737388242387	2
0	1270	225.304443256867	3
0	1272	226.89708212757	4
0	1276	228.543304552567	3
0	1284	229.783570510181	4
0	1285	230.685232987979	3
0	1291	231.798485920622	4
0	1294	232.572130034377	3
0	1299	233.507256513032	2
0	1309	235.523738465752	3
0	1311	235.710995393162	4
0	1313	236.952997637052	5
0	1315	237.441851041117	6
0	1317	237.503024791166	7
0	1318	237.552505390831	6
0	1323	238.354642717172	5
0	1329	240.948719544493	4
0	1334	241.200812328007	3
0	1340	243.482239531773	2
0	1346	243.888565832144	3
0	1347	244.10847344125	2
0	1352	244.485782148807	1
0	1357	245.058409311925	0
0	1373	245.780591905394	1
0	1374	245.884922800061	0
0	1378	246.492901285859	1
0	1381	248.289516195421	0
0	1389	249.937272877596	1
0	1392	250.274466149707	0
0	1396	251.169580872798	1
0	1398	251.18603108366	2
0	1400	251.92535983356	3
0	1403	252.701825808312	2
0	1407	252.845527244679	3
0	1410	253.360634281935	2
0	1414	254.322135219764	3
0	1424	258.529899785475	2
0	1429	258.667920041922	1
0	1436	261.059288378662	2
0	1439	261.830861691314	1
0	1446	263.217709417479	0
0	1452	263.515358279817	1
0	1453	263.68688046101	0
0	1459	264.190951498977	1
0	1462	264.884811454147	0
0	1498	267.05294098363	1
0	1500	267.485021640349	2
0	1502	267.632339410903	3
0	1508	271.390200288455	2
0	1514	271.497855560542	3
0	1519	272.148888160757	2
0	1528	274.70756710145	1
0	1534	275.091616001135	0
0	1545	276.882801884551	1
0	1546	277.055963732023	0
0	1563	281.382729710107	1
0	1565	281.70740616237	2
0	1568	283.312566638431	1
0	1573	283.732291975935	0
0	1586	284.782482426811	1
0	1589	286.12767218122	0
0	1601	286.884826567579	1
0	1602	287.129117876369	0
0	1613	287.154014537218	1
0	1615	287.916648391298	0
0	1691	302.319154856011	1
0	1693	303.114119871311	0
0	1712	305.280678903184	1
0	1713	305.57543088066	0
0	1808	324.866751822281	1
0	1809	325.609022672201	0
0	1815	326.353735924389	1
0	1817	326.3615131995	2
0	1822	327.788157634934	1
0	1827	328.148134789718	0
0	1844	328.896102886759	1
0	1846	329.412496294444	0
0	1852	331.749433299662	1
0	1853	331.835384971658	0
0	1872	337.996369709707	1
0	1873	338.096051137618	0
0	1893	339.33561936001	1
0	1895	341.083479861149	2
0	1896	341.895886936484	1
0	1901	343.040359787232	0
0	1908	343.398285572595	1
0	1911	344.969962262091	2
0	1912	345.158745471685	1
0	1920	346.444722996521	0
0	1941	349.087043340806	1
0	1944	349.699573201245	2
0	1946	349.945261040424	1
0	1951	350.040678073962	0
0	1958	350.782746118318	1
0	1959	351.61800107501	0
0	1992	362.836195165608	1
0	1996	363.875453120716	2
0	1997	363.984587741245	1
0	2001	364.101989159921	2
0	2004	364.218175149977	1
0	2009	366.062981158846	0
0	2016	367.26253160587	1
0	2017	367.591701780963	0
0	2027	368.739499519736	1
0	2029	369.20397114204	2
0	2030	369.574891440886	1
0	2035	370.196633144372	0
0	2041	370.300953098034	1
0	2044	372.163141491649	0
0	2083	379.318510398235	1
0	2085	382.877698947464	2
0	2092	385.181919935992	1
0	2097	386.591444235898	0
0	2114	389.64230168729	1
0	2117	389.922702386534	2
0	2118	390.588459800021	1
0	2123	391.308936369027	0
0	2127	391.996221775285	1
0	2130	392.45742151015	0
0	2139	394.945528037875	1
0	2141	395.166774500258	2
0	2143	395.404612164841	3
0	2144	396.124544022874	2
0	2149	396.708792285665	1
0	2153	396.9705730161	2
0	2155	398.286343014313	3
0	2158	399.571919470296	2
0	2165	400.6595363341	1
0	2169	400.661421616988	2
0	2173	401.084922497754	3
0	2177	401.617220275178	4
0	2178	401.90395176429	3
0	2185	404.306646461703	4
0	2186	404.541315040745	3
0	2191	405.146383257024	2
0	2197	406.732653257527	3
0	2199	408.389767418029	4
0	2202	410.697420721926	3
0	2207	411.855488330075	2
0	2211	412.656158761062	3
0	2217	417.678994109746	4
0	2222	418.470720718121	5
0	2224	419.657276698375	6
0	2226	420.361920460873	7
0	2227	420.743644845852	6
0	2233	420.815461125787	7
0	2234	421.34835831541	6
0	2238	422.214389527053	7
0	2241	423.265698968408	6
0	2245	423.557432568764	7
0	2252	425.507469676462	6
0	2259	426.780848720052	5
0	2264	428.213284830242	4
0	2268	430.02613805133	5
0	2270	430.424278894091	6
0	2272	431.275730927059	7
0	2275	432.031794359037	6
0	2286	433.571614708355	5
0	2292	434.022400808671	6
0	2294	435.231267928958	7
0	2299	435.943429692327	6
0	2303	436.346297030668	7
0	2306	437.023818730364	6
0	2311	437.529176390469	5
0	2315	437.766878558279	6
0	2317	437.818445062743	7
0	2320	440.06253422517	6
0	2326	440.824151182886	7
0	2334	442.740577741526	8
0	2338	442.815045153567	9
0	2339	442.908207112682	8
0	2344	443.226895404184	7
0	2349	443.50096404237	6
0	2355	446.095377000618	7
0	2357	446.202611106659	8
0	2358	446.831796609182	7
0	2362	447.08330447846	8
0	2368	449.682201004298	9
0	2369	450.759488518438	8
0	2373	450.838598803308	9
0	2377	452.893215840246	8
0	2382	453.114377385137	7
0	2389	453.765889892877	6
0	2394	455.123062161914	5
0	2399	456.137092833342	4
0	2404	457.266270363572	3
0	2408	458.008662993598	4
0	2410	459.257238275121	5
0	2413	459.941616752926	4
0	2419	461.3747598815	5
0	2423	462.042360339797	6
0	2427	462.729787193325	7
0	2429	462.903896136292	8
0	2432	463.254249200403	7
0	2436	463.480456183047	8
0	2438	463.534726768096	9
0	2442	464.18456428817	10
0	2445	465.048078341972	9
0	2452	465.88901702004	10
0	2454	465.905518278254	11
0	2456	466.328153196896	12
0	2457	466.772125388375	11
0	2462	466.800925384883	10
0	2466	468.709617813854	11
0	2468	468.727177945287	12
0	2474	469.828627630983	11
0	2481	470.575979528596	12
0	2483	470.646885097628	13
0	2485	470.868824208042	14
0	2486	471.331492465583	13
0	2491	471.740267279136	12
0	2498	472.426230820319	13
0	2499	473.000865958673	12
0	2506	473.431429633984	11
0	2513	475.491372301762	10
0	2519	476.820785143167	11
0	2521	477.790760250971	12
0	2523	478.237481722931	13
0	2526	478.809417247246	12
0	2530	479.261860182815	13
0	2532	480.202301455658	14
0	2536	481.599960304046	15
0	2538	482.327861777688	16
0	2540	482.831554135099	17
0	2543	483.890145164367	16
0	2549	485.47172301408	15
0	2560	486.225201373075	16
0	2561	486.343548512515	15
0	2567	487.289386784716	14
0	2573	487.442143803556	15
0	2574	488.140296058789	14
0	2578	489.893700958086	15
0	2582	490.409704481619	14
0	2589	491.451023183443	13
0	2593	492.101240745933	14
0	2597	495.059961586012	15
0	2598	495.092821620928	14
0	2604	495.545756948011	13
0	2609	495.933250923516	12
0	2614	497.319761352774	11
0	2620	499.386513039581	10
0	2625	499.483987851957	9
0	2629	500.045604525822	10
0	2632	503.089617192866	9
0	2638	503.476023389476	10
0	2639	504.562871418392	9
0	2643	505.532929152869	10
0	2645	505.893504835074	11
0	2648	507.374418280214	10
0	2655	507.736744644474	9
0	2661	508.029259485997	10
0	2662	508.638205421836	9
0	2669	511.794359602338	8
0	2673	511.860015319627	9
0	2675	512.586005020425	10
0	2677	513.752933205017	11
0	2682	513.94563671315	10
0	2686	515.474296002898	11
0	2690	516.91909754143	10
0	2696	517.11737382326	9
0	2704	517.686428797728	10
0	2705	517.697294222625	9
0	2713	518.485012468133	10
0	2716	519.198434342022	11
0	2718	519.311203448169	12
0	2720	519.684232107634	13
0	2721	519.796867362057	12
0	2726	520.066026005007	11
0	2730	520.209343755713	12
0	2735	520.723704564661	11
0	2739	521.004535984317	12
0	2741	521.563054716993	13
0	2744	523.985875647852	12
0	2749	524.804503472249	11
0	2754	527.652872531747	10
0	2760	528.825576698189	11
0	2763	529.541323864672	10
0	2767	530.884124368684	11
0	2769	531.518917257159	12
0	2771	533.51593947209	13
0	2773	533.939292521449	14
0	2776	535.220456728607	13
0	2780	535.656798496025	14
0	2783	536.424787022404	13
0	2788	537.276801818117	12
0	2793	538.034397345101	11
0	2802	539.504784628829	10
0	2806	540.015331937209	11
0	2808	541.886435898025	12
0	2810	542.763775099409	13
0	2812	543.011653793044	14
0	2815	543.357779422481	13
0	2823	544.418753721868	14
0	2824	544.832630934731	13
0	2830	546.959084474518	12
0	2836	547.092192981422	13
0	2837	547.194433824483	12
0	2842	547.775724721349	11
0	2849	549.248117779299	10
0	2855	549.351992392644	11
0	2857	550.043929219911	12
0	2858	550.392334027257	11
0	2863	551.994323683365	10
0	2868	553.754794316622	9
0	2872	554.617734780086	10
0	2876	555.95863289091	11
0	2879	556.376853334322	12
0	2881	556.464867573552	13
0	2882	557.264773172954	12
0	2888	558.835635082481	11
0	2894	558.9007556312	12
0	2896	559.334766622723	11
0	2902	559.654017928454	12
0	2904	559.83277365524	13
0	2905	560.419003583969	12
0	2912	562.962066913662	11
0	2919	563.141328823172	10
0	2924	563.88331751041	9
0	2930	564.167240510575	10
0	2932	564.374068920656	11
0	2934	564.474255590629	12
0	2939	566.774610957148	11
0	2945	568.036573998036	12
0	2946	569.233206636617	11
0	2952	570.551733081904	12
0	2953	572.394097263941	11
0	2958	573.015063190276	10
0	2964	573.625171237511	11
0	2965	573.750598191199	10
0	2971	574.930506275087	11
0	2973	575.573756023115	10
0	2978	575.682609964334	9
0	2985	576.824150924516	8
0	2993	577.910113707644	9
0	2994	578.347267825772	8
0	2999	579.305288440282	7
0	3004	580.413906761924	6
0	3009	580.566099283549	5
0	3015	582.179344658253	4
0	3020	582.67318325795	3
0	3024	582.760636143881	4
0	3028	583.600949889709	3
0	3034	584.028554456265	4
0	3036	584.241775666739	5
0	3037	584.396765003442	4
0	3041	584.852501162718	5
0	3043	585.589530000082	6
0	3045	586.094364619116	7
0	3049	587.112294485839	8
0	3053	590.695029165123	9
0	3054	591.017531999937	8
0	3059	591.625849538193	7
0	3063	591.743443054675	8
0	3065	592.257305708887	9
0	3068	594.434409146145	8
0	3073	595.905540561275	7
0	3078	596.44577136716	6
0	3085	597.130916263355	7
0	3087	598.521027323959	8
0	3088	598.86311331352	7
0	3095	599.319410754567	6
0	3100	600.144120188746	5
0	3104	600.23932922325	6
0	3108	600.820277756018	7
0	3110	601.137610375039	8
0	3119	605.117865347849	9
0	3122	609.347709359158	8
0	3130	610.515543548946	7
0	3135	610.642457013155	6
0	3141	611.575014008633	7
0	3146	613.782576860722	8
0	3147	614.967762671987	7
0	3152	615.206333177207	6
0	3158	615.70989249207	5
0	3165	616.639589409527	4
0	3173	618.718746087704	3
0	3181	620.951077881056	2
0	3187	621.206620345496	1
0	3192	621.954144068205	0
0	3205	623.377227136021	1
0	3208	624.512871327084	2
0	3209	625.824620047093	1
0	3215	625.861930416972	2
0	3216	626.459380315536	1
0	3224	627.575057440963	2
0	3225	627.919218653106	1
0	3231	628.381258867821	2
0	3232	628.609000946743	1
0	3236	628.765264233827	2
0	3238	629.354413996785	3
0	3240	629.869870104334	4
0	3243	631.114624902235	3
0	3247	631.307963885248	4
0	3249	631.393829572844	5
0	3252	632.040578841236	4
0	3259	633.871151785427	3
0	3264	634.980266744817	2
0	3271	637.384257127191	1
0	3277	638.166060382173	0
0	3315	642.253787196991	1
0	3319	644.585007173024	2
0	3321	644.619268061394	3
0	3323	645.106622225005	2
0	3329	645.597604212793	1
0	3337	646.584398430927	0
0	3376	650.668824526433	1
0	3381	652.099273531234	0
0	3390	652.407540343758	1
0	3396	654.435181399952	2
0	3398	654.713574714581	3
0	3401	655.751127230234	4
0	3403	656.920779259376	5
0	3405	658.115113318058	6
0	3410	658.861162775759	7
0	3416	661.164306821108	8
0	3417	661.70462788995	7
0	3422	662.455344826656	6
0	3427	662.624961761221	5
0	3433	662.746268213099	6
0	3434	662.971421132114	5
0	3441	665.449640563156	6
0	3442	665.857940839074	5
0	3447	665.995112129631	4
0	3459	667.821635472149	3
0	3464	667.900272357031	2
0	3468	668.597661577561	3
0	3470	668.616872291557	4
0	3474	670.586496436207	5
0	3477	671.945642949548	4
0	3484	672.677136167923	3
0	3490	673.132590216886	4
0	3492	673.840774162257	5
0	3498	674.988340535597	6
0	3500	675.577918709956	5
0	3506	677.589403307191	4
0	3511	677.968467985444	3
0	3521	682.63093297246	4
0	3524	683.213501327074	3
0	3529	683.781499758753	2
0	3536	684.662724132952	1
0	3540	684.70148450907	2
0	3543	684.881627660156	1
0	3547	685.071737464917	2
0	3554	687.685434042979	1
0	3559	688.087875650371	0
0	3563	690.093879030533	1
0	3565	690.499533684469	2
0	3567	690.777657717764	3
0	3577	691.869238153958	2
0	3583	692.995647520907	1
0	3588	693.211842554911	0
0	3605	694.495897592443	1
0	3606	694.842912111991	0
0	3619	695.790278109326	1
0	3620	696.426725601205	0
0	3627	697.722333105366	1
0	3629	698.840745791771	0
0	3648	704.33528344441	1
0	3649	704.493258096672	0
0	3666	707.019426292977	1
0	3668	709.829994937979	0
0	3679	710.192687853535	1
0	3683	712.160045195951	0
0	3701	714.699782216181	1
0	3703	715.049458063252	2
0	3705	715.292833962412	1
0	3711	715.365087084792	2
0	3714	716.266319612393	3
0	3716	716.441552172593	4
0	3717	716.876901182226	3
0	3722	717.654077024759	2
0	3728	718.148821768365	1
0	3733	718.425739659909	0
0	3771	723.056443009484	1
0	3773	723.141155707451	2
0	3777	723.555894557136	3
0	3779	724.196853177107	4
0	3782	724.479134943901	3
0	3789	725.664847246257	2
0	3796	726.3180875338	1
0	3803	727.089892114655	0
0	3810	727.464488035211	1
0	3812	728.057188483775	2
0	3813	728.090773904639	1
0	3818	728.463354337243	0
0	3837	732.140062573643	1
0	3842	734.313399822033	0
0	3848	734.889899701913	1
0	3851	735.915501733275	2
0	3857	736.800458387608	3
0	3859	736.815662117327	2
0	3865	737.174390990239	3
0	3867	737.808108357456	4
0	3868	738.423789314785	3
0	3875	739.126123037554	2
0	3881	739.439646727562	3
0	3882	739.472592113607	2
0	3886	739.702102196954	3
0	3889	740.603913088031	2
0	3894	742.276636544268	1
0	3900	743.253659252081	2
0	3901	744.477056938285	1
0	3907	745.084543423769	2
0	3908	745.511048383603	1
0	3912	745.551867620157	2
0	3914	747.03961768348	3
0	3916	747.253359390226	4
0	3920	748.069841246593	5
0	3921	748.74973267275	4
0	3925	749.101302569811	5
0	3927	749.225966203995	6
0	3931	750.485253889669	5
0	3940	751.19826069394	6
0	3941	751.414326298192	5
0	3948	753.896332262929	4
0	3953	754.605148745817	3
0	3960	755.969069069038	4
0	3962	756.622129254103	5
0	3964	756.794983628494	6
0	3965	757.169371593529	5
0	3971	757.419618900413	6
0	3974	757.733223347452	7
0	3979	759.300405987934	6
0	3985	759.770935287494	7
0	3988	761.908960101032	6
0	3993	763.371985710559	5
0	4000	763.790892555854	4
0	4004	764.276902681485	5
0	4007	764.790440683509	4
0	4012	766.61932337187	3
0	4017	769.206019799303	2
0	4025	770.67048888909	3
0	4027	771.114083370017	4
0	4031	772.113151581463	3
0	4038	772.679004462692	2
0	4043	773.648213232298	1
0	4049	774.557539794163	2
0	4050	775.341893024701	1
0	4054	775.841916535808	2
0	4061	776.771326291132	1
0	4070	778.701785292938	0
0	4097	782.758681767658	1
0	4098	783.438714749295	0
0	4113	788.102527794369	1
0	4117	789.293091337756	2
0	4121	791.558962203887	3
0	4123	791.563915490164	4
0	4124	791.596221892559	3
0	4131	792.844366579009	4
0	4134	794.084795953345	5
0	4138	794.752464065959	6
0	4141	795.532006652598	5
0	4146	795.637485148568	4
0	4152	796.637321207009	3
0	4158	799.192837140698	4
0	4159	799.292355181934	3
0	4165	799.502068812945	4
0	4167	800.561413663806	5
0	4168	801.258186704132	4
0	4175	803.824509099016	5
0	4176	804.000852361645	4
0	4181	804.629456532855	3
0	4186	805.521338521552	2
0	4193	807.393287133321	1
0	4198	810.529693017011	0
0	4204	812.400249338584	1
0	4206	812.952456769067	2
0	4210	813.741227055461	3
0	4214	814.55957125873	2
0	4220	814.958187086992	1
0	4225	815.54077472181	0
0	4239	817.150898269884	1
0	4241	817.252710784922	2
0	4242	817.338616806894	1
0	4246	817.427438199407	2
0	4249	817.888925206596	1
0	4256	818.324699413197	0
0	4262	819.3532232467	1
0	4264	819.420571721279	2
0	4268	819.778483123969	3
0	4272	820.304869924455	2
0	4278	820.985434722416	1
0	4284	821.075481205686	2
0	4285	821.60462386682	1
0	4292	822.355363289206	0
0	4342	830.062129245078	1
0	4344	830.068826722914	2
0	4346	831.521145437684	3
0	4349	832.292268373887	2
0	4355	832.951717495013	3
0	4356	833.941482818514	2
0	4361	835.399289779034	1
0	4368	837.347892360846	0
0	4374	837.442199642881	1
0	4376	837.886605471201	2
0	4378	838.414111012725	3
0	4380	840.033319456748	4
0	4381	840.30650036381	3
0	4387	841.152187702786	4
0	4391	841.675576818115	3
0	4396	841.745414643163	2
0	4400	842.287123642124	3
0	4406	843.135690370048	4
0	4407	843.159038599666	3
0	4417	845.369526627553	2
0	4422	845.506871760559	1
0	4426	846.415731529841	2
0	4428	847.128313233586	3
0	4431	847.674016904572	2
0	4437	848.336175865789	1
0	4442	848.586320842518	0
0	4449	849.738837439957	1
0	4451	850.030614275094	0
0	4459	850.924910520476	1
0	4460	851.394259757833	0
0	4466	851.652111197347	1
0	4468	852.142653666592	2
0	4469	852.508433479129	1
0	4473	853.045906510605	2
0	4478	855.623440594101	1
0	4485	858.091082471937	0
0	4489	858.227019327381	1
0	4497	861.451562598892	2
0	4498	862.440806225579	1
0	4503	863.116892001998	0
0	4509	863.236508870146	1
0	4513	863.993691248797	0
0	4539	868.06898065852	1
0	4542	868.19470599	0
0	4554	869.25670728115	1
0	4559	870.117792392467	0
0	4566	870.889944529394	1
0	4567	872.37371416544	0
0	4573	872.397832513855	1
0	4575	872.650510614933	2
0	4576	872.719355333782	1
0	4581	873.088126280996	0
0	4592	876.90505884717	1
0	4602	877.47213277927	2
0	4609	878.497285717501	3
0	4610	879.662841832801	2
0	4618	881.453703550525	1
0	4623	881.572899042441	0
0	4629	882.954614048369	1
0	4630	883.261857947101	0
0	4647	886.367655614831	1
0	4648	887.263096973986	0
0	4669	888.923449358855	1
0	4671	889.529063503098	2
0	4674	889.8844139767	3
0	4675	890.272531605858	2
0	4680	890.764963542722	1
0	4684	891.778951237127	2
0	4686	893.073082155437	3
0	4689	893.435694271491	2
0	4693	894.180692871935	3
0	4696	896.427803043274	2
0	4700	897.358257930464	3
0	4704	898.898862876776	4
0	4709	899.645687031387	5
0	4710	899.826328199579	4
0	4718	900.396893494568	5
0	4719	900.956689864612	4
0	4724	901.856697918754	3
0	4733	902.256913924992	4
0	4735	903.313620524959	3
0	4741	903.806211159944	4
0	4742	904.075639029241	3
0	4746	905.477923907344	4
0	4750	905.670224754263	5
0	4751	905.95564618737	4
0	4755	907.232958765356	5
0	4761	909.205301962872	6
0	4767	911.149872132249	5
0	4776	912.624410564392	4
0	4785	914.507449520202	5
0	4786	915.260493636932	4
0	4791	915.644778748454	3
0	4798	916.146632646851	4
0	4799	916.328898811171	3
0	4804	916.415480265292	2
0	4810	916.821046244229	3
0	4811	917.330690434388	2
0	4818	918.175301535444	1
0	4823	918.513385116636	0
0	4829	920.172630411547	1
0	4830	921.81862435072	0
0	4834	922.18434240519	1
0	4836	922.323561169321	2
0	4838	922.437797716141	3
0	4840	923.14814511636	4
0	4843	924.405139190341	3
0	4851	926.767453839812	2
0	4857	926.797235774364	3
0	4859	926.864486021403	4
0	4861	927.110420343131	5
0	4864	928.136237230315	4
0	4872	931.150727213602	5
0	4874	931.823638764117	6
0	4876	932.077915050526	7
0	4880	933.603492749912	6
0	4885	934.080391212836	5
0	4891	935.367794185342	6
0	4895	935.99678368629	7
0	4898	936.444367929939	8
0	4899	936.560501293545	7
0	4904	936.853663975795	6
0	4908	937.444526573589	7
0	4910	937.504237561238	8
0	4912	939.407338423454	9
0	4916	941.155507068779	10
0	4917	941.500610477695	9
0	4921	941.588360383709	10
0	4923	942.936898652133	11
0	4925	942.975955837956	12
0	4929	943.323988555648	13
0	4930	943.34769879468	12
0	4937	945.741794452881	11
0	4943	946.233232971264	12
0	4944	946.751599485076	11
0	4949	947.978118306002	10
0	4956	949.322070940128	9
0	4960	949.530687886525	10
0	4965	950.94479704818	9
0	4969	950.991835550402	10
0	4973	951.508131227378	11
0	4977	951.693077027859	10
0	4984	951.863566869824	9
0	4992	954.399901659696	10
0	4994	956.032177508348	11
0	4995	956.58425759207	10
0	5001	959.054753981542	9
0	5006	959.201183266861	8
0	5010	959.797735683865	9
0	5015	961.985688974806	10
0	5018	962.569826117578	9
0	5024	962.67193111405	8
0	5031	963.355014824072	7
0	5035	963.782578444974	8
0	5041	964.377760836807	7
0	5046	966.154034145344	6
0	5050	966.793247746417	7
0	5052	967.019219554929	8
0	5054	967.106973955742	9
0	5058	968.083258555094	10
0	5060	968.121093659344	11
0	5063	970.038730157463	10
0	5068	971.367090170332	9
0	5076	972.217886578754	10
0	5078	972.684986656079	9
0	5083	972.93329024377	8
0	5087	974.233575065493	9
0	5091	975.448684858985	10
0	5095	976.539854230787	9
0	5100	976.606271778527	8
0	5106	977.405055732376	7
0	5113	978.047779253846	6
0	5117	978.805697682459	7
0	5119	979.479222242465	8
0	5121	980.671969831828	9
0	5127	982.539206361924	10
0	5129	983.247419846508	11
0	5130	984.217300560643	10
0	5134	984.817121115475	11
0	5137	989.526954017486	10
0	5141	989.556322937723	11
0	5144	989.632815379811	10
0	5149	992.519910000661	9
0	5154	994.349686983315	8
0	5160	995.773066076192	7
0	5165	996.416131857068	6
0	5170	996.533377772095	5
0	5178	1000.137935878707	6
0	5179	1000.316163265093	5
0	5185	1000.832910132297	6
0	5187	1002.252304959082	5
0	5193	1003.056417385653	6
0	5194	1003.14440002549	5
0	5199	1005.202267218083	4
0	5204	1005.673619185597	3
0	5208	1005.779054167543	4
0	5211	1006.138854565199	3
0	5216	1006.596331759337	2
0	5221	1006.786002856591	1
0	5226	1007.368164436392	0
0	5230	1008.609782323023	1
0	5235	1010.91745124607	2
0	5237	1011.49778330869	1
0	5242	1011.942360221336	0
0	5254	1012.980904556063	1
0	5258	1015.054569199938	2
0	5259	1016.573492390269	1
0	5264	1017.492208014851	0
0	5284	1019.046825314655	1
0	5290	1021.185200729641	0
0	5334	1026.179995222788	1
0	5339	1028.108567727235	2
0	5341	1028.212799490604	3
0	5346	1030.789631002826	2
0	5354	1031.395436804024	1
0	5359	1031.399165867312	0
0	5392	1037.574141026075	1
0	5395	1038.745883038872	0
0	5411	1042.395267698541	1
0	5415	1044.124871426537	0
0	5427	1044.461953881226	1
0	5430	1044.654104963796	2
0	5432	1045.858758843216	1
0	5437	1046.222063373512	0
0	5448	1046.477526574272	1
0	5452	1047.62747626193	2
0	5457	1050.108808699115	1
0	5465	1051.209697908892	2
0	5467	1053.365222552712	3
0	5469	1053.753353803621	4
0	5470	1055.607526002384	3
0	5477	1056.094019188439	4
0	5478	1056.42944697999	3
0	5483	1057.124535147484	2
0	5489	1057.426495601956	3
0	5490	1057.651195772824	2
0	5499	1059.13971778348	1
0	5504	1059.166191796723	0
0	5521	1060.996889518172	1
0	5523	1062.698142084188	2
0	5525	1063.357298234252	1
0	5533	1063.828462518325	2
0	5534	1065.491877301758	1
0	5539	1065.648852438202	0
0	5561	1070.864358326149	1
0	5566	1072.026948044692	2
0	5567	1072.051244036608	1
0	5572	1072.547321031781	0
0	5576	1072.611860877612	1
0	5578	1072.704978635692	2
0	5580	1073.478317705473	3
0	5583	1075.044966547868	2
0	5589	1075.875932951119	3
0	5590	1076.021938611582	2
0	5595	1076.387369725501	1
0	5601	1077.173782375934	2
0	5604	1077.350539775246	3
0	5607	1077.5517248382	4
0	5608	1077.687510175871	3
0	5614	1078.370115202625	2
0	5620	1081.219462813994	1
0	5625	1081.229112433862	0
0	5636	1082.229341813606	1
0	5639	1082.247181273461	2
0	5642	1082.38233419877	1
0	5648	1082.89605159797	0
0	5660	1085.405500943837	1
0	5662	1086.46107926923	2
0	5664	1087.685949695388	3
0	5665	1088.211015282928	2
0	5670	1088.728733545311	1
0	5676	1089.209611707157	2
0	5677	1089.240973044141	1
0	5681	1090.340726123699	2
0	5684	1090.727995784008	1
0	5689	1092.719978175783	0
0	5702	1096.378394844072	1
0	5704	1096.741542398426	0
0	5726	1100.180581738059	1
0	5730	1101.910967692442	0
0	5756	1103.850481255801	1
0	5759	1103.938652201049	0
0	5765	1103.956087026684	1
0	5766	1104.074740773503	0
0	5775	1105.052627640406	1
0	5778	1106.2201544377	0
0	5784	1106.258301113069	1
0	5786	1107.106527194244	2
0	5791	1108.971950531173	1
0	5798	1109.992177679621	0
0	5804	1110.192383128519	1
0	5806	1111.135172959433	0
0	5835	1115.913047338232	1
0	5836	1116.342829826416	0
0	5848	1117.355232428859	1
0	5850	1117.591844394831	2
0	5852	1118.023711194175	3
0	5854	1118.144433707471	4
0	5857	1119.340336722336	3
0	5865	1120.148713487403	4
0	5869	1120.31705735103	5
0	5871	1121.017987985478	6
0	5872	1121.426935739446	5
0	5879	1122.265239908691	6
0	5881	1122.460865466963	7
0	5882	1122.512907715916	6
0	5887	1122.52830424914	5
0	5893	1122.601998409894	4
0	5900	1123.175550921659	3
0	5906	1124.563654654092	4
0	5908	1124.911513990005	5
0	5910	1125.480768382519	6
0	5914	1127.550004746824	7
0	5920	1128.904667788025	6
0	5933	1130.265962769581	7
0	5934	1130.321828141135	6
0	5940	1130.484031868517	7
0	5943	1131.481644009446	6
0	5948	1131.562305122175	5
0	5957	1135.164754583358	4
0	5962	1137.19709046372	3
0	5970	1139.596968454712	4
0	5971	1140.553448643581	3
0	5977	1141.409683904833	2
0	5989	1143.186691611799	3
0	5990	1143.207972628437	2
0	5996	1144.449196743822	3
0	5997	1145.877767909808	2
0	6001	1146.158484226701	3
0	6005	1147.415799930147	4
0	6006	1147.447376656826	3
0	6014	1148.511753640763	4
0	6017	1148.686557365258	3
0	6025	1150.827220258916	4
0	6026	1152.964696649862	3
0	6034	1155.156027284775	4
0	6036	1155.270563746539	5
0	6037	1155.357921899905	4
0	6043	1156.209071696733	5
0	6044	1156.251940684598	4
0	6048	1157.540789879342	5
0	6050	1158.006219445571	6
0	6055	1158.405556995643	5
0	6061	1159.39225051771	6
0	6064	1159.528015317885	5
0	6069	1160.413291786878	4
0	6073	1160.826162203783	5
0	6077	1162.146657427523	6
0	6081	1162.493478024443	7
0	6082	1162.506389980935	6
0	6090	1162.886359619624	7
0	6094	1163.792729631515	8
0	6095	1164.155979446214	7
0	6100	1164.646372661291	6
0	6104	1166.115106879077	7
0	6107	1166.967063834482	6
0	6111	1167.093671421474	7
0	6115	1169.514555687955	8
0	6117	1170.247043962655	9
0	6123	1171.621176342144	8
0	6128	1171.706503069598	7
0	6133	1172.649892731212	6
0	6137	1172.891053544703	7
0	6140	1176.167835698627	6
0	6146	1176.947237306053	7
0	6150	1178.17828633297	8
0	6152	1178.944335093501	9
0	6154	1179.101494171026	10
0	6155	1179.382232850592	9
0	6165	1180.126127346935	10
0	6166	1180.188537279663	9
0	6171	1180.3442829259	8
0	6176	1180.379063234786	7
0	6182	1182.277803473695	8
0	6183	1182.616581394916	7
0	6191	1183.951117588974	8
0	6194	1184.589471557665	7
0	6201	1188.266530484663	6
0	6209	1190.330206464865	5
0	6214	1190.858582192893	4
0	6219	1191.63064640099	3
0	6223	1193.088281171132	4
0	6225	1193.344376892132	5
0	6228	1194.373115257671	4
0	6233	1194.522699357259	3
0	6238	1194.969453687109	2
0	6242	1195.34911247307	3
0	6245	1195.945428579802	2
0	6249	1196.092457903703	3
0	6253	1197.111133119608	2
0	6261	1198.877510763898	3
0	6262	1199.678074300028	2
0	6267	1201.410824792475	1
0	6275	1204.170746144259	2
0	6279	1205.118236835684	3
0	6280	1205.662078080837	2
0	6288	1207.12651373646	3
0	6289	1207.967224723356	2
0	6295	1208.636645397236	1
0	6301	1208.92833376723	2
0	6302	1209.124869194793	1
0	6306	1209.669126905028	2
0	6311	1210.267811513741	1
0	6316	1211.22677165	0
0	6320	1212.499382831988	1
0	6323	1214.303486945548	0
0	6327	1214.724944005806	1
0	6337	1217.575771272369	2
0	6338	1217.679378641495	1
0	6344	1217.750855217337	2
0	6348	1219.303850106546	1
0	6353	1219.598215755468	0
0	6357	1219.657388294008	1
0	6361	1220.752672784059	2
0	6363	1220.976138295603	1
0	6369	1222.284128079345	2
0	6370	1222.484995954902	1
0	6375	1223.098795423921	0
0	6379	1223.95914727552	1
0	6384	1225.086010437637	0
0	6388	1225.443558654292	1
0	6393	1226.115334801974	0
0	6397	1226.39341011889	1
0	6401	1227.48912129719	2
0	6403	1229.48792768725	3
0	6404	1230.535795278792	2
0	6408	1230.539373537269	3
0	6410	1230.550422250266	4
0	6414	1231.673648287085	3
0	6419	1232.133610677171	2
0	6426	1233.178715895663	1
0	6432	1233.305559695067	2
0	6436	1234.023515565072	3
0	6439	1235.4875008962	2
0	6443	1236.746487487143	3
0	6446	1236.913981425685	2
0	6451	1238.430126210314	1
0	6455	1239.269759569022	2
0	6457	1239.509374266444	3
0	6461	1240.055127771935	4
0	6462	1240.094319645046	3
0	6467	1240.489098371957	2
0	6471	1241.06781080552	3
0	6476	1242.375272896326	2
0	6481	1242.946202104293	1
0	6487	1243.609242777106	2
0	6490	1245.70726055099	1
0	6494	1245.764288728145	2
0	6497	1247.312307931037	1
0	6503	1249.665345226604	0
0	6523	1250.983174260069	1
0	6524	1251.475021224551	0
0	6540	1252.09619788272	1
0	6543	1253.221812743874	2
0	6545	1253.360187004307	3
0	6547	1254.190517338887	4
0	6554	1257.401682191192	3
0	6558	1257.813316136735	4
0	6563	1259.628609232973	3
0	6567	1262.12398620898	4
0	6571	1263.676593641518	5
0	6572	1263.863462553583	4
0	6576	1264.114138877763	5
0	6580	1266.133710676702	6
0	6583	1266.249213674397	5
0	6589	1266.713443177757	6
0	6591	1268.587637274332	7
0	6594	1269.192679070598	6
0	6600	1270.0246129219	7
0	6605	1274.495379848326	6
0	6609	1275.087417371148	7
0	6612	1275.869335194397	6
0	6619	1277.039034204572	5
0	6625	1277.362658079852	6
0	6628	1280.283775526535	5
0	6633	1281.308852591454	4
0	6638	1281.344246067955	3
0	6646	1282.854682638155	4
0	6649	1283.26857662093	5
0	6650	1283.643699494355	4
0	6656	1284.139738804148	3
0	6662	1284.763952887751	4
0	6663	1284.89950344686	3
0	6669	1286.652505526202	4
0	6670	1286.694864832318	3
0	6675	1287.628292536833	2
0	6682	1289.930720899522	1
0	6686	1289.968952198218	2
0	6688	1291.073142412464	3
0	6690	1293.934125255378	4
0	6692	1294.146677554179	5
0	6696	1295.996538813214	6
0	6701	1296.999955125138	5
0	6705	1297.208368874584	6
0	6707	1297.447353834877	7
0	6709	1297.574666674532	8
0	6712	1298.61621370589	7
0	6716	1299.103078409618	8
0	6719	1299.541148730614	7
0	6724	1300.172832099165	6
0	6730	1300.724789785702	7
0	6732	1301.714006524927	6
0	6738	1302.336300793155	5
0	6743	1302.862989016998	4
0	6748	1303.860702357306	3
0	6754	1304.655996317317	4
0	6756	1304.664440385482	5
0	6757	1305.251577479143	4
0	6764	1309.878850696631	3
0	6768	1310.351934469742	4
0	6771	1311.793271421293	3
0	6777	1313.895483574926	4
0	6779	1314.5633684943	5
0	6783	1315.290464079295	6
0	6785	1315.518114627224	7
0	6786	1315.891192084573	6
0	6790	1317.525939236071	7
0	6793	1317.970815359271	6
0	6799	1319.327149166841	7
0	6802	1321.555665990287	6
0	6808	1322.685621353515	7
0	6811	1323.455798382519	6
0	6816	1325.221367510267	5
0	6825	1325.784601186857	4
0	6831	1326.721287034877	5
0	6832	1327.120717027096	4
0	6839	1328.491788826767	5
0	6840	1328.498136484009	4
0	6846	1328.815015475405	5
0	6848	1329.130728603873	4
0	6854	1329.246551790126	5
0	6858	1330.494141473899	6
0	6860	1330.584886864493	7
0	6861	1331.36213459128	6
0	6865	1331.909662141327	7
0	6869	1333.246910662925	8
0	6870	1334.056871150183	7
0	6874	1334.682853037012	8
0	6876	1335.781020017855	9
0	6880	1336.137674734282	8
0	6885	1336.405050533211	7
0	6889	1336.493716572056	8
0	6891	1336.999384935346	9
0	6894	1338.318311133553	8
0	6899	1340.389145424604	7
0	6903	1340.433019625395	8
0	6908	1341.212113042397	7
0	6915	1342.387926877559	6
0	6921	1343.751485103951	7
0	6922	1344.036214334528	6
0	6927	1344.703511807072	5
0	6931	1344.85314767467	6
0	6933	1345.192140241132	7
0	6936	1346.258594735771	6
0	6942	1346.849842939956	7
0	6943	1348.686690261854	6
0	6950	1349.399203011445	5
0	6955	1351.161354789364	4
0	6959	1352.68311756232	5
0	6962	1353.737937956364	4
0	6968	1355.961732978655	5
0	6971	1356.661369236002	4
0	6976	1357.239476315761	3
0	6980	1358.199484742897	4
0	6986	1361.199859353179	5
0	6987	1362.30829339026	4
0	6992	1362.712538185174	3
0	7003	1365.208163670012	4
0	7004	1365.272039158189	3
0	7009	1365.942881204367	2
0	7013	1365.958319657307	3
0	7017	1368.151904935178	2
0	7022	1369.541197881017	1
0	7031	1370.230083070905	0
0	7085	1377.419673258056	1
0	7090	1379.705167346272	2
0	7091	1379.92805611686	1
0	7096	1380.057943828778	0
0	7112	1381.803666548819	1
0	7114	1383.447602067198	2
0	7116	1383.557483613575	3
0	7120	1385.144999809362	4
0	7126	1386.663108248661	3
0	7132	1386.973815464141	4
0	7136	1387.488321684341	5
0	7137	1388.286548681779	4
0	7144	1390.629911120624	3
0	7148	1390.907076490542	4
0	7152	1392.879803492194	3
0	7157	1392.90513085868	2
0	7162	1395.525671744529	1
0	7168	1397.299019005968	2
0	7169	1397.391605742918	1
0	7175	1398.413247517175	2
0	7178	1400.310730862418	1
0	7184	1400.848953949562	2
0	7189	1402.640237254088	1
0	7193	1403.247685588914	2
0	7202	1405.973727072296	3
0	7205	1407.445641433956	2
0	7210	1407.720354244534	1
0	7215	1408.819613887879	0
0	7221	1409.353051617462	1
0	7222	1410.139461987966	0
0	7245	1413.794893402861	1
0	7247	1414.870615211433	2
0	7249	1415.405939843617	3
0	7251	1416.589460888503	2
0	7257	1416.627166219968	1
0	7262	1416.995043080701	0
0	7279	1417.709959280591	1
0	7280	1419.742766402871	0
0	7284	1421.453136708843	1
0	7287	1422.798484772534	0
0	7291	1422.907326679614	1
0	7294	1423.125445629288	0
0	7304	1424.856942482435	1
0	7305	1424.969037579357	0
0	7320	1427.27986659983	1
0	7322	1427.437061924498	2
0	7324	1427.69561234344	3
0	7327	1428.176212880314	2
0	7335	1428.575057711621	1
0	7343	1431.266769958972	0
0	7355	1433.483514767208	1
0	7356	1433.638762935091	0
0	7363	1433.934353938721	1
0	7364	1434.304462459351	0
0	7371	1434.551666638928	1
0	7372	1434.913405990861	0
0	7402	1436.456235685879	1
0	7403	1437.26508899247	0
0	7409	1437.491267943089	1
0	7412	1438.231406572361	2
0	7414	1438.56050374061	1
0	7421	1438.774521523892	2
0	7423	1439.937874472208	1
0	7428	1440.05462353348	0
0	7434	1440.683697072164	1
0	7437	1441.364491899695	2
0	7438	1441.708353615602	1
0	7444	1442.411059085963	0
0	7448	1442.82300831706	1
0	7451	1444.092264531014	0
0	7467	1447.610292470722	1
0	7468	1447.831621804927	0
0	7479	1449.614866345918	1
0	7480	1450.898334163279	0
0	7492	1452.321579244449	1
0	7493	1452.427501647702	0
0	7504	1452.624075966769	1
0	7506	1452.779845873047	2
0	7509	1453.780338934024	1
0	7515	1453.842065966867	2
0	7516	1453.889538772045	1
0	7522	1454.494771796786	2
0	7525	1456.10420371779	1
0	7529	1456.485570711758	2
0	7532	1456.822707962754	1
0	7537	1457.009892626005	0
0	7541	1457.042045358284	1
0	7546	1458.1687367604	0
0	7557	1458.971835971571	1
0	7558	1459.423450395599	0
0	7567	1460.481684964786	1
0	7569	1460.523398451022	2
0	7571	1460.779524642562	3
0	7576	1462.110428499154	2
0	7583	1464.090372312374	1
0	7588	1465.209562079003	0
0	7592	1465.77624851005	1
0	7594	1466.276892139391	2
0	7596	1466.696464489427	3
0	7598	1466.735046477071	4
0	7602	1467.256742162801	5
0	7604	1467.961160976481	4
0	7609	1468.499470665628	3
0	7614	1469.610008031727	2
0	7618	1470.340155765085	3
0	7623	1473.786181536102	2
0	7629	1477.074105492932	3
0	7633	1478.159716689492	2
0	7638	1478.744437751459	1
0	7642	1480.668246354178	2
0	7645	1481.455686245666	1
0	7650	1482.547471301318	0
0	7668	1488.456287030274	1
0	7669	1488.747933805595	0
0	7695	1494.449702828285	1
0	7696	1494.941771097928	0
0	7715	1497.725468466521	1
0	7718	1498.004843292362	2
0	7722	1499.806640746359	3
0	7723	1499.984299196556	2
0	7729	1500.814460013876	1
0	7734	1501.27605093527	0
0	7788	1507.332631605098	1
0	7789	1507.510564674018	0
0	7800	1510.18321534933	1
0	7802	1511.613640682504	2
0	7806	1512.203986253401	3
0	7808	1512.825743582886	2
0	7812	1512.97412348181	3
0	7815	1513.936746310659	2
0	7820	1515.131655688513	1
0	7824	1515.146596581865	2
0	7828	1515.867344381778	3
0	7830	1516.136215261306	4
0	7834	1516.491271074024	5
0	7836	1517.102903016177	6
0	7837	1517.186719888459	5
0	7841	1518.081396108695	6
0	7843	1518.51648286696	7
0	7851	1519.602454991869	6
0	7857	1519.724660960135	5
0	7864	1520.582843187242	4
0	7868	1520.911146736522	5
0	7873	1523.770466797312	6
0	7874	1524.77201865722	5
0	7878	1524.994353599479	6
0	7881	1526.715962193626	5
0	7886	1527.134811437495	4
0	7891	1527.535067699715	3
0	7898	1529.193180175898	4
0	7899	1529.286824254167	3
0	7905	1529.29573545101	4
0	7909	1530.568470168898	3
0	7915	1531.710559468708	4
0	7918	1533.037616901395	3
0	7922	1534.263018285448	4
0	7924	1534.315231547102	5
0	7927	1534.566582158841	4
0	7931	1534.880196496207	5
0	7935	1535.105301916459	6
0	7936	1535.256078561629	5
0	7940	1536.659731606936	6
0	7942	1538.647072485647	7
0	7944	1539.033899895491	8
0	7948	1540.259107118317	9
0	7951	1540.520507652995	10
0	7952	1540.615397712214	9
0	7957	1541.018680402209	8
0	7961	1541.025354639427	9
0	7964	1542.187839214073	8
0	7968	1542.65681243146	9
0	7971	1545.267361842361	8
0	7979	1547.04154989314	9
0	7983	1548.043228094998	8
0	7990	1548.775934453147	9
0	7994	1549.064690679029	10
0	7995	1549.931928005372	9
0	8001	1549.965907239022	10
0	8003	1550.371376578528	11
0	8005	1550.738827610739	12
0	8006	1551.143682711171	11
0	8010	1552.13538706917	12
0	8014	1552.713297542262	13
0	8015	1554.334079247601	12
0	8019	1554.800391094498	13
0	8021	1555.244480480166	14
0	8023	1556.141130829249	15
0	8025	1556.312603636571	16
0	8032	1557.212554168862	17
0	8033	1558.220304609136	16
0	8038	1558.640980750883	15
0	8043	1559.528311950028	14
0	8050	1561.293612163043	13
0	8058	1562.268086595903	14
0	8059	1562.816050664147	13
0	8066	1563.450808180918	12
0	8073	1564.703511302446	11
0	8077	1565.657539248271	12
0	8082	1567.234358462194	13
0	8085	1568.572928819556	12
0	8091	1568.8074367408	13
0	8093	1569.554541085742	14
0	8095	1571.183588960772	15
0	8096	1571.241605104779	14
0	8100	1571.290466445772	15
0	8104	1573.076152610975	16
0	8108	1574.960407152712	17
0	8109	1575.152729441427	16
0	8113	1575.166957598211	17
0	8115	1576.324100123752	18
0	8117	1576.632992556924	19
0	8123	1577.129788887627	20
0	8124	1578.23032681939	19
0	8130	1579.359672313179	20
0	8132	1579.742718186506	19
0	8137	1579.750452784294	18
0	8146	1581.285686948359	19
0	8148	1581.757310398918	20
0	8149	1581.946330630445	19
0	8154	1582.227898505927	18
0	8158	1585.231492691445	19
0	8162	1586.423204487292	20
0	8164	1587.347976266341	21
0	8166	1588.072000846689	22
0	8170	1588.731034624486	23
0	8171	1589.677507917681	22
0	8175	1589.868056481471	23
0	8178	1590.868647294707	22
0	8183	1591.906197832565	21
0	8189	1593.448099942284	22
0	8190	1593.649038681528	21
0	8194	1594.376266964829	22
0	8199	1595.442564783116	21
0	8206	1597.938651865587	20
0	8215	1598.621597594332	19
0	8219	1598.799935325911	20
0	8221	1598.837710743034	21
0	8226	1599.759947218147	20
0	8231	1601.022910212613	19
0	8238	1601.563082340968	20
0	8240	1602.462014952573	21
0	8241	1602.627631744992	20
0	8253	1603.679100178986	19
0	8265	1605.235730251432	18
0	8271	1606.051177369927	19
0	8273	1606.512453038785	20
0	8275	1607.836432877638	21
0	8277	1609.286102998504	22
0	8278	1609.370746746991	21
0	8283	1609.385852282152	20
0	8289	1609.624576387049	21
0	8292	1610.076986390976	20
0	8298	1610.489458593964	21
0	8300	1611.043420106126	22
0	8302	1611.443503227403	23
0	8303	1612.410452504785	22
0	8307	1612.471001545983	23
0	8310	1612.920630529851	22
0	8315	1614.659337157023	21
0	8323	1615.632513811037	22
0	8324	1616.306349550095	21
0	8329	1616.738310125757	20
0	8334	1617.394030787785	19
0	8338	1617.686954552505	20
0	8346	1618.983924229643	21
0	8347	1620.440784757189	20
0	8352	1622.291104524882	19
0	8361	1626.978373022711	18
0	8365	1627.075046667808	19
0	8370	1628.592427942122	18
0	8375	1629.83142326896	17
0	8380	1630.313126005547	16
0	8386	1630.705603149788	17
0	8387	1630.738183202504	16
0	8391	1631.324899452219	17
0	8395	1633.014292442426	18
0	8397	1634.15662570857	19
0	8400	1634.522007257722	18
0	8405	1636.652087624315	17
0	8409	1636.916935860166	18
0	8411	1637.985029147084	19
0	8414	1638.391247066214	18
0	8423	1639.900823212411	19
0	8424	1640.159334174147	18
0	8429	1640.50254813218	17
0	8434	1641.188242535877	16
0	8441	1642.389694471071	15
0	8447	1642.687523321625	16
0	8449	1642.716087176266	17
0	8450	1643.760438208145	16
0	8457	1644.250344054122	15
0	8466	1645.649350264694	14
0	8471	1645.705936420502	13
0	8476	1646.341155569632	12
0	8482	1646.693950761435	13
0	8486	1648.104716754546	12
0	8491	1648.351064336702	11
0	8499	1649.8506485414	12
0	8502	1650.50659809941	13
0	8503	1651.851341921329	12
0	8508	1652.512493864714	11
0	8513	1652.650968021673	10
0	8518	1653.370899216213	9
0	8524	1655.257310427411	8
0	8531	1655.533517782705	9
0	8533	1655.596841913714	8
0	8538	1655.861054040449	7
0	8546	1656.213321653216	6
0	8554	1657.242143196448	5
0	8559	1657.40322677199	4
0	8563	1661.339525755569	5
0	8566	1661.809902598793	4
0	8570	1664.515537040279	5
0	8573	1665.086904230236	4
0	8580	1668.059944608833	5
0	8582	1669.024590434675	6
0	8583	1669.564306635731	5
0	8589	1670.007760916359	4
0	8594	1672.054259357996	3
0	8600	1674.963425688764	4
0	8601	1675.173826074017	3
0	8606	1675.784712869673	2
0	8614	1676.293165538295	3
0	8615	1676.443342850202	2
0	8620	1676.989677147732	1
0	8625	1679.344622386152	0
0	8673	1684.19404943768	1
0	8674	1684.849356909041	0
0	8682	1685.047245525843	1
0	8684	1685.24105152817	2
0	8686	1686.33811109987	1
0	8693	1687.547199398092	0
0	8702	1688.488487193572	1
0	8704	1688.783484053522	2
0	8706	1688.80056841231	3
0	8708	1689.052555153486	4
0	8711	1689.679291028432	3
0	8717	1690.044832790071	4
0	8720	1691.50711051711	3
0	8725	1691.556377762859	2
0	8729	1691.873887771319	3
0	8731	1692.131640100519	4
0	8734	1694.394733697253	3
0	8738	1694.646499795661	4
0	8741	1694.910851746039	3
0	8751	1696.94553799444	2
0	8756	1699.389331010686	1
0	8763	1704.293144707818	0
0	8793	1707.499457506797	1
0	8795	1708.214462437592	2
0	8799	1709.922218549404	3
0	8800	1710.762130257544	2
0	8806	1712.706703475556	3
0	8808	1713.132884709943	4
0	8811	1713.938175845198	3
0	8818	1715.27906584322	2
0	8824	1715.325573750706	3
0	8826	1716.004222187198	4
0	8827	1716.066889232643	3
0	8831	1716.144767964214	4
0	8835	1717.836263383849	5
0	8836	1717.948576425211	4
0	8843	1718.566546667527	3
0	8850	1718.697567324068	4
0	8851	1718.831617173725	3
0	8859	1719.689512397743	4
0	8860	1719.853507991982	3
0	8866	1721.257728783388	2
0	8872	1721.87595649797	3
0	8875	1723.229385907031	2
0	8880	1723.26881511997	1
0	8886	1723.642870843877	0
0	8911	1725.482665177272	1
0	8912	1725.837853680487	0
0	8927	1727.101757416047	1
0	8933	1728.659589750197	2
0	8936	1729.06516299973	1
0	8941	1730.790564429749	0
0	8945	1730.998655960574	1
0	8947	1732.552791350073	2
0	8949	1733.707180479116	3
0	8951	1734.472139293229	4
0	8954	1735.346879367442	3
0	8958	1735.889574331291	4
0	8962	1738.792863375605	5
0	8966	1740.855289133337	6
0	8971	1741.887786209036	5
0	8977	1742.59385688127	4
0	8982	1742.877641181045	3
0	8988	1743.722684434045	2
0	8994	1744.040875407002	1
0	9001	1746.457012236597	0
0	9017	1747.279853495622	1
0	9018	1747.898241973012	0
0	9022	1750.060812809377	1
0	9024	1750.586390784374	2
0	9026	1750.713423573132	3
0	9031	1751.754797598202	2
0	9035	1752.744111058908	3
0	9039	1753.882542722592	2
0	9044	1754.338608721996	1
0	9051	1755.225450142334	2
0	9052	1755.322779742712	1
0	9058	1756.152891435797	0
0	9064	1756.294453709047	1
0	9066	1756.970093532717	0
0	9085	1759.177090863675	1
0	9090	1760.735790181575	2
0	9092	1760.971150858902	3
0	9093	1761.499252507789	2
0	9098	1761.944141543908	1
0	9104	1763.634190124821	0
0	9130	1766.884848517776	1
0	9132	1766.916196684005	2
0	9135	1767.585079006084	1
0	9139	1770.018679133566	2
0	9143	1771.592643644766	1
0	9148	1772.465705008538	0
0	9152	1773.162832789687	1
0	9156	1774.875013773535	2
0	9157	1775.490329880998	1
0	9163	1777.117054936878	0
0	9188	1780.126039866715	1
0	9189	1780.188597734769	0
0	9213	1787.628774854	1
0	9216	1787.836425934835	0
0	9225	1789.099623571476	1
0	9229	1790.301421887247	2
0	9231	1790.350531814087	3
0	9232	1791.561710408188	2
0	9237	1791.795267963431	1
0	9242	1791.916235002927	0
0	9246	1792.029932616019	1
0	9252	1793.903772469924	0
0	9268	1795.424888338222	1
0	9269	1795.509667709349	0
0	9296	1800.02352705836	1
0	9299	1801.639168331617	0
0	9306	1801.960836478367	1
0	9307	1802.315802900824	0
0	9318	1802.920536955543	1
0	9319	1802.98851750105	0
0	9331	1804.544497526008	1
0	9334	1806.455069130739	2
0	9336	1806.553163491604	3
0	9337	1807.374687575102	2
0	9343	1809.198063649933	1
0	9348	1809.57681288961	0
0	9357	1811.183731987961	1
0	9358	1811.202045193236	0
0	9375	1813.989015423724	1
0	9376	1814.391933898549	0
0	9382	1814.465106249436	1
0	9383	1814.643286735326	0
0	9410	1817.748780981042	1
0	9411	1817.971950813433	0
0	9424	1819.36400744983	1
0	9427	1819.649756068027	0
0	9448	1820.846601804351	1
0	9450	1820.996012147818	2
0	9453	1821.23113534113	1
0	9458	1821.323890322017	0
0	9464	1821.618566491006	1
0	9465	1822.082597387144	0
0	9474	1823.503757689399	1
0	9479	1825.023236716327	0
0	9488	1825.38446941852	1
0	9497	1829.622460316862	0
0	9564	1844.58450178967	1
0	9568	1847.971703637452	0
0	9612	1852.059469855992	1
0	9614	1852.781979133151	0
0	9640	1853.636906885167	1
0	9647	1858.358260995221	0
0	9655	1858.49226393362	1
0	9661	1860.330021631218	0
0	9667	1860.389019491122	1
0	9669	1861.289878360413	0
0	9675	1861.820696330845	1
0	9677	1862.805264788427	0
0	9693	1864.512086629782	1
0	9696	1865.820609772213	0
0	9729	1868.936794526998	1
0	9730	1868.976316402889	0
0	9739	1869.982670462396	1
0	9743	1872.184629827447	2
0	9745	1872.895067592893	1
0	9751	1873.256321616727	2
0	9752	1873.367714860723	1
0	9756	1874.110529874116	2
0	9763	1875.982294555207	1
0	9768	1876.237365239958	0
0	9774	1876.899510877442	1
0	9775	1876.904186606386	0
0	9779	1877.700126931154	1
0	9783	1878.560523650805	2
0	9785	1879.732660485436	3
0	9788	1880.003852709744	4
0	9790	1880.379820955291	3
0	9795	1880.443855600735	2
0	9801	1880.87655587346	1
0	9805	1880.921942402401	2
0	9810	1881.860389046136	1
0	9816	1881.944798860041	2
0	9817	1884.243436753752	1
0	9821	1884.902413307115	2
0	9825	1885.345724488571	3
0	9830	1887.996435489055	2
0	9834	1888.200300544003	3
0	9839	1889.877168542431	2
0	9850	1891.299210201911	1
0	9856	1893.512105888894	2
0	9858	1893.589316490819	3
0	9859	1893.749990161166	2
0	9865	1894.884009916673	3
0	9866	1895.006902231951	2
0	9875	1897.978000706924	1
0	9881	1898.192918695975	2
0	9883	1898.294024323087	3
0	9884	1898.358156665538	2
0	9889	1898.499795561262	1
0	9896	1899.326878394615	0
0	9902	1899.53984539193	1
0	9904	1900.52661802213	0
0	9927	1902.095253240571	1
0	9929	1902.122667577313	2
0	9930	1902.296099515433	1
0	9936	1902.907878286182	0
0	9947	1903.06668427297	1
0	9952	1904.876205044095	0
0	9958	1904.895960227402	1
0	9960	1906.770169673195	0
0	9973	1907.73098515373	1
0	9974	1908.166785102372	0
0	9987	1909.512374514308	1
0	9989	1910.111257255721	0
0	9998	1910.454820889814	1
0	10000	1911.244583490858	2
0	10002	1911.772534976733	3
0	10004	1913.082606976647	4
0	10008	1913.46826477951	5
0	10010	1916.109127595118	6
0	10012	1916.476512152732	7
0	10015	1917.947318448107	6
0	10024	1919.866176998521	5
0	10029	1920.698836290183	4
0	10035	1921.867816212062	3
0	10043	1924.225367572704	2
0	10047	1925.766814730625	3
0	10049	1926.302692980145	4
0	10052	1927.217410931748	3
0	10056	1927.508238926453	4
0	10058	1927.573475289223	5
0	10063	1929.167230346511	4
0	10070	1931.150316017237	3
0	10075	1931.576349197993	2
0	10080	1932.215682596516	1
0	10085	1932.753228681854	0
0	10104	1935.286462649043	1
0	10108	1936.96944174124	2
0	10110	1937.528438478895	3
0	10113	1938.506767339335	2
0	10118	1939.022041468851	1
0	10123	1939.108797665074	0
0	10143	1942.468831577091	1
0	10145	1942.531407110047	2
0	10150	1942.998401133777	1
0	10157	1943.567010724714	2
0	10158	1943.851851483233	1
0	10163	1943.867476621623	0
0	10171	1944.257549469776	1
0	10172	1944.298057255037	0
0	10219	1949.590590082454	1
0	10222	1951.118161781659	0
0	10228	1952.997637738397	1
0	10230	1953.954147906828	0
0	10249	1955.014462031155	1
0	10251	1956.307369286056	2
0	10258	1966.738863803218	1
0	10263	1966.836778623723	0
0	10272	1968.695623943917	1
0	10274	1971.552519100763	2
0	10276	1972.274474101409	3
0	10280	1972.802085177396	4
0	10281	1972.856438654638	3
0	10285	1973.306817373049	4
0	10287	1973.851755438639	5
0	10291	1975.126463049105	4
0	10297	1975.793800934608	5
0	10301	1976.188973277308	4
0	10306	1976.251538689958	3
0	10314	1977.08346124678	4
0	10317	1977.303988910445	5
0	10318	1977.55736171084	4
0	10325	1978.54951270929	3
0	10330	1978.849538723003	2
0	10336	1979.259682664154	3
0	10337	1979.96997171744	2
0	10344	1982.10765851993	1
0	10349	1982.55779273963	0
0	10353	1982.741220895823	1
0	10355	1983.437417466881	2
0	10358	1984.993262250163	1
0	10363	1985.803115244949	0
0	10397	1989.504303526759	1
0	10399	1991.500056802958	2
0	10401	1991.621821872066	3
0	10402	1991.98876355614	2
0	10407	1992.384952038818	1
0	10415	1993.579429265589	2
0	10416	1994.599008973706	1
0	10422	1995.003167512008	2
0	10423	1996.237326732004	1
0	10428	1996.30414263357	0
0	10448	1999.66528599561	1
0	10452	2002.822390085452	2
0	10454	2003.886009632763	3
0	10456	2005.588066695571	4
0	10458	2005.829858924066	5
0	10460	2005.862456893328	6
0	10464	2007.088238321684	5
0	10470	2009.199680546194	6
0	10472	2009.825135413469	5
0	10477	2010.656622313534	4
0	10482	2011.482680740193	3
0	10487	2011.875776857508	2
0	10495	2014.136140268386	3
0	10496	2014.268481960356	2
0	10501	2014.476892922597	1
0	10506	2014.742605637128	0
0	10510	2015.321277738296	1
0	10513	2015.69973374731	0
0	10545	2019.285379263063	1
0	10548	2019.688191827082	0
0	10552	2019.691732783234	1
0	10560	2021.33347141233	2
0	10562	2021.377703090281	1
0	10567	2022.298799328402	0
0	10584	2024.996866837411	1
0	10585	2025.051124833133	0
0	10591	2026.275158538065	1
0	10592	2026.806372085464	0
0	10598	2028.457406646251	1
0	10600	2029.182996733263	2
0	10602	2029.944541495966	3
0	10604	2029.983724795778	2
0	10612	2032.797605760219	3
0	10616	2034.493292202182	4
0	10618	2034.70118331402	5
0	10619	2034.936437937358	4
0	10624	2035.127686808362	3
0	10630	2035.847855174535	4
0	10631	2036.855678114694	3
0	10635	2037.464108684858	4
0	10637	2037.58165973037	5
0	10639	2038.469153383912	6
0	10641	2040.005213503934	7
0	10644	2041.485213943477	6
0	10650	2041.595603230266	7
0	10653	2042.256278516691	6
0	10657	2043.013708551504	7
0	10661	2043.554816161756	8
0	10665	2044.1192402593	9
0	10666	2044.800418327156	8
0	10671	2045.519153488832	7
0	10676	2046.063599869846	6
0	10683	2048.020235502036	5
0	10688	2048.775488075938	4
0	10695	2049.951221473115	5
0	10696	2049.956756951142	4
0	10701	2050.165684814449	3
0	10706	2050.249383233251	2
0	10713	2051.617630282333	1
0	10717	2051.703051684125	2
0	10719	2051.868637082462	3
0	10725	2055.750298149597	2
0	10731	2056.465637416911	1
0	10736	2056.892050449385	0
0	10747	2057.89689003323	1
0	10748	2057.90604109694	0
0	10773	2060.717704234421	1
0	10776	2061.774512039363	0
0	10798	2063.566102911768	1
0	10800	2064.221127735055	0
0	10819	2066.080025910225	1
0	10822	2068.044627580706	2
0	10823	2068.258519340321	1
0	10828	2068.368350594924	0
0	10839	2068.791034931028	1
0	10841	2070.58429303284	0
0	10868	2073.74848450636	1
0	10870	2074.048582855699	2
0	10871	2074.486767020862	1
0	10877	2074.568047746483	2
0	10878	2076.191736688012	1
0	10884	2076.668975268944	0
0	10903	2079.296270081826	1
0	10905	2079.67415785547	2
0	10908	2080.058895130661	3
0	10909	2080.467665753318	2
0	10916	2080.770648214597	1
0	10922	2081.31004455974	0
0	10942	2083.206792832469	1
0	10948	2084.331026724318	2
0	10950	2084.424670737932	3
0	10952	2085.010055277515	4
0	10953	2085.110230479592	3
0	10959	2085.248357039326	4
0	10962	2086.40152845796	3
0	10968	2087.230082890407	2
0	10977	2089.656559004133	1
0	10982	2089.813481108217	0
0	10988	2090.529894473893	1
0	10989	2090.862290635979	0
0	10993	2091.411181724469	1
0	10995	2091.874124457672	2
0	10998	2093.733980876165	1
0	11006	2094.757268740851	0
0	11017	2095.330974487147	1
0	11019	2096.507207813211	0
0	11050	2100.514297385097	1
0	11051	2100.953087181898	0
0	11071	2101.912631162785	1
0	11074	2102.768868755367	0
0	11081	2103.551445348908	1
0	11084	2105.535761609911	0
0	11094	2107.319888272285	1
0	11098	2109.181635008728	2
0	11101	2109.768831718261	3
0	11103	2110.706251677065	4
0	11104	2111.796263593855	3
0	11109	2112.164630456233	2
0	11114	2112.427890175687	1
0	11121	2112.515481027437	2
0	11122	2112.630996516182	1
0	11127	2113.270736719759	0
0	11131	2113.791289939398	1
0	11137	2114.677196130843	2
0	11139	2114.724676370055	3
0	11142	2116.755860204098	4
0	11146	2118.355519273576	5
0	11147	2118.982664022153	4
0	11151	2119.145312002944	5
0	11157	2121.881881510534	4
0	11161	2122.199421860565	5
0	11164	2123.415292908918	4
0	11168	2123.655574553651	5
0	11170	2123.659723218967	6
0	11178	2125.447062235365	7
0	11180	2125.743213966472	6
0	11185	2125.971438800068	5
0	11189	2127.564031671996	6
0	11191	2128.013328308558	7
0	11195	2128.865612335711	8
0	11196	2129.936175879173	7
0	11200	2130.819406378088	8
0	11202	2131.286006763638	9
0	11207	2131.893697391394	8
0	11213	2132.324517465399	9
0	11217	2134.513929802744	8
0	11224	2135.192843487012	7
0	11229	2135.356701118667	6
0	11235	2135.557508246019	7
0	11243	2138.957672329701	6
0	11250	2141.06620867201	5
0	11255	2141.135664035552	4
0	11260	2141.229046117812	3
0	11264	2144.297196786059	4
0	11270	2145.058331490903	5
0	11274	2145.872381583955	6
0	11276	2146.08041810334	7
0	11277	2146.105896627625	6
0	11282	2147.319402719642	5
0	11287	2148.280328952376	4
0	11295	2149.784531450754	3
0	11302	2150.370407138891	4
0	11303	2150.467269055884	3
0	11309	2150.583644393395	4
0	11313	2150.953583571633	5
0	11316	2151.107430004947	4
0	11321	2151.317938380493	3
0	11326	2151.984640726988	2
0	11336	2154.552822367795	3
0	11337	2154.59861820358	2
0	11341	2155.737006744951	3
0	11345	2157.184309395266	4
0	11346	2157.236160986275	3
0	11350	2158.696152522247	4
0	11352	2159.002730538047	5
0	11356	2160.14427016807	4
0	11361	2160.25897261135	3
0	11367	2162.107407497781	4
0	11371	2164.188509440097	3
0	11377	2165.693439094293	4
0	11379	2168.446723574644	5
0	11380	2169.304724878381	4
0	11386	2170.308166507479	3
0	11396	2172.012530191387	2
0	11402	2172.153626731197	3
0	11406	2172.633926396525	2
0	11411	2172.699139549565	1
0	11416	2172.853998244497	0
0	11429	2173.703530581391	1
0	11430	2174.138745450186	0
0	11441	2175.593623794572	1
0	11445	2176.154595286879	2
0	11446	2176.304836722889	1
0	11457	2177.80930005578	0
0	11465	2180.255585102134	1
0	11467	2180.664636622036	2
0	11468	2181.121314496674	1
0	11474	2182.320214379676	2
0	11475	2182.495143546743	1
0	11479	2182.518968774647	2
0	11483	2183.120590406371	1
0	11489	2183.682149721586	2
0	11491	2186.272259241286	1
0	11498	2186.749341908279	2
0	11499	2186.892567812266	1
0	11504	2187.28814136823	0
0	11517	2189.131065741975	1
0	11522	2189.79525221122	0
0	11539	2190.584755063604	1
0	11542	2191.103247435783	2
0	11544	2192.898526257482	3
0	11545	2193.287194943889	2
0	11552	2194.098519242761	1
0	11557	2195.542478771193	0
0	11561	2195.56370403431	1
0	11563	2195.63428336976	2
0	11565	2195.844283025965	3
0	11569	2197.09409517316	2
0	11574	2198.121541414162	1
0	11578	2199.922709755634	2
0	11582	2200.993058062026	1
0	11591	2202.971053988274	2
0	11592	2203.811146989456	1
0	11597	2204.174819595771	0
0	11624	2210.029040556558	1
0	11626	2210.166060984148	2
0	11631	2211.919937193119	1
0	11636	2212.158069666087	0
0	11649	2212.87292954196	1
0	11650	2213.062668183471	0
0	11662	2215.011959689709	1
0	11663	2215.163953253051	0
0	11669	2215.532546009752	1
0	11671	2216.15493770917	2
0	11677	2219.019936257531	1
0	11684	2219.957498637725	0
0	11697	2221.359428952472	1
0	11700	2221.4506712994	2
0	11702	2221.599894555562	3
0	11704	2222.338633045351	4
0	11707	2223.065328608715	5
0	11708	2223.715252500064	4
0	11713	2223.962373200121	3
0	11718	2224.168276394184	2
0	11727	2225.554252148536	1
0	11733	2227.052160651898	2
0	11735	2228.249354093776	3
0	11738	2229.264245158556	2
0	11742	2229.447126741681	3
0	11745	2230.038628478244	2
0	11750	2230.633655131599	1
0	11755	2231.393168583322	0
0	11761	2232.320917543204	1
0	11763	2234.279882170963	2
0	11765	2234.571076092544	3
0	11766	2234.925406133983	2
0	11770	2235.102461353515	3
0	11772	2235.899169157371	4
0	11774	2237.989095109989	5
0	11779	2239.212980665141	4
0	11784	2239.652735617888	3
0	11791	2242.512598310618	2
0	11797	2245.227149924059	1
0	11802	2245.603446339993	0
0	11835	2249.646417842408	1
0	11837	2249.674677148943	2
0	11840	2250.554482870337	1
0	11846	2251.291164738282	0
0	11860	2251.96775406855	1
0	11863	2252.198562261031	2
0	11865	2252.203943301532	3
0	11866	2253.170844045179	2
0	11871	2253.895616762419	1
0	11877	2254.68757003095	2
0	11878	2255.068013093026	1
0	11883	2255.128540526694	0
0	11887	2255.197512722745	1
0	11889	2255.458165523472	2
0	11893	2256.334321553149	3
0	11895	2258.311204229571	4
0	11897	2258.417546817253	5
0	11899	2258.935787654519	6
0	11904	2260.636706950914	7
0	11905	2261.372089745116	6
0	11910	2261.410229379193	5
0	11915	2264.126438792083	4
0	11922	2264.523361629716	5
0	11923	2264.688111048165	4
0	11928	2265.217010746812	3
0	11934	2265.832804120548	2
0	11939	2265.863915402363	1
0	11946	2267.221591620047	2
0	11948	2268.249937269686	3
0	11951	2268.659234857134	2
0	11956	2268.721479870544	1
0	11961	2269.761198918048	0
0	11990	2271.923370994463	1
0	11992	2272.088741386301	0
0	11999	2273.15520040649	1
0	12001	2273.677442751403	0
0	12014	2275.020276679744	1
0	12016	2275.113528707233	2
0	12021	2275.562546663217	3
0	12022	2275.583381377263	2
0	12028	2275.911332217848	1
0	12033	2276.050155942109	0
0	12047	2276.84575071705	1
0	12049	2277.824115356505	0
0	12055	2278.376925869362	1
0	12056	2278.44161406465	0
0	12078	2280.45298268033	1
0	12079	2280.872680205626	0
0	12091	2281.946903819971	1
0	12092	2281.949721174915	0
0	12103	2283.959059623979	1
0	12104	2283.9794257733	0
0	12136	2290.417832848811	1
0	12147	2297.431435296742	0
0	12167	2302.236301937514	1
0	12169	2302.750897327496	2
0	12172	2303.78554323552	1
0	12180	2305.018777692639	0
0	12187	2305.649709253983	1
0	12193	2306.80127300439	0
0	12199	2307.102637491659	1
0	12200	2307.714984396925	0
0	12206	2307.800744881763	1
0	12208	2307.806808883673	2
0	12211	2308.826233659468	3
0	12213	2308.856511908658	4
0	12214	2309.105285398975	3
0	12219	2309.195254743289	2
0	12223	2309.326136369074	3
0	12227	2309.839993395655	4
0	12230	2310.347346200678	5
0	12231	2310.552613896703	4
0	12238	2313.035615251565	3
0	12243	2313.621044013191	2
0	12247	2313.979672538178	3
0	12250	2314.175750487467	2
0	12257	2317.045911773633	1
0	12263	2317.538392101491	2
0	12268	2318.808975293142	1
0	12273	2318.956676914067	0
0	12277	2319.077952076215	1
0	12279	2319.719571047507	2
0	12282	2320.327726819577	1
0	12288	2322.993661400302	2
0	12289	2323.395667539922	1
0	12293	2323.409604292606	2
0	12295	2323.657317626848	3
0	12298	2324.452622446327	2
0	12306	2327.82599577299	3
0	12308	2328.267155783739	2
0	12314	2328.946979575415	3
0	12315	2329.046927825637	2
0	12321	2329.566048531326	3
0	12326	2330.836835313056	2
0	12331	2331.21073836746	1
0	12338	2332.710244459106	0
0	12344	2332.833152924846	1
0	12346	2333.148281114756	0
0	12377	2339.148072753579	1
0	12379	2341.588454265884	0
0	12385	2341.736565731324	1
0	12387	2342.008016153347	2
0	12388	2342.334431129217	1
0	12393	2343.287898918219	0
0	12404	2343.840766791312	1
0	12408	2344.590475017863	0
0	12436	2348.676186584498	1
0	12438	2349.015122680893	2
0	12439	2350.603886735666	1
0	12447	2351.26795572763	2
0	12449	2351.46865729276	3
0	12450	2352.020779198007	2
0	12458	2354.102495590514	1
0	12463	2354.300751577738	0
0	12487	2355.597692645953	1
0	12489	2356.15815289614	2
0	12491	2356.968964239315	3
0	12492	2356.975033776351	2
0	12499	2358.303877838723	1
0	12505	2358.404059173169	2
0	12507	2359.108678789933	1
0	12513	2360.061135620345	0
0	12527	2363.068218403208	1
0	12528	2363.16980951038	0
0	12553	2365.188989779851	1
0	12554	2366.675267611411	0
0	12567	2368.167114436438	1
0	12570	2368.990425628004	2
0	12571	2369.252143566259	1
0	12576	2369.556216776474	0
0	12582	2369.586095562015	1
0	12583	2369.630873481869	0
0	12590	2370.986987278588	1
0	12591	2371.142474196245	0
0	12602	2373.444480457382	1
0	12604	2374.139966440385	0
0	12626	2375.801072213507	1
0	12628	2376.438988111246	2
0	12633	2376.97411122201	3
0	12634	2376.984818221215	2
0	12642	2378.194071833545	1
0	12647	2378.412078866152	0
0	12696	2383.13274721738	1
0	12702	2386.458969290515	2
0	12705	2386.808585959169	3
0	12707	2387.323556913248	4
0	12710	2387.559575378334	3
0	12715	2389.388617438831	2
0	12721	2389.731693001253	1
0	12728	2390.911628217757	0
0	12743	2392.06215492819	1
0	12749	2393.12189939865	2
0	12755	2394.553561941773	1
0	12762	2394.970391651851	0
0	12769	2395.559208255764	1
0	12770	2396.991331177259	0
0	12787	2399.398647565412	1
0	12789	2399.440216569385	2
0	12792	2399.797199210826	1
0	12797	2399.884616278427	0
0	12805	2400.452155304932	1
0	12807	2401.052372467848	0
0	12817	2403.123754596983	1
0	12818	2403.175106556264	0
0	12833	2405.633435918747	1
0	12835	2406.314095645176	2
0	12839	2406.661681468198	3
0	12842	2408.344321038671	2
0	12848	2408.55169680659	3
0	12849	2408.694275646219	2
0	12855	2409.330227250536	3
0	12858	2412.052684186814	2
0	12862	2412.387016114514	3
0	12864	2413.044520082104	4
0	12866	2414.040358312786	5
0	12868	2416.221135114261	6
0	12871	2417.383735127265	5
0	12875	2417.41823529088	6
0	12877	2417.858018131847	7
0	12882	2419.780000549893	6
0	12890	2421.428959481174	7
0	12891	2421.939668189968	6
0	12896	2422.009247505506	5
0	12901	2422.048962834871	4
0	12909	2422.773820394523	5
0	12910	2423.754503473004	4
0	12915	2424.155658656889	3
0	12919	2424.391072055224	4
0	12921	2424.493808464219	5
0	12923	2427.079330713153	6
0	12926	2427.596927598459	5
0	12936	2430.920249379238	4
0	12941	2431.052569456276	3
0	12950	2433.479595147553	2
0	12956	2433.698604021813	3
0	12958	2434.341807520855	2
0	12964	2434.379664960329	3
0	12965	2434.673356787687	2
0	12971	2435.345184052558	3
0	12972	2435.417268611284	2
0	12978	2435.739746852769	3
0	12979	2436.183022907634	2
0	12985	2437.355305057152	1
0	12990	2437.485380306316	0
0	12996	2440.68703655113	1
0	12997	2440.878138591261	0
0	13025	2444.718300887344	1
0	13028	2445.276257809516	0
0	13034	2446.305113433262	1
0	13036	2446.83190691079	2
0	13037	2446.948295707622	1
0	13042	2446.982184708266	0
0	13053	2448.25161613987	1
0	13056	2449.279294827639	0
0	13065	2450.709583007376	1
0	13067	2453.545624194461	2
0	13074	2457.467423979671	3
0	13079	2458.250548480677	4
0	13081	2458.902136493963	5
0	13084	2460.007500366409	6
0	13089	2460.80200648842	5
0	13094	2460.802073134032	4
0	13101	2461.042177251287	3
0	13105	2461.134816393602	4
0	13108	2461.87367478795	3
0	13112	2462.833084809437	4
0	13115	2463.270487179627	3
0	13120	2463.555266820812	2
0	13125	2463.97271896217	1
0	13130	2464.732101638356	0
0	13154	2471.383174424425	1
0	13156	2472.219734481304	0
0	13168	2473.342262835796	1
0	13169	2474.074959324558	0
0	13177	2474.312120226521	1
0	13178	2475.643470416072	0
0	13204	2478.007224901111	1
0	13207	2481.249427550336	0
0	13218	2487.252257422949	1
0	13223	2487.838004160086	2
0	13225	2488.571881775405	1
0	13231	2489.095425918354	0
0	13243	2489.324847217405	1
0	13245	2489.891426716322	2
0	13246	2489.983152085181	1
0	13251	2489.992021258926	0
0	13279	2497.00435323382	1
0	13283	2497.31606840147	2
0	13285	2497.380202616477	3
0	13290	2498.797298766299	4
0	13293	2499.08596773973	3
0	13299	2499.108324403358	4
0	13300	2499.230851450707	3
0	13306	2499.729763682587	4
0	13308	2499.977786070975	3
0	13315	2501.261156805791	2
0	13320	2501.437296670186	1
0	13325	2501.469304739419	0
0	13336	2501.621415400355	1
0	13337	2501.976904209674	0
0	13341	2502.806084082222	1
0	13345	2504.216134742185	2
0	13347	2504.996704156722	1
0	13353	2507.258763681784	2
0	13354	2507.544090533124	1
0	13361	2508.727388893638	2
0	13362	2508.909236853301	1
0	13367	2508.982768061675	0
0	13385	2510.935948854093	1
0	13391	2512.382937414417	2
0	13392	2513.41200383136	1
0	13398	2513.855440507931	2
0	13400	2514.535108423498	1
0	13407	2514.920288313923	2
0	13408	2515.482623487676	1
0	13416	2516.397486193845	0
0	13430	2519.214987041345	1
0	13432	2519.473595568895	2
0	13433	2520.825281425923	1
0	13438	2521.258089283665	0
0	13444	2521.56425276776	1
0	13447	2521.699671355586	0
0	13459	2522.278455290348	1
0	13461	2523.730219656544	0
0	13480	2525.202896842154	1
0	13482	2525.885549696251	2
0	13484	2526.340134476392	3
0	13489	2527.78380009703	4
0	13491	2528.378496104613	5
0	13493	2528.610817482246	6
0	13495	2528.690858113186	5
0	13501	2529.180735659387	6
0	13502	2529.889387392601	5
0	13508	2530.519145904646	4
0	13515	2531.1900715573	5
0	13518	2531.580311073976	6
0	13520	2532.156852081886	5
0	13525	2532.373735824462	4
0	13534	2533.040111453466	5
0	13535	2534.470742107487	4
0	13540	2534.687415423373	3
0	13547	2534.894538998793	4
0	13548	2534.92671737196	3
0	13553	2535.32776977917	2
0	13557	2535.661932509983	3
0	13559	2535.694907587869	4
0	13565	2538.076239478287	5
0	13567	2538.220721991816	6
0	13568	2540.015874535114	5
0	13572	2540.398677519929	6
0	13577	2542.979436930869	5
0	13583	2543.410835160926	6
0	13585	2543.415338714494	7
0	13586	2543.711401737907	6
0	13591	2545.18384665548	5
0	13598	2548.907022104231	4
0	13602	2549.135916869841	5
0	13607	2549.735969180427	4
0	13613	2550.382456556882	3
0	13618	2551.561205534105	2
0	13622	2551.933793491578	3
0	13626	2554.945171780497	4
0	13632	2555.829037458438	5
0	13634	2556.239993449897	6
0	13636	2556.293890930025	7
0	13637	2556.343896924602	6
0	13646	2557.738455617364	7
0	13647	2558.921549504159	6
0	13652	2558.992879024414	5
0	13657	2559.763884550987	4
0	13662	2559.868958313731	3
0	13667	2561.36561430858	2
0	13673	2563.418398008845	1
0	13678	2564.20568068582	0
0	13684	2565.007568159968	1
0	13686	2565.529090731823	2
0	13688	2565.963173383009	3
0	13691	2567.565217087425	2
0	13695	2567.914198889188	3
0	13698	2570.087812909887	2
0	13706	2570.58745300492	3
0	13708	2571.018934761696	2
0	13715	2571.235043008158	3
0	13720	2573.552093134268	4
0	13723	2574.039432040597	3
0	13728	2574.124612053171	2
0	13733	2575.857656884012	1
0	13739	2577.761336596769	0
0	13804	2583.615895250336	1
0	13806	2583.881627939452	2
0	13809	2583.974113849048	3
0	13810	2583.99960072782	2
0	13815	2584.874239405388	1
0	13820	2585.097101915731	0
0	13831	2585.469825520337	1
0	13833	2585.874640158709	2
0	13834	2586.214805593526	1
0	13838	2586.511009678375	2
0	13840	2586.722095802524	3
0	13842	2586.8817547644	4
0	13844	2587.869037182121	5
0	13847	2588.206842065637	4
0	13858	2592.113659068276	3
0	13864	2593.032789954042	2
0	13869	2593.719530368418	1
0	13875	2595.124209656915	2
0	13876	2595.134129152236	1
0	13881	2595.331426898609	0
0	13904	2599.021748231048	1
0	13906	2599.294216156538	2
0	13907	2600.476272554757	1
0	13912	2600.961622532962	0
0	13930	2603.497077019997	1
0	13934	2604.743416639681	0
0	13940	2605.891901193532	1
0	13943	2606.405892434966	0
0	13950	2607.303810578932	1
0	13952	2607.531662017832	2
0	13956	2608.336060855689	3
0	13957	2608.353991848084	2
0	13962	2609.252866320115	1
0	13970	2610.332539721489	2
0	13971	2611.204652885693	1
0	13978	2612.01267013866	0
0	14002	2614.650738457946	1
0	14006	2615.720111293459	0
0	14025	2617.454645108993	1
0	14029	2618.256802329471	0
0	14051	2622.200787909713	1
0	14052	2622.62006091953	0
0	14070	2626.592039208195	1
0	14073	2626.885134285711	2
0	14075	2627.008088083113	1
0	14084	2628.071098644842	2
0	14085	2628.230831096036	1
0	14091	2628.715152389795	2
0	14092	2628.750575896529	1
0	14100	2630.333669596021	0
0	14108	2631.993959391584	1
0	14110	2632.338508850171	2
0	14113	2632.83211252758	1
0	14118	2634.705289896297	0
0	14122	2636.098306317953	1
0	14125	2636.430971540166	0
0	14159	2644.135854082811	1
0	14161	2644.220850717722	2
0	14162	2644.345360547623	1
0	14167	2644.533139758464	0
0	14174	2645.015663390559	1
0	14176	2645.615613573379	2
0	14178	2645.855938842673	3
0	14182	2646.928677902587	4
0	14186	2647.224938141963	5
0	14189	2648.669071546703	4
0	14194	2648.790269020671	3
0	14200	2649.102328986113	2
0	14205	2649.476678081403	1
0	14210	2650.095941849363	0
0	14247	2654.543653932502	1
0	14249	2654.963580157397	2
0	14251	2655.81248292087	3
0	14255	2657.08278886238	4
0	14261	2659.820133004832	5
0	14264	2661.597821529461	4
0	14271	2662.627911135109	5
0	14274	2663.507111051153	4
0	14280	2663.538863178262	5
0	14281	2663.572159446184	4
0	14287	2663.777776754435	3
0	14295	2664.451291279336	4
0	14300	2667.233709790106	5
0	14302	2667.252173102352	6
0	14304	2668.594154450002	7
0	14305	2669.230873487994	6
0	14315	2670.290247636312	5
0	14320	2670.320781648138	4
0	14327	2670.687675373057	3
0	14332	2670.796491517368	2
0	14337	2670.994598025084	1
0	14343	2671.889312334354	2
0	14346	2673.458425619777	1
0	14351	2676.271313115314	0
0	14359	2679.274502352052	1
0	14361	2679.391020962192	2
0	14365	2679.764625554007	3
0	14369	2679.997389808933	4
0	14371	2680.318443374975	5
0	14374	2680.537831234596	6
0	14376	2681.95403056163	7
0	14381	2682.796098012584	6
0	14386	2682.881479973749	5
0	14392	2682.898335722352	6
0	14393	2683.423090216076	5
0	14398	2683.488435531551	4
0	14405	2684.333840145044	3
0	14412	2685.368740570171	2
0	14418	2687.109708875578	3
0	14420	2687.447641231779	4
0	14421	2687.774414624452	3
0	14425	2688.09923960833	4
0	14429	2688.401164692835	5
0	14434	2689.239685298274	6
0	14435	2689.422739618143	5
0	14441	2689.744102717772	4
0	14447	2691.437271786312	5
0	14448	2691.632073280835	4
0	14454	2692.000920590412	5
0	14456	2692.719063692566	6
0	14457	2692.816696127289	5
0	14463	2695.397089657395	4
0	14473	2697.077129121757	3
0	14480	2698.031635898396	4
0	14481	2698.154576728711	3
0	14487	2698.206187689347	4
0	14491	2698.943615971277	5
0	14492	2698.987932877998	4
0	14498	2699.496863971215	5
0	14500	2699.606437006126	6
0	14501	2699.720922221217	5
0	14507	2700.405109744577	4
0	14513	2701.348523096223	3
0	14519	2701.450509586905	2
0	14525	2701.527450225546	1
0	14530	2701.900989822258	0
0	14542	2702.78138042932	1
0	14544	2703.643366224767	0
0	14602	2710.2466402332	1
0	14603	2710.336622988146	0
0	14619	2712.239113967144	1
0	14622	2712.878016642458	0
0	14633	2716.315173428184	1
0	14635	2717.134434297377	2
0	14639	2718.218354331937	3
0	14641	2718.708358140414	2
0	14648	2719.766239742567	3
0	14651	2719.935317078688	2
0	14656	2720.197815795787	1
0	14661	2720.602190935026	0
0	14674	2721.271567384939	1
0	14676	2721.327791083477	0
0	14689	2723.247328634738	1
0	14690	2725.611010542801	0
0	14724	2730.618454246725	1
0	14732	2734.026329956544	2
0	14733	2734.246248841317	1
0	14738	2734.437339401468	0
0	14747	2736.588227816028	1
0	14751	2737.714470820645	2
0	14752	2737.724136246332	1
0	14763	2738.457270695855	0
0	14778	2741.351098718732	1
0	14780	2742.252560580567	2
0	14783	2745.780382488734	1
0	14790	2746.509481260592	0
0	14794	2746.634900955024	1
0	14797	2747.273942844442	0
0	14801	2749.469991241717	1
0	14804	2750.870426133977	0
0	14821	2754.596370380758	1
0	14823	2754.718643434868	0
0	14832	2754.759046624198	1
0	14835	2755.643779302235	0
0	14845	2757.913446967644	1
0	14848	2758.678580066944	2
0	14850	2759.230163558966	1
0	14858	2760.70406621151	0
0	14869	2761.471815856418	1
0	14871	2761.739477121399	0
0	14883	2762.849744793576	1
0	14885	2763.262544134734	0
0	14914	2767.979977008924	1
0	14918	2768.609751846222	2
0	14923	2770.306389943132	3
0	14925	2772.192617388089	4
0	14926	2772.529783343216	3
0	14932	2772.819045414635	2
0	14939	2773.263911793726	1
0	14944	2773.828510750504	0
0	14961	2775.811943803346	1
0	14962	2776.054994604852	0
0	14973	2776.742445742156	1
0	14974	2776.809086269115	0
0	14991	2777.389198855628	1
0	14993	2777.950612682681	2
0	14994	2778.240912704832	1
0	14999	2778.355968641577	0
0	15003	2778.948471051947	1
0	15009	2779.850299234956	0
0	15018	2780.15199605661	1
0	15020	2780.632176702747	2
0	15027	2781.697245261439	1
0	15034	2784.07336099515	0
0	15054	2786.514832341173	1
0	15057	2787.865813001151	0
0	15063	2787.880712129496	1
0	15064	2787.904248571753	0
0	15068	2788.784939754557	1
0	15070	2788.987304261187	2
0	15073	2789.42778281263	1
0	15079	2789.62616775657	0
0	15088	2793.602515072981	1
0	15093	2794.608275062087	0
0	15103	2799.752012737171	1
0	15110	2801.76461634915	2
0	15116	2803.706496481591	1
0	15121	2804.847928214522	0
0	15139	2806.86851082539	1
0	15140	2806.892734702349	0
0	15147	2808.276104259747	1
0	15148	2808.94445422267	0
0	15154	2810.239889627614	1
0	15156	2810.457061592164	2
0	15161	2811.060300055513	1
0	15165	2811.172041395871	2
0	15169	2813.047345991781	3
0	15170	2813.271529624171	2
0	15174	2814.484603546907	3
0	15176	2814.589585672763	4
0	15180	2814.769215666677	5
0	15182	2814.998338451167	6
0	15184	2816.510790333706	7
0	15186	2816.964469049005	8
0	15190	2818.824782956917	9
0	15193	2819.205557843995	8
0	15198	2821.01725248652	7
0	15208	2823.831899976303	6
0	15213	2824.397150831023	5
0	15217	2825.3039771587	6
0	15220	2826.678525211169	5
0	15224	2827.280515256268	6
0	15226	2828.843260176023	7
0	15229	2829.727396969109	6
0	15237	2830.301515661744	7
0	15238	2830.581686658997	6
0	15243	2832.796680632413	5
0	15248	2833.286571917187	4
0	15252	2834.128913007669	5
0	15254	2834.341740443592	6
0	15256	2834.596826752868	7
0	15261	2837.01278508085	6
0	15265	2838.509675704104	7
0	15271	2839.30489483304	8
0	15272	2839.583648065425	7
0	15278	2840.026134796531	8
0	15280	2840.17549174921	9
0	15281	2840.476072504353	8
0	15285	2840.897893882176	9
0	15287	2843.133111402958	10
0	15291	2844.690037374433	11
0	15295	2846.572941671219	10
0	15300	2846.849087042451	9
0	15305	2847.985179942673	8
0	15311	2849.062481442227	9
0	15317	2850.188812767856	10
0	15318	2850.545693258919	9
0	15325	2852.520249484028	8
0	15329	2853.434876142689	9
0	15331	2854.098843302033	10
0	15334	2854.667872673549	9
0	15339	2856.192755919943	8
0	15346	2859.959856551719	7
0	15350	2859.965191240997	8
0	15355	2862.743908054408	7
0	15361	2864.085963446083	6
0	15366	2864.225317742186	5
0	15370	2864.543735331234	6
0	15372	2865.091311464248	7
0	15376	2865.68827110614	8
0	15380	2866.155647701195	7
0	15386	2866.926382521247	8
0	15389	2867.344995122914	7
0	15393	2867.739928898666	8
0	15398	2868.606141174188	7
0	15402	2869.640856872112	8
0	15404	2869.656722202916	9
0	15408	2870.585155947598	10
0	15409	2870.669721281993	9
0	15415	2871.079932549319	10
0	15416	2871.596841590224	9
0	15422	2873.768978818063	10
0	15425	2874.479342330926	9
0	15431	2874.661404884809	10
0	15432	2874.839581197945	9
0	15439	2875.849366754369	8
0	15445	2876.592606294254	9
0	15447	2877.3700655385	10
0	15448	2878.344885830359	9
0	15453	2880.815875479102	8
0	15461	2883.276932728282	9
0	15462	2883.367544812796	8
0	15466	2883.40670263064	9
0	15468	2884.097977457373	10
0	15470	2884.262133206845	11
0	15473	2885.704401758742	10
0	15477	2887.123858069884	11
0	15481	2887.877892483219	12
0	15482	2889.271965029385	11
0	15487	2890.055937810209	10
0	15491	2890.221393889602	11
0	15496	2891.400456585154	10
0	15501	2893.305107701725	9
0	15505	2893.831497234245	10
0	15510	2894.240978757421	9
0	15514	2895.490728540565	10
0	15518	2895.939246966578	11
0	15520	2896.015667200449	12
0	15525	2896.807117558357	11
0	15529	2897.390323733501	12
0	15534	2898.531789184834	11
0	15544	2901.172672215404	12
0	15545	2901.415142844579	11
0	15552	2901.728506527055	12
0	15555	2902.759514151495	11
0	15561	2903.211947901229	12
0	15563	2903.736699438155	13
0	15564	2904.951773711138	12
0	15569	2906.695285319938	11
0	15576	2908.356487448498	10
0	15584	2908.756739999266	11
0	15585	2909.550991194917	10
0	15591	2909.749153992841	11
0	15592	2910.420419618302	10
0	15598	2912.874020663549	9
0	15604	2913.116735065961	10
0	15605	2913.327534585031	9
0	15610	2913.835282289971	8
0	15614	2915.229778261186	9
0	15619	2920.078588377253	8
0	15624	2920.700263795774	7
0	15629	2921.301797245026	6
0	15635	2922.203998152584	5
0	15641	2924.060419408783	4
0	15648	2924.471759342543	3
[...]
5	150682	27659.559144795331	5704.0804275488
5	150693	27661.244718910197	5702.1523600788
5	150700	27661.908706838998	5701.978763412
5	150715	27663.526864926715	5702.8656377907
5	150754	27668.562570310092	5707.8890469467
5	150797	27676.507540600656	5714.2400355326
5	150869	27684.494125842244	5721.5854302375
5	150874	27684.682876209048	5719.0903219833
5	150882	27687.418636579905	5720.0875003372
5	150907	27693.385795452274	5725.3598332635
5	150975	27701.33829433097	5733.2052022473
5	150987	27702.686166078065	5733.9308767277
5	150997	27702.821135800927	5732.908407346
5	151007	27704.066588468303	5730.8313660123
5	151080	27716.917305633405	5743.2658090166
5	151094	27719.103367986191	5744.4324094603
5	151100	27719.856833328279	5736.6849609767
5	151109	27721.27909533851	5738.072641922
5	151153	27727.749943860701	5743.6805065511
5	151160	27729.723991689163	5721.7878665192
5	151165	27729.746531404194	5721.5754372694
5	151173	27733.450427147807	5723.6301334369
5	151187	27734.96000453859	5721.7750347943
5	151283	27755.282997290816	5725.8481057403
5	151300	27757.091416399825	5726.1622253311
5	151307	27757.291941254366	5722.4449719085
5	151313	27757.54717588295	5721.7610716167
5	151321	27759.508473053089	5719.4154456595
5	151332	27760.516857238291	5709.2896348938
5	151340	27763.913495990019	5710.8514030258
5	151350	27764.570873263411	5707.2896773156
5	151355	27765.533474412093	5697.8263122134
5	151366	27769.443410135578	5698.1513888839
5	151451	27781.377090639462	5709.6529017133
5	151475	27783.334462701213	5708.0553897743
5	151486	27786.498468555903	5708.6130067014
5	151508	27788.303761097027	5691.5836350976
5	151524	27790.232686046317	5689.351999552
5	151538	27791.875361406074	5689.8730772225
5	151555	27792.943496991774	5687.931073627
5	151565	27793.423690481289	5687.1706507462
5	151571	27794.132624977361	5671.6587590267
5	151577	27795.050684606642	5670.4519381349
5	151587	27797.386331583464	5669.8643827007
5	151598	27799.40954878342	5668.3166112958
5	151606	27801.024978291411	5665.8323382716
5	151627	27804.442522626277	5664.883821199
5	151649	27808.920600977052	5667.5171326944
5	151654	27809.050325600042	5667.6465899397
5	151659	27809.468568850818	5665.2507390221
5	151666	27811.170289416656	5665.3499386007
5	151723	27821.370627895933	5674.6642356105
5	151733	27823.466442316951	5669.9856673041
5	151751	27825.392499515519	5671.2043304538
5	151757	27827.561840247351	5672.0500386108
5	151768	27832.070787784364	5674.9663114023
5	151801	27835.822715228686	5678.6262756344
5	151806	27836.104650226494	5677.6089279615
5	151814	27837.17389886368	5678.4042143031
5	151822	27841.003917236871	5676.8689042546
5	151827	27841.25891250792	5672.5449711311
5	151844	27844.691273570745	5675.953063458
5	151871	27846.737047752205	5673.6309467608
5	151884	27847.6727007202	5673.0460308706
5	151918	27853.743758852977	5676.4302380396
5	151933	27859.658952312416	5671.5012662311
5	151957	27863.684075555593	5668.7048672557
5	151962	27863.921869714331	5667.9092371556
5	151967	27864.064121363286	5663.9416227398
5	151974	27866.196129067036	5655.4104434561
5	152002	27870.774540199757	5654.3373027231
5	153118	28091.908182667781	5875.2390348246
5	153128	28092.21176152505	5865.6919979234
5	153137	28093.827081491674	5863.8610059678
5	153175	28096.71587325593	5865.6771613601
5	153180	28096.80871376296	5865.4455050484
5	153185	28096.871074402201	5865.1147970126
5	153197	28100.124621342976	5863.404621749
5	153228	28104.23478171745	5863.9592827993
5	153245	28105.920581068435	5860.0382492673
5	153250	28107.116601200106	5860.8322858685
5	153259	28110.032906238051	5860.5059877719
5	153279	28111.43800797002	5835.2004103259
5	153293	28112.277754472027	5835.7048004883
5	153304	28115.082825086512	5838.167251223
5	153329	28117.038390695086	5831.526302737
5	153340	28117.445694967303	5828.4028179693
5	153345	28119.562574423314	5829.5781033502
5	153350	28120.235234518383	5823.0334957254
5	153368	28124.449733977257	5820.4831002459
5	153436	28136.494664293793	5831.403522741
5	153441	28136.829594494522	5829.4543102125
5	153450	28138.734684572128	5831.0739095752
5	153487	28145.845975409165	5837.4547977125
5	153495	28146.44412823817	5836.027514611
5	153588	28161.581282238718	5849.2027643171
5	153594	28162.419645225309	5849.3366507714
5	153599	28164.220753369606	5850.4617882211
5	153604	28165.641907872844	5848.5055524404
5	153611	28166.410178105481	5847.6588015041
5	153626	28168.098964323785	5845.9048375306
5	153636	28171.934229172897	5848.1332618121
5	153648	28176.951808584658	5845.0953438094
5	153662	28179.781274368406	5844.8478397964
5	153899	28237.240660560013	5900.3620503794
5	153906	28238.760774105103	5900.3421805333
5	153911	28238.893053503924	5895.8155880088
5	153917	28241.139876600451	5897.7920675091
5	153927	28242.751944086367	5897.3925367106
5	153934	28245.583837610357	5891.5675914799
5	153950	28247.198221810999	5889.6392712824
5	153959	28248.387663966689	5885.8442914681
5	153973	28254.127969550986	5886.0514303301
5	153989	28260.395404622727	5891.2647895167
5	154040	28266.065320090974	5895.6917026619
5	154090	28272.008547857709	5898.7409149339
5	154096	28274.694538619297	5900.5150463797
5	154101	28274.915766886801	5890.2217665057
5	154106	28275.165875046797	5887.0803693121
5	154111	28275.193700247227	5884.4574381845
5	154117	28277.157966017001	5879.9953791131
5	154130	28283.380661349859	5886.1981497661
5	154135	28283.611791441953	5885.1718100937
5	154144	28284.871734629424	5885.0481685542
5	154158	28288.029140480646	5885.1850087502
5	154166	28289.341144407753	5885.4591474867
5	154180	28294.659389957587	5880.9614334275
5	154188	28296.722184457348	5872.6498717071
5	154197	28298.533106375151	5869.4646044444
5	154209	28298.756858104478	5858.564171606
5	154223	28300.398854024018	5853.3422273983
5	154228	28300.605243607911	5853.2550092001
5	154234	28302.411709518816	5845.0030463108
5	154239	28302.983924119561	5843.0089932653
5	154254	28307.411709267208	5844.1218985679
5	154351	28325.627494023999	5859.2006733236
5	154362	28326.309941868606	5857.4445735599
5	154377	28328.175495065387	5855.3704611912
5	154389	28329.972421068664	5850.2369237252
5	154394	28330.192346113273	5848.0985429714
5	154399	28331.357038736783	5847.2994422113
5	154420	28336.403287605233	5850.2156535801
5	154442	28339.154144958793	5851.5817515468
5	154448	28339.331007356354	5848.6876497276
5	154456	28341.354019733671	5849.9065942079
5	154463	28342.065992357945	5842.512786214
5	154471	28344.633776235401	5844.3184772617
5	154479	28345.856092243103	5845.0395505807
5	154484	28345.985292776343	5841.2019767751
5	154493	28346.95403129809	5840.8057495989
5	154504	28348.510379302018	5841.9830409243
5	154518	28350.399268205879	5842.0956227828
5	154547	28353.094833127681	5837.3912027015
5	154555	28354.722649655185	5838.7272311629
5	154563	28356.206826728317	5837.614650216
5	154584	28359.061834906036	5834.0419181964
5	154594	28359.509899058664	5831.1943116747
5	154599	28359.693432646251	5830.4961979323
5	154607	28360.12189690034	5829.3873851491
5	154617	28361.555845283974	5823.8100697301
5	154628	28365.039331292467	5826.6255959391
5	154638	28365.436548220679	5821.0778286219
5	154653	28368.904449807692	5817.9997737921
5	154695	28378.906374884686	5825.835160358
5	154704	28380.77495999919	5824.8009411677
5	154709	28381.313890498738	5819.1617988122
5	154716	28381.842532658818	5807.8079527647
5	154724	28382.724744117116	5805.8874748296
5	154734	28383.020186754155	5806.178614555
5	154739	28383.128433205889	5806.1315661688
5	154760	28387.612859524203	5804.6070879033
5	154875	28409.529970572098	5823.6744039074
5	154885	28410.440626673136	5824.3311836277
5	154896	28411.187914042009	5821.5446293532
5	154903	28412.30065446011	5818.2048092261
5	154914	28414.191594402337	5817.032401513
5	154943	28416.996681663248	5808.4812748816
5	155116	28448.098478141804	5837.2372285782
5	155143	28452.510307862821	5838.0907722287
5	155148	28452.555042028373	5836.1612247784
5	155155	28454.875582384505	5837.8485897813
5	155888	28625.636545902744	6001.0885390077
5	155896	28626.219177475475	6000.8883533388
5	155911	28628.041095020024	5995.685880913
5	155921	28628.425087909531	5991.4726854723
5	155928	28630.052000348335	5991.2485959589
5	155935	28630.982041218158	5992.0866818865
5	155964	28637.160976699332	5994.6463454065
5	155969	28637.36899426548	5991.4293552241
5	155979	28638.432497688052	5992.1804075891
5	156001	28640.687098148996	5980.801626784
5	156009	28641.758907646829	5980.9979599634
5	156077	28649.477076140296	5985.1865361015
5	156096	28652.513866436578	5986.0339174094
5	156101	28652.590480417864	5984.1532620809
5	156107	28653.076260025062	5972.6259135722
5	156113	28653.763337857223	5968.8369094875
5	156122	28654.562715656387	5968.6296330123
5	156131	28655.293534666781	5969.2605634831
5	156162	28662.17706586598	5976.1207195703
5	156188	28667.606824065322	5971.570543351
5	156210	28668.913174661479	5960.5664468525
5	156220	28670.581464384757	5959.0020276687
5	156255	28676.441383179678	5963.3238097501
5	156352	28689.604965101962	5971.068423151
5	156393	28695.20606417737	5972.6566449237
5	156408	28696.854129997702	5971.2848867858
5	156435	28700.273234375816	5972.3699920582
5	156446	28701.945260203993	5970.9498830296
5	156456	28703.710606706874	5971.264722755
5	156484	28709.680810942651	5966.1006643355
5	156818	28781.312092913142	6032.2862997382
5	156830	28783.399143176097	6029.4663367284
5	156838	28784.851891014042	6029.7132151132
5	156852	28788.091104735908	6029.3110531651
5	156874	28789.641445714355	6030.7131740529
5	156899	28799.154570602257	6035.2701113901
5	157056	28822.464787005926	6052.2869171382
5	157068	28824.258560542493	6052.5295674055
5	157080	28825.749957987813	6052.8027661124
5	157089	28827.512647501809	6054.1815218302
5	157096	28827.685493269454	6052.431381677
5	157103	28827.964269531395	6049.6453220569
5	157109	28828.038119582991	6048.8344451955
5	157117	28828.955499385941	6047.7448688306
5	157130	28830.181820059984	6044.6730089442
5	157151	28832.601338828729	6034.8409117306
5	157174	28834.240552679014	6033.9733602508
5	157190	28835.80388936057	6022.3729885128
5	157195	28837.127067663056	6012.7181247544
5	157202	28838.118613774229	6012.5181647513
5	157221	28842.580168357372	6008.554117212
5	157273	28853.362554975209	6014.0798279793
5	157297	28855.171930220309	6015.2205144224
5	157304	28858.240350577909	6016.9948152781
5	157331	28866.329378382986	6023.8969211631
5	157367	28871.802018358185	6026.9993065731
5	157382	28873.453390361608	6025.6578983351
5	157390	28874.855858124005	6021.4819383561
5	157411	28877.670145697921	6021.7895168181
5	157438	28882.936398577224	6026.325510502
5	157463	28885.305066691193	6025.180373643
5	157503	28893.069086575708	6027.9538303528
5	157517	28895.27090075147	6024.5830338195
5	157522	28896.155218500701	6024.9566248055
5	157535	28900.336312957641	6026.3113376016
5	157564	28903.691400663606	6028.2025865858
5	157569	28903.71995291274	6026.506138512
5	157591	28909.634344583855	6032.2546680588
5	157626	28912.353624791629	6031.3835373356
5	157633	28914.468281704585	6031.1911807888
5	157644	28918.819076660465	6033.389355881
5	157660	28924.567937067946	6038.6612910443
5	157708	28931.444867615694	6028.9310687562
5	157714	28931.645500980227	6028.8942846816
5	157721	28932.794524141328	6028.7824156355
5	157726	28933.032918554012	6028.5481712182
5	157731	28933.271269329256	6026.7052827666
5	157738	28938.652047990744	6024.0038171573
5	157747	28941.054033543185	6017.3605407306
5	157766	28943.547758407017	6018.4453275808
5	157772	28944.414271500104	6019.1503933377
5	157777	28944.506636677625	6016.6446079474
5	157784	28945.252506139066	6006.7593353042
5	157795	28946.961475566383	6007.4131516991
5	157803	28950.043582368411	6010.3264393864
5	157831	28952.57092053701	6006.53735969
5	157836	28952.819847373347	6005.8129205089
5	157853	28957.100045579728	6008.421162357
5	157996	28990.959390607509	6037.7831711017
5	158003	28992.34342052391	6035.0285920176
5	158008	28992.901876884837	6031.4283540296
5	158016	28992.985719343278	6031.4266594923
5	158038	28995.1345924607	6022.7743209286
5	158055	28996.995163231369	6022.9784593437
5	158060	28997.046781192948	6022.4700670376
5	158069	29000.474291864881	6024.2180791262
5	158081	29005.753390115425	6028.1732040157
5	158382	29065.175188058943	6078.5761015738
5	158393	29067.377575654067	6076.6175132079
5	158406	29068.672057404062	6069.580390731
5	158423	29071.321936947471	6068.3598097342
5	158437	29073.46695788105	6062.8031296227
5	158450	29076.781142047565	6057.4781012123
5	158477	29082.214016512153	6062.7573336082
5	158575	29099.214449168606	6067.699411926
5	158585	29101.399874161806	6066.8112140045
5	158611	29105.704200166493	6070.9243395209
5	158670	29116.645067826336	6079.9883246181
5	158675	29117.729466390693	6078.9011772258
5	158682	29120.373935016838	6077.3273916291
5	158710	29126.376009431223	6080.718067517
5	158727	29127.468768924449	6079.1859101134
5	158743	29132.068129311728	6071.0681674968
5	158758	29136.017663276777	6062.2652894264
5	158775	29140.827221152665	6065.4803127737
5	158785	29141.298736298046	6063.2814272052
5	158795	29143.82430142619	6063.7841658465
5	158812	29144.580230477338	6063.0353254397
5	158824	29146.999598489074	6061.2599708281
5	158834	29149.565740968498	6062.1593461769
5	159005	29179.306970389456	6087.6554946112
5	159021	29184.207954143138	6091.6460886526
5	159574	29273.72877017351	6176.9403525894
5	159583	29275.937503868066	6175.3341617809
5	159597	29279.406024609335	6175.9308433584
5	159607	29280.643522097871	6161.5890673141
5	159621	29282.976421380676	6163.8390270237
5	159626	29283.0703679551	6159.4647062137
5	159639	29284.76865153996	6150.7620552344
5	159709	29296.7741185271	6151.0670259792
5	159728	29300.636857938085	6152.6457534683
5	159738	29305.636785962449	6154.8058830198
5	159756	29307.584694698189	6155.4545994006
5	159772	29308.852275167125	6155.6633708285
5	159791	29311.421366716748	6157.8320613504
5	159963	29352.698564787583	6199.1039747955
5	159993	29359.321641900354	6201.534064896
5	160006	29361.912481340086	6200.1237574446
5	160013	29362.445790241173	6200.6193200503
5	160025	29363.057951223913	6178.1785843924
5	160032	29364.229057558823	6174.2336774362
5	160046	29365.558246215956	6174.2547545682
5	160070	29369.643447848324	6175.717392445
5	160075	29369.901480033152	6173.8605371855
5	160088	29373.391223131571	6177.0032577375
5	160112	29377.595845169886	6174.9344195789
5	160126	29379.899443100789	6176.1919583996
5	160162	29384.301898663574	6171.7148301843
5	160170	29384.99908677767	6164.2387673385
5	160185	29386.131291287587	6160.3842375274
5	160197	29387.103341314973	6160.9166281268
5	160204	29387.703970751095	6146.9544635155
5	160209	29387.842708555573	6146.1109017786
5	160218	29390.373133999297	6147.7025961187
5	160239	29392.253798578055	6148.6177856964
5	160268	29397.078093183245	6151.9616262786
5	160290	29401.069852604844	6155.0657828592
5	160476	29441.206874620971	6193.5685108168
5	160484	29443.291437954	6193.5564319624
5	160519	29450.11532518259	6197.9359921451
5	160524	29450.49869853968	6195.8182939781
5	160533	29452.09911009586	6182.006323627
5	160551	29453.549409940842	6179.7305294477
5	160557	29455.288362230974	6176.6596749838
5	160570	29457.009762073296	6169.1858681901
5	160612	29459.565707727157	6166.1706330741
5	160620	29460.382187569279	6165.2148604909
5	160625	29460.978336219154	6165.0426212916
5	160630	29461.249072259019	6164.8061047716
5	160639	29462.657976028972	6155.2387461809
5	160657	29465.185155882167	6151.5089085206
5	160706	29474.952161576701	6159.5859538734
5	160728	29479.630433243737	6158.4668823167
5	160737	29480.584308759421	6158.9980214365
5	160749	29483.123360938562	6160.7694486446
5	160756	29484.224370874919	6161.7616229045
5	160761	29484.746072694416	6160.9515201172
5	160766	29485.973429069887	6145.7326002132
5	160771	29486.761946328644	6143.9665629521
5	160779	29488.572363175518	6123.3246056482
5	160799	29491.727176147327	6119.8954646565
5	160804	29492.107636663562	6119.4365409211
5	160809	29493.661540222026	6116.936768553
5	160815	29496.057386900964	6118.7291253099
5	160823	29497.834651868342	6118.2834397905
5	160853	29503.384124947997	6109.6729485982
5	160861	29507.393846984037	6109.3663930329
5	160866	29508.040003713029	6101.9420661676
5	160871	29509.151803174524	6083.4597700949
5	160878	29509.602562779813	6083.6832939061
5	160901	29514.05497518847	6086.3566416898
5	160982	29527.93529147009	6099.7823437054
5	160987	29528.026440958692	6097.2967273142
5	160996	29529.478467828523	6097.9359336444
5	161006	29530.839608563813	6098.415572362
5	161036	29534.466423549217	6092.6895896362
5	161052	29536.440387007063	6091.2192653398
5	161057	29537.405500092374	6086.0053529677
5	161064	29537.687105502908	6084.053733555
5	161079	29540.291199460546	6085.3299091037
5	161093	29543.665546293822	6087.3252025781
5	161100	29543.787312926501	6084.8626812264
5	161105	29544.088759910247	6083.4997220355
5	161114	29545.637700937613	6079.9186395185
5	161133	29547.3765897419	6069.5237182146
5	161178	29551.09996674492	6066.6684578226
5	161183	29552.726950796495	6067.8443820223
5	161196	29554.791692318245	6063.949934406
5	161227	29558.345658198873	6061.3131853297
5	161235	29558.939328290024	6057.784262977
5	161267	29562.504065027087	6057.2839561353
5	162523	29827.716497076285	6322.4325144997
5	162535	29831.192531026396	6325.8233042082
5	162545	29832.948266997578	6318.9659267357
5	162555	29833.957028680358	6310.4582134044
5	162582	29835.609005422668	6310.6036886869
5	162601	29838.372238573605	6304.2841245828
5	162608	29839.614353417268	6304.3615762259
5	162640	29843.970988787893	6305.3454385916
5	162659	29846.724465828851	6305.4664108794
5	162668	29848.470779982522	6305.3051651842
5	162683	29850.800626073267	6301.5697849754
5	162688	29853.071638205396	6302.4988682559
5	162697	29853.648909397016	6300.8896839458
5	162726	29855.165042211478	6298.3902238445
5	162735	29857.49134309676	6299.465664862
5	162747	29859.814424804363	6301.2351346688
5	162753	29860.407693637869	6290.2813975536
5	162758	29861.559744843667	6288.2749370003
5	162778	29865.249814348758	6284.2006851666
5	162805	29867.305280249545	6280.5850379062
5	162846	29875.831802424119	6288.9474778219
5	162917	29887.156297053476	6298.8709741278
5	162924	29887.733438341396	6298.3505967188
5	162939	29889.744799591922	6299.6414316152
5	162944	29890.10633849586	6297.3348710369
5	162952	29891.143914936879	6297.5361278463
5	162963	29893.155152185039	6287.9172382716
5	162987	29896.505276460566	6284.5717835075
5	162994	29896.923804185255	6281.0291725348
5	163050	29907.230869256198	6280.376103218
5	163062	29908.762874059401	6276.397031088
5	163069	29910.10805423457	6272.7526743326
5	163079	29911.371791702933	6273.3795177898
5	163085	29912.679237041462	6266.9188274724
5	163094	29915.308670176395	6264.7386584958
5	163113	29918.966429745541	6260.0812021639
5	163126	29922.259339228263	6260.079297772
5	163146	29927.585078606566	6265.0698807873
5	163174	29931.356050860456	6266.5522946492
5	163181	29933.500342783662	6267.7149271068
5	163186	29933.982956072628	6267.9024038066
5	163194	29935.991653721904	6267.6180558322
5	163207	29938.587862961309	6269.1861253953
5	163213	29939.006487265779	6260.0063080976
5	163218	29939.250665799511	6258.7587414198
5	163227	29941.209368129992	6257.2797009818
5	163239	29941.855935875926	6257.2395145948
5	163244	29943.141779308599	6255.4162233194
5	163251	29944.640940998551	6240.979994357
5	163260	29946.079677687868	6240.4915309287
5	163276	29947.283119898987	6238.4939829606
5	163284	29948.394872714786	6239.1160474438
5	163301	29948.998491728036	6237.9098616074
5	163306	29949.328963156387	6237.901270302
5	163312	29950.396595124418	6236.5627549284
5	163320	29951.39598134018	6227.4157997146
5	163373	29958.204063894278	6233.2425794653
5	163396	29960.601961149139	6231.4598225158
5	163401	29960.993390666391	6228.4857397404
5	163407	29962.498249494609	6229.418008024
5	163416	29965.20205184285	6230.2100818446
5	163427	29967.042373754771	6230.0629649775
5	163436	29971.574908928528	6231.7479483132
5	163474	29976.608407703483	6235.5651168301

