version 2
run First-n4-7-20191016-14:52:48-10080
attr configname First-n4
attr datetime 20191016-14:52:48
attr experiment First-n4
attr inifile omnetpp.ini
attr iterationvars ""
attr iterationvarsf ""
attr measurement ""
attr network org.omnetpp.queueing.Pizza
attr processid 10080
attr repetition 7
attr replication ""
attr resultdir results
attr runnumber 7
attr seedset 7
param **.PS.maxInventoriedPS 4
param **.U1.interArrivalTime exponential(2s)
param **.U2.interArrivalTime exponential(4s)
param **.PS.serviceTimeForInventoryU1 exponential(0.8s)
param **.PS.serviceTimeForInventoryU2 exponential(1.0s)
param **.PS.serviceTimeDirectU1 exponential(1.2s)
param **.PS.serviceTimeDirectU2 exponential(1.4s)
param **.PS.probabilityProducing 0.5
param **.CS.serviceTimeU1 exponential(0.8s)
param **.CS.serviceTimeU2 exponential(1.0s)

vector 0 Pizza.EntryQueueU1 queueLength:vector ETV
attr interpolationmode sample-hold
attr title "queue length, vector"
vector 1 Pizza.CS queueLength:vector ETV
attr interpolationmode sample-hold
attr title "queue length, vector"
vector 2 Pizza.EntryQueueU2 queueLength:vector ETV
attr interpolationmode sample-hold
attr title "queue length, vector"
vector 3 Pizza.sink lifeTime:vector ETV
attr interpolationmode none
attr title "lifetime of arrived jobs, vector"
attr unit s
vector 4 Pizza.sink lifeTimeU2:vector ETV
attr interpolationmode none
attr title "lifetime of arrived jobs, vector"
attr unit s
0	0	0	0
0	12	3.186271203354	1
0	16	3.922646749257	2
0	18	4.535346124087	3
0	20	5.926127373993	4
0	22	6.107604223705	5
0	24	6.257161520631	6
0	30	7.344452251714	7
0	32	7.741080339274	6
0	42	8.140385499458	5
0	47	8.332398939077	4
0	53	9.61851404012	5
0	55	10.227719621579	6
0	57	10.278148534068	7
0	59	10.983238070839	6
0	64	11.192644628015	5
0	73	13.056848400218	6
0	74	13.340759820876	5
0	81	14.539056613882	6
0	83	14.750831197976	7
0	84	14.807977375928	6
0	88	15.20927791945	7
0	94	16.558972778663	8
0	97	18.01560272238	7
0	102	18.138791305489	6
0	108	18.621206800031	5
0	113	18.887037691188	4
0	118	19.378643990127	3
0	124	20.198278473957	4
0	125	20.486416765095	3
0	131	23.66561354003	2
0	138	24.53893800631	1
0	145	26.566319984951	0
0	168	28.767808966418	1
0	171	29.332535004525	0
0	183	31.064972530954	1
0	185	31.375073398757	2
0	188	33.587470809043	1
0	193	35.046401080737	0
0	214	37.1776719197	1
0	215	37.249087276447	0
0	224	38.571675080342	1
0	226	38.933523502697	2
0	230	40.286624236844	1
0	235	40.778627761427	0
0	252	44.979160742259	1
0	260	48.071383824152	0
0	274	49.155319997863	1
0	278	49.7671284195	0
0	299	52.506791124271	1
0	300	52.753537685401	0
0	317	53.750812879461	1
0	319	54.162399973205	2
0	322	54.436670814508	3
0	325	56.17571131098	4
0	326	56.306030912397	3
0	331	56.5089941903	2
0	336	57.19326846746	1
0	341	57.208742487939	0
0	345	57.360261926208	1
0	351	59.237286127871	0
0	357	59.662856409868	1
0	358	60.512733888898	0
0	362	61.141620260263	1
0	364	62.478734221515	2
0	366	63.119857256334	3
0	368	63.730277467102	4
0	370	64.100771691194	5
0	376	65.599300242213	6
0	378	67.552568126327	7
0	380	67.992696939916	8
0	381	68.277878054346	7
0	387	69.978807956115	8
0	388	69.993124412703	7
0	393	72.3803987856	6
0	398	72.994169492654	5
0	405	75.611751531547	4
0	410	75.856672916367	3
0	414	76.546676169916	4
0	421	77.20388313069	3
0	425	77.207949453395	4
0	428	77.2663727367	3
0	433	78.499932505892	2
0	437	79.24280881698	3
0	440	79.458357195932	2
0	445	80.242336155542	1
0	452	80.730510478511	2
0	454	80.810025230159	3
0	455	81.247093551964	2
0	460	81.468332087936	1
0	466	83.851006968844	0
0	521	90.611179604714	1
0	523	91.038824394934	2
0	524	91.111952671529	1
0	529	91.492288732963	0
0	560	101.617351625429	1
0	562	101.723646019477	2
0	564	102.687834531797	3
0	566	102.691547264541	4
0	568	103.582640879753	3
0	574	104.697952308841	2
0	580	104.791924956234	3
0	583	105.346559273634	4
0	585	105.358951035334	5
0	586	105.790592708104	4
0	591	106.061862765821	3
0	598	107.209409909153	4
0	599	107.72359130364	3
0	604	107.726926377386	2
0	611	108.188044631671	3
0	613	108.823491188299	4
0	615	109.928959610653	5
0	618	110.538264706501	6
0	619	110.630677682371	5
0	629	112.417620980634	6
0	631	113.040445024884	7
0	632	114.212404289275	6
0	639	115.542493734167	5
0	645	115.903737777163	6
0	647	116.096550004795	7
0	651	116.45303372403	6
0	656	116.923793041917	5
0	662	117.166321032568	4
0	668	117.29076057117	5
0	671	118.524473053921	4
0	676	118.74615443031	3
0	681	119.940644253548	2
0	686	121.534432596679	1
0	693	122.493578593644	0
0	697	122.835561878658	1
0	700	123.620857934528	0
0	708	124.275544046985	1
0	709	124.353642434067	0
0	713	125.369326198213	1
0	716	125.797878547448	0
0	748	129.826833311599	1
0	749	130.343440668653	0
0	773	137.856237637275	1
0	775	138.228125957872	2
0	780	139.15497626818	3
0	781	139.233089128712	2
0	790	140.810486992059	3
0	791	140.991586986734	2
0	796	141.040689669061	1
0	800	141.940978602647	2
0	804	142.503343352464	3
0	805	142.99340826656	2
0	809	143.542630921079	3
0	811	143.891417358652	4
0	815	145.719840649946	5
0	818	145.988149682896	4
0	824	146.220963622321	5
0	829	147.408062673992	4
0	835	149.843940454722	5
0	840	151.35485980418	6
0	841	152.20948034913	5
0	847	153.261169320974	4
0	852	153.338890807728	3
0	857	153.84954960238	2
0	861	153.881327514754	3
0	863	154.232893484592	4
0	866	156.107362453234	3
0	871	156.426614571318	2
0	876	157.109485340592	1
0	886	162.209030487603	0
0	913	163.580704050694	1
0	916	166.447722403492	0
0	922	167.045182323493	1
0	923	167.557748960873	0
0	966	173.165845244993	1
0	967	173.235087753378	0
0	979	174.651793978947	1
0	981	174.66947007452	2
0	982	175.141123267153	1
0	987	175.286066404962	0
0	1002	176.749847460894	1
0	1003	176.833776190277	0
0	1009	176.982753260911	1
0	1012	178.757408765335	0
0	1038	181.887708072617	1
0	1040	182.430907524669	2
0	1043	183.527875139063	3
0	1045	184.822236020725	2
0	1051	184.902717692342	3
0	1053	184.907973296566	4
0	1056	185.881765557335	3
0	1065	188.207586556617	4
0	1067	188.526117574068	5
0	1068	188.560186827384	4
0	1074	189.602457674755	5
0	1076	190.622272500289	6
0	1077	191.330683601133	5
0	1083	191.62035085156	6
0	1084	191.824083896422	5
0	1089	191.82749948261	4
0	1095	192.644979342558	3
0	1109	194.202472633287	4
0	1110	194.759633753159	3
0	1115	195.457656781531	2
0	1121	195.475582939751	3
0	1122	196.454452031875	2
0	1127	196.536630931488	1
0	1135	200.213926877349	0
0	1142	201.118383851524	1
0	1143	201.427346358861	0
0	1166	203.735637405125	1
0	1168	203.78175764641	2
0	1173	205.457305236531	1
0	1178	205.552523790947	0
0	1238	226.547385744394	1
0	1239	226.68440558162	0
0	1271	236.072756079621	1
0	1273	236.608402426381	2
0	1277	236.904330165714	3
0	1279	237.476182373353	4
0	1281	237.622216987291	5
0	1283	238.006457394177	4
0	1291	238.552472685107	5
0	1293	238.66959747587	4
0	1299	239.058747401419	5
0	1301	239.134563976268	6
0	1302	240.86900312266	5
0	1308	241.405101218457	4
0	1316	242.236156274147	3
0	1321	242.574235967797	2
0	1326	242.756774500484	1
0	1332	242.911227781431	2
0	1333	245.00184661776	1
0	1337	245.300934859428	2
0	1341	246.359691888423	3
0	1344	247.826502730722	4
0	1347	248.313945024934	3
0	1353	248.580140141627	4
0	1354	249.930589394867	3
0	1359	251.022692176643	2
0	1365	251.584077695295	1
0	1371	251.649402882131	2
0	1372	251.65856590928	1
0	1378	252.390439251996	0
0	1392	253.555382262057	1
0	1393	253.892611740854	0
0	1397	253.913593184287	1
0	1399	253.957234163289	2
0	1402	255.549285741095	1
0	1408	256.967538355238	2
0	1409	257.015574823796	1
0	1414	258.1452806117	0
0	1443	261.455251305276	1
0	1445	262.070193624842	0
0	1451	265.502879477893	1
0	1453	265.825751571363	2
0	1454	265.932369097391	1
0	1458	266.735972590345	2
0	1462	266.968362366531	3
0	1463	267.081714332304	2
0	1468	271.14788320454	1
0	1476	271.874828642574	2
0	1483	273.499461829949	3
0	1484	273.554941001884	2
0	1491	274.20929332945	1
0	1497	274.840105841003	2
0	1499	276.711412907057	1
0	1504	277.413739661872	0
0	1510	278.185372068312	1
0	1511	278.507751414367	0
0	1547	283.309600388004	1
0	1549	283.8233621356	2
0	1551	284.260145222375	1
0	1556	284.875752703487	0
0	1592	296.48927591245	1
0	1596	297.499472344787	2
0	1597	298.015278735214	1
0	1603	300.239052307953	0
0	1647	307.546736765625	1
0	1649	307.940665095455	2
0	1650	308.298333976942	1
0	1658	308.937818893058	2
0	1661	309.62880648893	3
0	1663	309.893974020984	4
0	1665	310.861160477844	5
0	1668	311.25996201728	4
0	1675	313.752957055889	3
0	1682	313.896067777866	4
0	1683	314.730158749058	3
0	1688	315.33591899498	2
0	1697	316.541266294047	3
0	1698	316.584002870959	2
0	1703	317.068818711848	1
0	1709	317.391957217459	2
0	1710	317.842132509803	1
0	1716	319.482697075985	0
0	1743	322.347605566184	1
0	1745	322.451547412024	2
0	1747	322.885893118969	1
0	1753	322.974940485803	2
0	1756	324.144652877208	1
0	1761	324.22676641367	0
0	1777	328.845476951918	1
0	1778	328.857368415991	0
0	1799	333.279635221799	1
0	1801	333.280005092574	2
0	1803	334.34227420581	3
0	1806	336.018491143783	2
0	1812	336.935357658306	1
0	1818	337.638113052301	2
0	1821	338.146077750281	1
0	1827	339.607884300638	0
0	1885	348.863715156745	1
0	1888	349.699928795458	2
0	1889	350.013012769059	1
0	1895	350.259230931317	0
0	1901	351.623350999123	1
0	1903	351.624734182602	2
0	1906	353.323286608875	1
0	1911	353.460086447638	0
0	1925	354.807143155225	1
0	1929	355.355831795715	0
0	1950	358.034514801236	1
0	1951	358.1418041919	0
0	1967	361.458258871459	1
0	1969	361.958132092112	0
0	1975	362.425385094086	1
0	1977	362.811129741961	0
0	2031	372.879458533655	1
0	2032	373.273016837768	0
0	2038	373.549438716027	1
0	2040	373.604767219599	0
0	2046	373.671489912498	1
0	2048	374.006476207683	2
0	2050	374.621692530154	3
0	2051	375.682410461293	2
0	2056	375.806416654457	1
0	2061	375.835371916792	0
0	2065	376.224581054302	1
0	2069	376.810992942788	0
0	2084	378.439369066951	1
0	2087	380.529905640942	0
0	2139	391.241478105846	1
0	2140	391.270881684356	0
0	2229	412.122435962221	1
0	2230	413.278277669872	0
0	2241	415.538569957974	1
0	2244	416.392468402211	0
0	2250	417.259105059216	1
0	2252	418.612185887428	2
0	2256	419.176394096817	1
0	2262	419.657735019761	2
0	2265	420.579822669461	1
0	2271	420.699378258101	0
0	2275	420.816045298075	1
0	2277	421.957342146181	2
0	2281	422.645194485527	3
0	2283	422.686447179919	2
0	2289	423.495640302402	1
0	2293	423.540732229513	2
0	2298	425.415520968931	3
0	2301	426.656599532225	2
0	2306	426.919757898514	1
0	2310	427.109107194804	2
0	2312	427.322493898616	3
0	2315	427.728558216288	2
0	2322	429.731363816023	3
0	2323	429.980053857902	2
0	2328	430.017474369889	1
0	2335	430.600363085045	0
0	2339	430.658096010083	1
0	2343	433.588849077999	2
0	2344	434.516723841948	1
0	2348	434.917942541586	2
0	2350	436.011309085079	3
0	2352	437.227206727164	4
0	2355	437.852897111836	3
0	2360	438.726870871605	2
0	2364	438.948804640235	3
0	2368	439.732424791036	2
0	2373	440.701363155878	1
0	2380	442.154373067793	0
0	2386	443.784601828929	1
0	2388	444.523957148607	2
0	2391	446.273045697479	1
0	2395	446.575104157395	2
0	2403	449.168896065206	3
0	2404	450.802433976867	2
0	2409	451.001887111231	1
0	2415	452.494202249089	0
0	2421	452.835429208603	1
0	2423	453.387154124498	0
0	2437	455.710070595625	1
0	2438	455.944927025486	0
0	2450	456.541528888703	1
0	2454	456.825377158134	0
0	2467	460.188890933687	1
0	2468	461.445646053201	0
0	2474	461.553750890896	1
0	2476	461.689416072691	2
0	2477	461.922858662813	1
0	2489	463.064330383207	0
0	2495	463.546178637606	1
0	2496	463.818166241122	0
0	2510	464.775274120426	1
0	2513	465.377908755382	2
0	2514	465.427608985291	1
0	2522	465.776494680339	2
0	2524	466.256498408493	1
0	2531	466.703359817844	2
0	2533	467.427369974118	1
0	2539	468.183910533166	0
0	2545	468.388057436285	1
0	2547	469.026871512575	2
0	2548	469.150446704505	1
0	2553	469.2505692448	0
0	2579	473.181461763601	1
0	2580	473.193454072021	0
0	2591	473.612471283673	1
0	2592	473.771368841433	0
0	2610	474.862570269809	1
0	2612	475.074776256476	2
0	2615	476.200174315228	1
0	2620	476.319234631971	0
0	2624	476.84288050739	1
0	2627	478.338868178742	0
0	2635	479.817022529937	1
0	2636	480.023625861353	0
0	2664	483.334946376011	1
0	2665	483.525488431937	0
0	2713	497.100679333097	1
0	2715	498.127673531743	2
0	2717	498.538291895832	3
0	2721	499.682670453043	4
0	2722	500.201633570231	3
0	2728	500.231217855829	4
0	2729	500.557329641161	3
0	2736	500.683081757054	4
0	2737	501.74271433981	3
0	2743	502.023597214072	2
0	2754	503.396561780661	3
0	2755	504.040492955322	2
0	2760	504.187988687143	1
0	2766	504.569071815215	0
0	2817	512.696188647023	1
0	2818	513.133902816197	0
0	2826	513.31123845197	1
0	2828	513.797411842134	2
0	2831	514.433081396927	1
0	2838	515.457756299723	0
0	2851	516.761174212077	1
0	2854	517.960733177606	0
0	2879	520.773484655561	1
0	2880	521.12715629475	0
0	2910	526.724232210683	1
0	2912	527.714775044238	0
0	2975	538.444111652104	1
0	2976	538.607255016806	0
0	3005	547.266021213785	1
0	3006	547.544002586922	0
0	3048	558.08022756286	1
0	3049	558.954642032998	0
0	3055	559.002036749156	1
0	3056	559.370486522253	0
0	3062	559.431550032547	1
0	3064	559.597143028843	0
0	3107	567.623241971235	1
0	3108	568.88189768792	0
0	3124	570.217006949202	1
0	3126	570.813019923312	0
0	3134	571.203895766842	1
0	3135	571.598814897762	0
0	3141	571.818534699558	1
0	3142	572.054386008141	0
0	3174	577.518748301776	1
0	3178	578.263639684885	2
0	3179	578.401570184147	1
0	3185	579.360762287644	2
0	3187	579.705167742495	1
0	3194	580.104732039531	0
0	3200	581.378925741558	1
0	3201	581.528072137492	0
0	3205	583.300317578125	1
0	3210	586.714754044458	0
0	3295	604.172682459834	1
0	3296	604.42859672357	0
0	3336	610.530551563061	1
0	3342	611.730864413717	2
0	3344	612.005144957609	3
0	3346	613.526807107642	2
0	3351	613.586175186414	1
0	3357	614.84266081303	0
0	3365	615.852746029487	1
0	3367	616.728762171562	0
0	3373	617.216704772756	1
0	3374	617.740161383509	0
0	3424	628.593253313997	1
0	3426	629.057997727353	2
0	3427	631.403095701926	1
0	3433	633.111128066984	0
0	3447	634.525105952707	1
0	3448	635.658997118405	0
0	3469	637.681445466893	1
0	3473	639.995283489578	0
0	3495	641.345597966925	1
0	3496	641.408538279394	0
0	3512	644.424818076054	1
0	3518	645.743447157052	2
0	3519	646.257196848202	1
0	3527	646.722120058579	0
0	3533	646.749443994729	1
0	3534	646.78358442118	0
0	3551	647.510938369205	1
0	3554	648.529040402094	2
0	3555	648.601850723028	1
0	3561	648.972883785706	2
0	3562	649.467614351551	1
0	3568	651.439136919559	0
0	3586	652.928840945826	1
0	3593	655.683938887482	0
0	3599	656.070318383213	1
0	3600	656.875740350184	0
0	3635	662.454987268803	1
0	3639	662.996559330092	0
0	3676	669.735236857322	1
0	3679	669.905208394055	0
0	3711	674.452606197194	1
0	3715	675.66896349075	0
0	3757	680.022847003612	1
0	3762	682.471798241325	0
0	3776	686.475406438259	1
0	3778	686.618297199952	2
0	3780	686.65173742388	3
0	3782	687.012434513091	4
0	3785	689.353216075046	3
0	3790	689.89541866726	2
0	3796	690.303252003296	1
0	3806	691.021633624672	2
0	3807	691.144689586283	1
0	3813	691.515128500504	0
0	3830	692.498610536278	1
0	3832	693.079766992175	0
0	3840	695.96511762217	1
0	3841	696.281135568174	0
0	3854	698.319922427577	1
0	3856	698.913088967118	0
0	3862	700.580968775653	1
0	3863	701.160329686221	0
0	3872	702.087293112057	1
0	3875	702.684967630407	0
0	3887	704.065705157661	1
0	3889	704.540025176286	2
0	3891	704.807754336449	3
0	3893	705.678935632157	2
0	3900	705.832568249831	3
0	3902	705.905908161732	4
0	3905	706.265532210719	5
0	3910	706.97364258299	6
0	3911	707.237740123885	5
0	3919	707.274562907971	6
0	3920	707.572362790234	5
0	3926	707.881820228081	6
0	3931	708.44216957701	7
0	3933	708.858835823373	8
0	3934	709.176674297685	7
0	3940	709.432837402825	8
0	3942	709.784813853463	9
0	3943	709.827241052157	8
0	3948	710.292886769404	7
0	3953	710.37659567051	6
0	3957	710.436417459074	7
0	3959	710.641555762969	8
0	3961	710.869747862018	9
0	3964	711.381463678095	8
0	3972	713.326117458948	9
0	3975	715.468062170522	8
0	3979	715.563680767472	9
0	3982	716.892072261469	8
0	3986	717.117882603247	9
0	3988	717.469825986975	10
0	3990	717.674447357802	11
0	3993	718.704115491925	10
0	4004	720.445377559372	9
0	4012	722.529285779444	10
0	4013	723.021105449327	9
0	4018	723.509533846216	8
0	4024	724.060682899392	9
0	4025	724.465194341374	8
0	4031	725.181170407138	9
0	4033	725.350231348132	10
0	4034	725.597153891546	9
0	4041	726.829688839787	10
0	4042	726.903765261991	9
0	4050	728.756940742546	8
0	4057	729.723579369745	7
0	4062	730.634333677573	6
0	4066	730.70000771332	7
0	4071	731.623349656205	8
0	4073	732.313085778746	9
0	4077	734.311028685762	8
0	4083	735.294042368451	7
0	4088	735.741118652454	6
0	4093	736.390470116791	5
0	4098	736.785997771275	4
0	4103	737.244480314946	3
0	4109	737.629508089471	4
0	4116	739.561820821611	5
0	4117	739.739681433686	4
0	4122	739.785512732339	3
0	4126	739.852192378159	4
0	4130	740.049221090284	5
0	4133	740.15399931662	4
0	4142	741.657367798685	3
0	4146	741.92465771232	4
0	4149	742.65801992517	3
0	4155	743.470940390599	4
0	4157	743.637849159914	5
0	4160	744.654899423777	4
0	4168	745.241486206631	5
0	4169	745.616157877313	4
0	4180	748.280098626956	3
0	4184	749.54584399338	4
0	4188	750.66931933601	5
0	4189	750.996024617994	4
0	4196	753.657045415318	3
0	4200	755.865520659325	4
0	4203	757.227208732975	3
0	4207	757.336667820338	4
0	4211	760.109113571046	5
0	4214	761.6734346203	4
0	4220	763.077335039697	5
0	4225	763.467449736014	4
0	4230	763.857764039813	3
0	4235	765.101689693474	2
0	4244	766.729868622511	1
0	4250	768.313608233527	2
0	4254	769.729218381542	3
0	4256	769.828655542141	4
0	4260	770.142057931222	5
0	4263	771.337969879496	4
0	4270	772.328259484618	3
0	4275	773.748647454092	2
0	4280	774.18440049554	1
0	4286	774.576177729388	2
0	4288	775.010817247563	3
0	4290	775.201975083868	2
0	4298	776.135806119802	3
0	4299	776.435413573329	2
0	4305	777.601138429536	3
0	4309	779.878850375627	4
0	4313	782.1014346061	5
0	4314	782.88387911328	4
0	4322	786.520434975427	3
0	4327	787.484093862861	2
0	4333	788.000024876935	1
0	4340	789.568708533374	0
0	4365	791.85128622221	1
0	4366	793.339432771115	0
0	4396	797.915527968167	1
0	4398	797.931107301824	2
0	4404	798.905970861458	3
0	4406	799.741669740166	4
0	4407	799.913336966418	3
0	4412	800.065496459292	2
0	4417	800.140475023099	1
0	4422	800.473736925679	0
0	4430	800.843147846662	1
0	4432	801.871267140655	0
0	4448	803.239794119106	1
0	4449	803.519123019198	0
0	4464	806.939654171466	1
0	4466	807.229991514388	0
0	4470	807.242863632436	1
0	4472	807.897573261024	2
0	4477	809.519501372618	1
0	4481	810.090768914767	2
0	4486	811.517185317363	1
0	4492	811.672083866016	2
0	4493	811.811484879052	1
0	4497	811.842931627851	2
0	4502	813.422329691777	3
0	4503	813.595762717996	2
0	4509	813.795028432387	3
0	4512	813.85216753267	4
0	4514	813.920563381953	5
0	4517	814.830749347056	4
0	4522	815.393364573469	3
0	4530	815.826862788647	4
0	4534	816.701858657962	5
0	4536	816.83327087041	6
0	4537	817.943454570806	5
0	4541	818.081782974636	6
0	4543	818.761500234928	7
0	4548	819.133767556494	6
0	4553	819.33306522586	5
0	4559	821.152402984541	6
0	4562	821.270960739455	5
0	4568	822.377648877513	6
0	4571	823.486948030942	7
0	4572	823.584775722909	6
0	4576	823.809848028572	7
0	4578	823.951036586692	8
0	4580	824.317379531621	9
0	4586	825.540440446978	10
0	4588	826.854726466447	9
0	4595	828.033616238382	8
0	4600	828.896920020805	7
0	4607	830.039439348415	8
0	4608	830.16120354639	7
0	4616	831.69753654797	6
0	4623	832.438239909881	7
0	4626	834.008322801687	6
0	4631	834.353028659821	5
0	4639	835.349339605679	6
0	4640	835.863891169595	5
0	4645	835.873833719641	4
0	4650	835.905997205512	3
0	4656	837.254535092424	2
0	4662	837.757166608951	3
0	4663	838.180090643113	2
0	4668	838.492132968672	1
0	4673	840.697897980563	0
0	4677	841.162860429195	1
0	4681	844.122788217788	2
0	4683	844.398531059452	3
0	4684	844.813015176685	2
0	4691	846.724126212017	1
0	4696	846.925484150821	0
0	4726	851.789314294889	1
0	4727	852.061322632634	0
0	4746	852.829491133002	1
0	4747	853.504312694504	0
0	4758	855.107805093247	1
0	4764	857.033160213511	2
0	4767	857.960116607794	1
0	4775	858.990959377884	2
0	4776	860.183239958511	1
0	4782	860.200043778413	2
0	4783	860.217253208567	1
0	4788	860.485550395558	0
0	4794	860.883044466766	1
0	4802	863.075997296886	2
0	4804	863.327498921553	3
0	4805	863.474020603778	2
0	4811	863.643337066658	3
0	4816	865.771392638124	2
0	4822	867.268892246113	1
0	4830	867.875072474952	2
0	4831	868.127303159764	1
0	4836	870.613654843669	0
0	4850	872.998606730593	1
0	4851	873.033211660393	0
0	4877	875.334107272373	1
0	4883	877.22646811757	0
0	4901	881.132320361686	1
0	4903	882.103329850022	2
0	4905	882.748404222	3
0	4909	884.510086642864	4
0	4910	884.964157078732	3
0	4917	885.227534861037	4
0	4920	885.935488320152	3
0	4926	887.863934872288	2
0	4937	888.093351119966	1
0	4943	890.019015554749	0
0	4969	891.257569187629	1
0	4971	891.296653856208	2
0	4973	891.361945060885	3
0	4976	891.565694963612	4
0	4977	891.612441040256	3
0	4983	892.267434099669	2
0	4989	892.779491850126	1
0	4994	893.351797841091	0
0	5039	901.819251075187	1
0	5042	903.900738662826	0
0	5053	904.824841272305	1
0	5055	904.853906298027	2
0	5059	906.482341000172	3
0	5060	907.370601114777	2
0	5066	907.483341152559	3
0	5068	907.597453034518	2
0	5073	907.60108347768	1
0	5080	908.728459853739	0
0	5084	909.473602394303	1
0	5089	910.276774660327	2
0	5091	910.322935171654	3
0	5093	910.436988329109	2
0	5098	911.151334161052	1
0	5104	911.384409486459	2
0	5109	912.953262511934	3
0	5110	913.23397644795	2
0	5116	913.50120196495	3
0	5120	913.828769257737	4
0	5122	914.069304154758	5
0	5123	914.908573754354	4
0	5131	917.198901968969	3
0	5137	917.484025033648	2
0	5142	917.83058453936	1
0	5146	918.579136093227	2
0	5150	919.307287268375	1
0	5155	919.362113498288	0
0	5161	920.341233130013	1
0	5163	920.760754040481	2
0	5167	920.997738533834	3
0	5168	921.091286983045	2
0	5172	921.148473800524	3
0	5174	921.384412292231	4
0	5177	922.159804742368	3
0	5181	922.244774839006	4
0	5184	922.46291696407	3
0	5194	922.999688359262	4
0	5195	923.323420513121	3
0	5200	923.809893834559	2
0	5205	923.841853247295	1
0	5209	923.857283536963	2
0	5212	926.056464147374	1
0	5216	928.238077893213	2
0	5219	928.945492983258	1
0	5224	929.921174711701	0
0	5272	935.208584455012	1
0	5276	936.162220276046	0
0	5300	939.739514350601	1
0	5302	939.755964197595	2
0	5305	940.786537589668	1
0	5311	940.78846713425	2
0	5313	940.942831057019	3
0	5315	942.298227234476	2
0	5321	943.271641999343	1
0	5327	943.420085727016	2
0	5328	943.626765348195	1
0	5333	943.978948466933	0
0	5359	949.201843879921	1
0	5361	949.423607282025	2
0	5363	950.200363625983	1
0	5372	951.193642129585	0
0	5378	951.243839751312	1
0	5379	952.116943533131	0
0	5399	955.741479440398	1
0	5401	956.390971671862	2
0	5408	959.097724670513	1
0	5413	959.299995529598	0
0	5424	960.241862219365	1
0	5426	960.346348808057	2
0	5428	960.435709897687	3
0	5430	960.925692286493	4
0	5432	961.465578899379	3
0	5437	962.362744486458	2
0	5441	962.660838049686	3
0	5445	963.54944248331	2
0	5450	963.702341465304	1
0	5454	964.314211989734	2
0	5456	964.988328590763	3
0	5463	968.24336967827	4
0	5466	968.678778699912	3
0	5472	969.731268184604	2
0	5478	971.008535296064	1
0	5483	971.157558154641	0
0	5510	975.153806476253	1
0	5512	975.660962771357	0
0	5542	979.628414247565	1
0	5543	980.090137785134	0
0	5547	982.668784356395	1
0	5550	983.810880954205	0
0	5560	984.178065401004	1
0	5564	986.19703374139	2
0	5569	987.582652373578	3
0	5573	990.849942560995	4
0	5574	991.45244155565	3
0	5581	992.33274172771	2
0	5587	992.969662873996	1
0	5593	992.973638299651	2
0	5595	993.953762386709	1
0	5601	994.332270509762	0
0	5613	994.684890830601	1
0	5620	995.746781511243	2
0	5621	995.878918108439	1
0	5626	996.220254243263	0
0	5632	996.68415517449	1
0	5633	996.839169713425	0
0	5646	999.847396310276	1
0	5649	1002.449527552671	0
0	5669	1003.863589720938	1
0	5670	1003.868698412162	0
0	5676	1005.114859330887	1
0	5677	1005.754505616258	0
0	5694	1007.047506492323	1
0	5696	1007.475551113726	0
0	5707	1008.09392652147	1
0	5709	1008.299471781005	0
0	5740	1012.123476864963	1
0	5742	1012.612453556142	2
0	5743	1012.687408286961	1
0	5754	1013.951784255123	0
0	5767	1015.304942318861	1
0	5768	1015.512708501137	0
0	5797	1017.208564816393	1
0	5798	1017.330640573017	0
0	5848	1025.012711073334	1
0	5851	1026.732595757536	0
0	5868	1028.250215271421	1
0	5872	1031.799723674126	2
0	5876	1035.752836894954	1
0	5884	1038.670569746338	0
0	5890	1038.712327296469	1
0	5891	1039.208716392228	0
0	5909	1040.1027744829	1
0	5910	1040.139491129283	0
0	5936	1043.128476800062	1
0	5938	1043.290752796838	0
0	5949	1044.219920315747	1
0	5951	1044.282862775915	2
0	5953	1047.371400934382	1
0	5959	1047.568406762209	2
0	5960	1048.096259590195	1
0	5965	1048.102715859111	0
0	5986	1049.86440263213	1
0	5990	1050.405604267107	2
0	5992	1050.524735059302	3
0	5993	1050.710308639922	2
0	5998	1050.766884460507	1
0	6005	1051.282429443255	0
0	6011	1051.548316811806	1
0	6013	1051.850781878229	0
0	6030	1052.794586580782	1
0	6031	1052.937305194375	0
0	6055	1054.117299631726	1
0	6057	1054.493543662368	2
0	6063	1056.83511711238	3
0	6065	1057.685092901896	4
0	6069	1062.83717566243	3
0	6075	1063.062421613965	4
0	6076	1063.408163023007	3
0	6081	1065.308221157367	2
0	6089	1066.700461904081	3
0	6095	1067.746774384319	2
0	6100	1067.891131917802	1
0	6110	1069.077853722262	0
0	6116	1069.27530073312	1
0	6120	1072.232059051854	2
0	6122	1073.091680058082	3
0	6127	1074.054044839681	4
0	6128	1074.204764771094	3
0	6134	1075.237131488666	2
0	6139	1075.308287605545	1
0	6143	1075.615964094896	2
0	6148	1077.449086873035	1
0	6154	1077.59219322036	2
0	6157	1078.834808526587	3
0	6158	1079.019277288878	2
0	6163	1079.194446202174	1
0	6171	1081.351518701785	2
0	6176	1083.921352925022	1
0	6181	1085.778760509931	0
0	6185	1086.745560351309	1
0	6191	1088.073633803152	2
0	6194	1088.451833816452	1
0	6199	1089.263032952929	0
0	6210	1090.243708609944	1
0	6211	1090.303871935333	0
0	6215	1091.164319019131	1
0	6218	1092.224933388714	0
0	6245	1095.018883108566	1
0	6246	1095.565470953968	0
0	6250	1095.88459225733	1
0	6255	1097.220765351384	0
0	6266	1099.124128699689	1
0	6268	1099.419431231844	2
0	6271	1100.260494028331	1
0	6275	1100.399401385489	2
0	6278	1101.064214361028	1
0	6282	1101.122857384831	2
0	6284	1101.227041109401	3
0	6288	1102.627403077888	4
0	6294	1103.912746324305	3
0	6300	1104.323310561978	4
0	6301	1104.883664969102	3
0	6308	1107.817880824217	2
0	6313	1107.830492164242	1
0	6319	1107.945899730647	0
0	6325	1108.009379737177	1
0	6327	1108.590839802857	0
0	6331	1109.13934973658	1
0	6334	1109.447913557129	0
0	6338	1110.582286901907	1
0	6340	1111.469851691808	2
0	6344	1112.170224348758	1
0	6350	1112.674553393075	2
0	6351	1113.05577176108	1
0	6356	1113.408626411622	0
0	6399	1122.71956641482	1
0	6401	1123.036841033379	2
0	6403	1123.270098986759	3
0	6408	1125.744610695723	2
0	6413	1126.352537284991	1
0	6421	1127.23410260048	2
0	6424	1128.344422598439	3
0	6428	1129.828583203774	2
0	6435	1131.758403101314	3
0	6436	1131.857796729849	2
0	6441	1131.917714192269	1
0	6454	1134.322708480211	0
0	6460	1134.350310490588	1
0	6461	1134.683891131191	0
0	6468	1134.829419433613	1
0	6470	1134.871590996383	2
0	6471	1135.176415408484	1
0	6478	1135.64789881374	0
0	6507	1141.662010104357	1
0	6509	1142.636198383068	2
0	6515	1143.538725987958	3
0	6517	1144.796513957044	4
0	6521	1146.320457372929	5
0	6522	1146.791692546153	4
0	6527	1147.959329445362	3
0	6535	1148.46701163869	2
0	6540	1148.615092379916	1
0	6545	1148.677413720341	0
0	6566	1151.408490835195	1
0	6567	1151.578772914486	0
0	6573	1152.038575514853	1
0	6574	1152.167616344542	0
0	6611	1156.165193383949	1
0	6614	1160.657893584492	0
0	6631	1165.576424849201	1
0	6636	1166.291143960197	0
0	6655	1168.695383192248	1
0	6659	1171.29222195872	2
0	6661	1172.036598405029	3
0	6663	1172.667596032773	4
0	6664	1173.022767393492	3
0	6670	1173.59105544628	4
0	6671	1173.829916637426	3
0	6677	1177.071096829849	4
0	6678	1177.385643495705	3
0	6684	1177.425997237729	4
0	6691	1178.296536196154	3
0	6696	1178.31947617865	2
0	6702	1179.61472040775	3
0	6703	1179.679331610063	2
0	6708	1179.800397843111	1
0	6714	1180.013284508448	2
0	6715	1180.08353028548	1
0	6722	1180.394684111413	0
0	6762	1183.933430485719	1
0	6764	1184.240030643064	0
0	6775	1187.043866055731	1
0	6777	1187.482654050945	0
0	6807	1191.640679920555	1
0	6808	1192.42778346554	0
0	6846	1197.853894121785	1
0	6847	1197.86344024107	0
0	6854	1198.255225646251	1
0	6855	1198.912758963164	0
0	6866	1199.624208554544	1
0	6868	1200.369395456465	2
0	6873	1203.465020716862	1
0	6878	1203.555633213185	0
0	6884	1203.939527436648	1
0	6885	1203.977949465548	0
0	6905	1206.561117541634	1
0	6908	1207.558780176881	0
0	6914	1208.975558011592	1
0	6916	1209.237740918087	2
0	6917	1209.614397032964	1
0	6923	1209.730889443989	2
0	6925	1209.834457814755	3
0	6927	1210.947566748093	2
0	6933	1212.036737006948	1
0	6938	1212.442206939901	0
0	6962	1217.148089509094	1
0	6963	1217.823497697335	0
0	6975	1218.346494195457	1
0	6978	1219.304874398064	0
0	6986	1219.977211300759	1
0	6987	1220.379485045147	0
0	7004	1222.579202607238	1
0	7010	1223.162157941976	2
0	7013	1224.426476048319	1
0	7019	1225.026475408543	2
0	7022	1227.617284271298	3
0	7023	1227.697669557695	2
0	7028	1227.741065229332	1
0	7034	1227.783592030319	2
0	7035	1228.43732399122	1
0	7040	1228.587359024442	0
0	7058	1229.484234570622	1
0	7062	1230.160689493441	0
0	7093	1233.649204427344	1
0	7096	1234.899361208278	0
0	7103	1235.057093614525	1
0	7105	1235.116182816973	2
0	7106	1235.359109347403	1
0	7115	1235.982338860528	2
0	7116	1236.094033061033	1
0	7123	1237.67572589411	0
0	7137	1238.497095499588	1
0	7138	1238.897707746337	0
0	7145	1239.683799364007	1
0	7146	1239.906194614945	0
0	7158	1240.543978970636	1
0	7159	1241.792059208652	0
0	7165	1242.08058946799	1
0	7170	1243.32486998671	0
0	7187	1245.437155659387	1
0	7189	1246.249869978765	2
0	7192	1249.044079160542	1
0	7197	1249.185862659178	0
0	7203	1249.621523223951	1
0	7205	1250.678373521463	0
0	7217	1251.414169387258	1
0	7220	1251.531496572721	2
0	7221	1252.479476204753	1
0	7226	1252.535493705512	0
0	7245	1254.981644839788	1
0	7252	1260.268584910247	2
0	7254	1260.724740891171	3
0	7256	1261.344235343245	4
0	7258	1261.841463786398	5
0	7259	1261.872570919342	4
0	7264	1263.826193531165	3
0	7270	1264.0833733511	4
0	7272	1264.437358767219	5
0	7273	1265.309611301691	4
0	7278	1265.735537411245	3
0	7284	1266.064382252877	4
0	7285	1266.286619845998	3
0	7291	1266.538203699824	4
0	7293	1266.540630043029	5
0	7299	1268.392466721269	6
0	7300	1268.39786155662	5
0	7306	1268.916098099438	6
0	7307	1269.734304660818	5
0	7313	1270.610096326373	4
0	7318	1270.826209350133	3
0	7322	1271.406044977344	4
0	7327	1272.213090139535	3
0	7331	1272.721763299478	4
0	7333	1272.765855660398	5
0	7336	1273.770151153959	4
0	7342	1273.9013195505	5
0	7343	1274.131052932189	4
0	7348	1275.040159291493	3
0	7352	1277.253703586106	4
0	7356	1277.805091771057	5
0	7357	1278.391151131972	4
0	7362	1281.060862788812	3
0	7370	1282.687442145783	4
0	7373	1284.28102037202	3
0	7377	1284.725058123963	4
0	7380	1286.107484575939	3
0	7385	1286.974660145629	2
0	7393	1289.033824428365	3
0	7396	1289.24160301588	2
0	7404	1290.126614650548	3
0	7405	1290.692860709006	2
0	7409	1291.352934203248	3
0	7413	1292.871442673924	4
0	7418	1294.914217197944	3
0	7424	1295.143501915375	4
0	7427	1295.407691648964	5
0	7429	1295.721181094949	6
0	7430	1295.90714771722	5
0	7436	1296.849898095088	6
0	7437	1296.920256064731	5
0	7442	1298.350122038467	4
0	7450	1298.579595416008	5
0	7452	1298.633604746151	6
0	7453	1299.410981508161	5
0	7463	1302.034292431357	6
0	7469	1303.863595777431	7
0	7470	1305.561977674098	6
0	7477	1306.785383178189	5
0	7482	1307.0455073104	4
0	7489	1309.814593653816	3
0	7496	1310.463613715057	4
0	7499	1310.711938361022	3
0	7505	1312.180817847599	4
0	7507	1313.400112481004	5
0	7510	1314.585932510278	4
0	7516	1316.16259199781	5
0	7518	1316.480805582907	6
0	7521	1316.966536975154	5
0	7527	1317.526220956182	4
0	7532	1318.142624496709	3
0	7536	1318.617233451855	4
0	7542	1319.148908127543	3
0	7549	1320.946831402003	4
0	7550	1321.154679582133	3
0	7555	1321.931164216236	2
0	7562	1329.419401216133	1
0	7566	1330.857919283394	2
0	7569	1333.986707422651	1
0	7573	1334.23273146073	2
0	7575	1334.732480269229	3
0	7578	1335.922560563843	2
0	7584	1337.422437259455	3
0	7589	1339.183527603442	2
0	7594	1340.437373583565	1
0	7602	1341.35878967098	2
0	7603	1341.642344105245	1
0	7609	1342.254252582204	2
0	7612	1343.286929013163	1
0	7617	1343.518281334722	0
0	7629	1344.566429863429	1
0	7630	1344.749610657632	0
0	7655	1346.5379636937	1
0	7656	1347.001462296102	0
0	7662	1347.288311496501	1
0	7663	1347.372138484581	0
0	7707	1356.904688750402	1
0	7712	1358.045141886174	0
0	7731	1360.837135230181	1
0	7734	1361.272259398146	0
0	7745	1363.29183159568	1
0	7747	1363.33388167221	2
0	7751	1365.825141144291	1
0	7755	1366.298027603628	2
0	7759	1366.938626450582	1
0	7764	1367.152079397137	0
0	7782	1371.487231156846	1
0	7784	1371.951639476794	2
0	7788	1372.66371216909	3
0	7791	1374.091157210002	2
0	7798	1375.074694622932	1
0	7802	1375.786450714199	2
0	7804	1376.161896501233	3
0	7807	1376.697309147001	2
0	7811	1376.864823546095	3
0	7813	1376.964793165326	4
0	7815	1377.132570251809	5
0	7817	1377.795837582487	6
0	7825	1381.07922580077	7
0	7827	1381.11572341527	8
0	7832	1382.958413392235	7
0	7836	1383.311817891234	8
0	7840	1383.435681239904	9
0	7841	1383.453307523528	8
0	7845	1386.093705784379	9
0	7850	1387.68458264449	8
0	7855	1389.045104947618	7
0	7861	1390.835293108376	6
0	7871	1391.833551276398	7
0	7872	1392.08627061291	6
0	7878	1392.984853180077	7
0	7880	1393.129219642848	8
0	7881	1394.378511297735	7
0	7886	1395.029356162149	6
0	7891	1395.356968420049	5
0	7897	1396.118824415533	6
0	7898	1396.55223913392	5
0	7903	1397.185641998075	4
0	7909	1398.549562275439	5
0	7911	1398.740165406679	6
0	7913	1399.061686572201	7
0	7918	1400.105508920454	6
0	7925	1400.807774832524	5
0	7930	1401.635448865324	4
0	7934	1402.066963940443	5
0	7937	1402.589756894002	4
0	7941	1402.892210002391	5
0	7947	1404.267856776872	6
0	7950	1405.403670173452	5
0	7954	1406.126207765697	6
0	7956	1407.698110196483	7
0	7958	1407.869692450651	8
0	7960	1408.369782717457	9
0	7962	1408.49965413595	10
0	7965	1410.153517393549	9
0	7975	1412.675287940169	10
0	7977	1413.311463611288	11
0	7978	1413.324536565725	10
0	7982	1413.628705038133	11
0	7984	1413.931704508198	12
0	7989	1414.535177246266	11
0	7995	1416.20372966917	12
0	7996	1416.602345617308	11
0	8001	1417.353197723522	10
0	8005	1419.147539997649	11
0	8008	1419.457062656897	10
0	8012	1420.50889125645	11
0	8018	1421.644776922049	12
0	8021	1422.351834894572	11
0	8025	1422.736568438905	12
0	8027	1424.030293679463	13
0	8029	1424.113723551069	14
0	8034	1425.778285866871	15
0	8035	1426.530681011196	14
0	8041	1426.775532710499	13
0	8050	1427.683623764097	14
0	8052	1428.003225779167	15
0	8053	1428.378155699695	14
0	8059	1428.839809151199	15
0	8060	1429.013974155366	14
0	8065	1430.334600311397	13
0	8069	1430.411792830071	14
0	8072	1431.82883359769	13
0	8076	1431.856992631147	14
0	8080	1434.312458729242	13
0	8088	1435.555639324085	12
0	8093	1435.761928079901	11
0	8098	1435.834151510944	10
0	8104	1436.518999259791	11
0	8109	1437.707789626278	10
0	8113	1437.818078238437	11
0	8117	1439.233662405408	10
0	8122	1440.274337481739	9
0	8126	1440.285189660436	10
0	8131	1444.968526469258	9
0	8138	1445.787652523796	8
0	8143	1446.061642478633	7
0	8148	1446.879121146492	6
0	8156	1447.726149313376	5
0	8161	1447.871841582716	4
0	8165	1448.398475412797	5
0	8171	1449.082694419547	6
0	8176	1450.841563166258	5
0	8180	1450.871383768061	6
0	8185	1452.321556313644	7
0	8186	1452.401552107533	6
0	8196	1454.302275378158	7
0	8197	1454.716437706788	6
0	8201	1455.627311282893	7
0	8204	1457.140971829073	6
0	8213	1458.609800127972	5
0	8218	1459.145910660896	4
0	8225	1459.698061265046	3
0	8230	1460.410157059313	2
0	8237	1461.739995566893	1
0	8241	1462.691423735501	2
0	8244	1466.966260697624	1
0	8248	1467.022585639057	2
0	8252	1468.192272734162	3
0	8253	1468.449788231946	2
0	8258	1468.540573228707	1
0	8264	1470.128510311162	2
0	8266	1470.427105378282	3
0	8269	1470.867055384947	2
0	8274	1472.379360091821	1
0	8278	1472.716378632458	2
0	8283	1474.04145296312	1
0	8288	1474.745037785845	0
0	8294	1474.892245225516	1
0	8296	1475.034222655099	2
0	8299	1475.393319521833	1
0	8305	1476.034025263983	2
0	8306	1476.732465077289	1
0	8310	1476.81104052569	2
0	8319	1478.713070103383	1
0	8329	1479.428861479236	2
0	8331	1480.842560810891	3
0	8332	1480.847693931395	2
0	8337	1482.578310414202	1
0	8342	1483.49397956458	0
0	8378	1489.616402808894	1
0	8380	1489.619435626229	2
0	8382	1490.956407635051	1
0	8389	1492.005577010268	2
0	8390	1492.06256399162	1
0	8395	1492.277622864575	0
0	8408	1494.50049800154	1
0	8409	1494.988963071647	0
0	8417	1497.532406067257	1
0	8421	1500.919703319839	0
0	8427	1503.230388681247	1
0	8428	1503.312406810103	0
0	8435	1504.751604808301	1
0	8436	1504.826132273515	0
0	8456	1505.443166723564	1
0	8458	1505.492751615165	0
0	8491	1515.413051665305	1
0	8492	1515.551883312648	0
0	8505	1516.189808515267	1
0	8506	1516.300705751611	0
0	8547	1524.56234089528	1
0	8555	1526.646536409497	0
0	8613	1534.69526668484	1
0	8617	1536.930362112639	0
0	8641	1539.209467967813	1
0	8645	1541.253160842272	2
0	8647	1541.670801836912	1
0	8655	1542.890660552115	0
0	8677	1545.12432278151	1
0	8682	1547.450992663126	0
0	8705	1550.468497658543	1
0	8707	1550.566026936761	2
0	8709	1550.653301368298	3
0	8710	1551.402224798011	2
0	8716	1551.678526422888	3
0	8718	1552.302104609597	4
0	8721	1553.371226637105	3
0	8730	1553.757645885339	4
0	8733	1554.495469370293	3
0	8739	1557.569024441296	2
0	8750	1558.245569329612	3
0	8754	1558.691620224833	4
0	8755	1559.440362872621	3
0	8763	1560.013826877192	4
0	8765	1560.206912840117	5
0	8767	1560.445007141545	6
0	8768	1561.246575011811	5
0	8773	1561.654900828614	4
0	8779	1561.991504812412	5
0	8780	1562.12639519184	4
0	8784	1564.976095554173	5
0	8787	1565.517132191072	4
0	8792	1567.816777280279	3
0	8796	1570.142640646862	4
0	8800	1571.152026824844	3
0	8807	1572.008314045468	2
0	8812	1572.107112782796	1
0	8817	1573.254506873558	0
0	8823	1574.693547577789	1
0	8824	1574.703821770573	0
0	8836	1577.052700528472	1
0	8838	1577.568277942177	2
0	8839	1577.669177726462	1
0	8843	1577.683087155241	2
0	8849	1579.531073668419	1
0	8854	1579.599686677798	0
0	8867	1581.61991586568	1
0	8869	1581.993722763001	2
0	8871	1582.245631740072	3
0	8873	1582.442296208261	2
0	8877	1582.623038791137	3
0	8886	1585.061916812168	2
0	8891	1585.86666748506	1
0	8895	1585.933740090671	2
0	8898	1586.889962195382	1
0	8905	1588.195571114253	0
0	8911	1588.648441740546	1
0	8914	1589.506133383665	0
0	8920	1590.766478764605	1
0	8921	1591.442056796422	0
0	8938	1592.756140233351	1
0	8941	1592.945689271979	0
0	8981	1598.186549534142	1
0	8982	1598.565709745234	0
0	8991	1598.948736604285	1
0	8993	1600.021484770156	2
0	8995	1600.206472904293	3
0	8998	1601.30631968046	2
0	9005	1601.402256560046	1
0	9010	1601.789162374891	0
0	9019	1601.961710522335	1
0	9021	1602.397889536927	2
0	9025	1603.65170284721	3
0	9027	1604.074766872193	4
0	9030	1604.195813534167	3
0	9034	1604.710796681227	4
0	9038	1605.370950686739	5
0	9043	1606.064899852283	4
0	9048	1606.198831526074	3
0	9052	1606.202697471698	4
0	9054	1606.445707926476	5
0	9057	1608.491730828426	4
0	9062	1610.202019090886	3
0	9068	1611.412584235346	2
0	9074	1612.349933844382	1
0	9082	1613.70680096296	2
0	9085	1614.011671648682	3
0	9086	1614.855023469537	2
0	9091	1616.141972041634	1
0	9096	1618.009069445799	0
0	9115	1621.215501281652	1
0	9119	1621.831948756522	2
0	9123	1622.735946683173	3
0	9126	1623.39429959606	2
0	9132	1624.446783404188	1
0	9139	1625.562226807757	2
0	9141	1627.572777596224	3
0	9142	1627.766437252265	2
0	9149	1629.244415242443	1
0	9154	1631.50510434436	0
0	9161	1633.217594894496	1
0	9162	1633.568535595561	0
0	9168	1633.955980489962	1
0	9169	1634.57501214196	0
0	9173	1634.734172021486	1
0	9176	1635.031467867295	0
0	9182	1635.87439136557	1
0	9184	1637.370810040999	2
0	9188	1639.043339302358	3
0	9190	1639.39116435326	4
0	9193	1640.010130302361	3
0	9198	1646.265305320291	2
0	9205	1647.27528517499	1
0	9211	1648.155588032719	2
0	9215	1648.945375505878	1
0	9220	1649.128586486097	0
0	9231	1650.006711252971	1
0	9233	1650.264279170156	2
0	9234	1650.689969871347	1
0	9238	1650.970570662984	2
0	9240	1651.103367732905	3
0	9242	1651.157390472859	4
0	9245	1651.512784007651	3
0	9250	1652.216857485936	2
0	9254	1652.251881371991	3
0	9257	1653.453375360694	2
0	9266	1654.566967510533	3
0	9268	1655.457709069236	2
0	9276	1656.244434378092	1
0	9284	1657.692336598172	2
0	9285	1658.498997084394	1
0	9291	1659.26087059305	0
0	9329	1663.090040021066	1
0	9333	1666.376464815273	2
0	9339	1668.097676763442	3
0	9341	1668.910633231168	4
0	9342	1671.305183535597	3
0	9347	1671.893519403413	2
0	9352	1671.930992634226	1
0	9357	1671.961377339211	0
0	9387	1674.442071820914	1
0	9396	1675.945674619056	0
0	9415	1677.781291543546	1
0	9419	1682.061099313353	0
0	9443	1685.290259794395	1
0	9446	1686.586948228119	2
0	9448	1687.361458854516	1
0	9453	1687.433909544502	0
0	9466	1689.743976706891	1
0	9467	1690.202239315737	0
0	9509	1698.056905047421	1
0	9511	1698.893636703626	0
0	9522	1700.038961932672	1
0	9526	1703.574553349057	2
0	9527	1705.187145281945	1
0	9535	1710.106493460448	0
0	9575	1716.050670042941	1
0	9576	1716.648912210572	0
0	9589	1718.513893500836	1
0	9590	1718.856734662683	0
0	9616	1722.615364255969	1
0	9619	1722.995405089169	0
0	9628	1724.376190592547	1
0	9639	1728.000874545926	0
0	9655	1730.153092319337	1
0	9658	1731.787012854022	0
0	9678	1734.925802451427	1
0	9680	1735.129144265011	2
0	9682	1735.23880463651	3
0	9683	1735.678428130166	2
0	9690	1736.645682741211	3
0	9692	1737.062971613331	4
0	9693	1737.123964864769	3
0	9699	1737.35989181773	4
0	9700	1737.541040768341	3
0	9706	1737.861172155768	4
0	9708	1738.307062546062	5
0	9714	1739.280242815603	4
0	9723	1740.850976305418	5
0	9725	1741.088192964799	4
0	9731	1741.347258676334	3
0	9736	1741.740056233202	2
0	9743	1742.426942519175	1
0	9749	1744.355612648584	0
0	9773	1745.574190935262	1
0	9776	1745.814193881191	0
0	9784	1746.098129516231	1
0	9787	1746.992498207219	0
0	9806	1748.555251103227	1
0	9808	1748.823913521062	2
0	9810	1748.843668614483	3
0	9814	1753.351430464118	4
0	9818	1754.071530030633	5
0	9822	1755.293541766969	4
0	9829	1756.403774649191	3
0	9834	1756.680843677388	2
0	9839	1756.787441586155	1
0	9849	1757.504422898295	2
0	9850	1757.68591360213	1
0	9857	1760.447173353684	0
0	9869	1761.856862712486	1
0	9874	1762.87922014407	2
0	9875	1763.066722284153	1
0	9881	1763.397323140754	2
0	9883	1763.603549008709	3
0	9884	1764.350230607826	2
0	9890	1764.887575022445	1
0	9895	1765.016513289494	0
0	9899	1766.456588939066	1
0	9902	1766.710430677802	0
0	9908	1766.877939370715	1
0	9909	1767.200784844698	0
0	9915	1769.853968051125	1
0	9920	1770.765637955476	0
0	9932	1772.301061995637	1
0	9935	1773.013429449438	0
0	9993	1778.514516468487	1
0	9995	1778.68743028701	2
0	10002	1780.116576667532	1
0	10008	1780.393960119573	2
0	10010	1781.458798062447	1
0	10015	1782.089093929154	0
0	10022	1782.64495791285	1
0	10024	1783.648159138743	2
0	10026	1784.454953941727	3
0	10028	1784.590189082721	4
0	10031	1786.420543379953	3
0	10036	1786.603190663392	2
0	10041	1786.726878538639	1
0	10046	1786.934525100316	0
0	10052	1789.441878052129	1
0	10057	1790.970975950807	0
0	10061	1791.064030017691	1
0	10066	1792.091950831939	2
0	10069	1792.354334276874	3
0	10072	1792.878583500063	4
0	10074	1793.395390990628	5
0	10075	1793.579813466051	4
0	10081	1793.71960817179	3
0	10087	1795.111752394284	4
0	10088	1795.154104690813	3
0	10092	1796.034189121751	4
0	10094	1796.844445123088	5
0	10099	1797.461616003247	4
0	10104	1797.815693037273	3
0	10110	1797.898127079581	4
0	10115	1800.393646422192	3
0	10119	1801.137193626277	4
0	10121	1802.600242442728	5
0	10127	1805.229229453338	4
0	10134	1805.797848933378	3
0	10144	1810.077438230979	2
0	10150	1810.238221149586	1
0	10156	1811.151327198616	2
0	10160	1811.606216950233	3
0	10161	1812.230169796379	2
0	10166	1814.118218186227	1
0	10170	1814.779189172165	2
0	10172	1815.267288485959	3
0	10178	1816.943311809769	4
0	10179	1817.013840226122	3
0	10184	1817.381800292056	2
0	10192	1818.446438536386	3
0	10193	1818.522656757777	2
0	10200	1819.867257870729	1
0	10206	1820.512159622268	2
0	10211	1822.086031683362	1
0	10218	1824.60904669449	0
0	10224	1824.875300043314	1
0	10226	1824.931577839506	2
0	10227	1825.012176838621	1
0	10233	1827.068429875501	2
0	10234	1827.449576644154	1
0	10239	1827.742007770342	0
0	10262	1830.620105230531	1
0	10265	1831.725828248758	0
0	10276	1831.965771448574	1
0	10280	1832.276235403559	2
0	10281	1832.556314203441	1
0	10290	1833.904988006959	0
0	10302	1834.423694130143	1
0	10305	1835.580909465418	2
0	10307	1836.79240901671	1
0	10313	1836.843035668254	2
0	10315	1836.989886546566	3
0	10316	1837.026814874498	2
0	10320	1837.761874612457	3
0	10323	1840.052116335724	2
0	10328	1841.189248024705	1
0	10332	1841.743399281306	2
0	10334	1842.13952335283	3
0	10340	1845.225518474826	2
0	10346	1845.507172276578	3
0	10348	1845.912335291228	4
0	10349	1847.651550879456	3
0	10355	1849.257069109347	4
0	10358	1849.748773802036	3
0	10362	1849.844088422547	4
0	10365	1850.548441823706	3
0	10370	1852.293284673657	2
0	10375	1853.81020593903	1
0	10382	1854.347273365309	0
0	10409	1856.092186903002	1
0	10411	1856.3869576078	2
0	10413	1856.399485357342	3
0	10414	1856.908196182258	2
0	10421	1857.912985752309	3
0	10423	1858.642270168753	2
0	10433	1860.567078615978	3
0	10435	1861.111055838384	2
0	10441	1861.549255633063	3
0	10446	1863.538773147153	2
0	10451	1863.558700561045	1
0	10456	1863.621616876772	0
0	10489	1868.108453346725	1
0	10495	1869.096257400785	2
0	10496	1871.68084385186	1
0	10504	1872.511754716152	0
0	10513	1874.440087959225	1
0	10514	1875.04493942592	0
0	10542	1876.047345837659	1
0	10543	1876.338110423066	0
0	10576	1883.394170962541	1
0	10578	1884.847198860167	2
0	10580	1885.895897128459	3
0	10585	1887.641256786023	2
0	10590	1887.776825298923	1
0	10596	1889.036942490854	2
0	10599	1890.173000322524	1
0	10607	1890.922717620496	0
0	10618	1892.64897176019	1
0	10619	1893.326545178317	0
0	10638	1896.594126011466	1
0	10640	1896.831930523887	2
0	10644	1898.205651638253	3
0	10646	1898.781719132971	4
0	10650	1899.150199721843	5
0	10651	1899.95249432364	4
0	10658	1900.752060391762	3
0	10663	1900.942137097109	2
0	10668	1901.371427833708	1
0	10674	1902.236804256707	0
0	10686	1904.651529110399	1
0	10688	1907.312760524426	0
0	10710	1909.309528249065	1
0	10711	1909.555002156891	0
0	10726	1914.662182085446	1
0	10730	1915.102787160252	0
0	10741	1915.406445631633	1
0	10743	1915.585142495784	0
0	10755	1916.021037946564	1
0	10756	1916.145640969126	0
0	10762	1916.251158562226	1
0	10763	1916.41464699516	0
0	10767	1917.59612436711	1
0	10769	1918.153443431888	2
0	10773	1919.512379961405	3
0	10779	1923.214732948939	2
0	10783	1923.764131504683	3
0	10788	1924.671272882286	2
0	10797	1925.795431707297	3
0	10798	1925.983803914854	2
0	10802	1926.18017783343	3
0	10809	1930.404672983929	2
0	10815	1930.911435194137	3
0	10819	1931.240683354833	2
0	10832	1935.177471206522	1
0	10838	1935.367737278218	2
0	10840	1936.1970359036	1
0	10846	1936.700693654004	2
0	10847	1937.026951271142	1
0	10854	1937.305797843597	0
0	10860	1937.635995397297	1
0	10861	1938.453418871697	0
0	10874	1940.073568289346	1
0	10876	1941.093966284616	0
0	10896	1942.635378675882	1
0	10897	1942.766896036742	0
0	10903	1943.001008496404	1
0	10906	1944.221681269002	0
0	10915	1948.444660441614	1
0	10922	1949.451677345066	2
0	10925	1950.581658057604	1
0	10936	1952.691480907843	0
0	10977	1956.526467065791	1
0	10978	1956.597539128539	0
0	10988	1957.405050603451	1
0	10989	1957.447446661597	0
0	11002	1958.955767237396	1
0	11003	1959.037885791866	0
0	11028	1959.691641123264	1
0	11032	1960.611861299335	2
0	11035	1962.32004552711	1
0	11040	1962.604266762201	0
0	11046	1962.697123429402	1
0	11052	1963.172254867221	2
0	11053	1963.265849695741	1
0	11058	1963.333672626588	0
0	11091	1967.829090945554	1
0	11096	1969.54530547993	2
0	11099	1970.749496922432	1
0	11104	1971.318423563942	0
0	11115	1972.213327554438	1
0	11120	1973.39850861752	2
0	11121	1973.683705871286	1
0	11128	1976.084756701437	0
0	11179	1981.406273949896	1
0	11181	1981.966918347593	2
0	11183	1983.536071131945	1
0	11189	1983.931349880765	2
0	11191	1984.549971102424	1
0	11196	1984.870919940371	0
0	11217	1987.510651049934	1
0	11219	1990.186462593528	2
0	11222	1990.918851692186	1
0	11229	1992.300422507522	2
0	11231	1992.440572796551	3
0	11234	1993.166073025469	4
0	11236	1993.542704632146	5
0	11238	1995.184876418937	4
0	11243	1995.669274458517	3
0	11249	1996.672691359893	4
0	11250	1997.147857742253	3
0	11256	1998.801553643463	2
0	11267	2000.354397225192	1
0	11274	2000.653239096314	0
0	11281	2001.790505388429	1
0	11285	2002.695504967492	2
0	11286	2002.950155495943	1
0	11293	2003.475671828793	0
0	11325	2007.320643159883	1
0	11330	2011.628939429848	0
0	11339	2013.595992586971	1
0	11342	2014.652046405374	0
0	11353	2015.581349817397	1
0	11355	2015.623281097038	2
0	11362	2019.399456986699	1
0	11369	2020.198703656625	2
0	11370	2021.276723655991	1
0	11379	2024.615954570047	0
0	11385	2024.67196700738	1
0	11386	2024.927813835093	0
0	11392	2025.503903324147	1
0	11394	2025.555387486953	2
0	11395	2025.791464991615	1
0	11400	2026.057113832902	0
0	11412	2027.560435945284	1
0	11414	2028.229604097861	2
0	11416	2029.197052019404	1
0	11422	2029.980037274315	2
0	11423	2030.643004295134	1
0	11429	2033.84141995904	2
0	11434	2034.736178185427	3
0	11435	2034.860535084397	2
0	11444	2037.677789193951	1
0	11451	2040.174571350966	2
0	11453	2040.562526843639	3
0	11456	2041.831727380289	2
0	11461	2042.252284145676	1
0	11467	2044.18319351907	2
0	11469	2046.260347542662	3
0	11470	2046.826110916843	2
0	11475	2047.466770599905	1
0	11480	2048.301130789642	0
0	11486	2050.713966408742	1
0	11488	2051.668262060848	2
0	11491	2053.260737569171	1
0	11500	2054.293130227621	0
0	11526	2059.977784365312	1
0	11527	2062.278218654353	0
0	11538	2063.332834801985	1
0	11540	2063.455469891204	2
0	11542	2064.034983410983	1
0	11548	2064.417298086836	2
0	11549	2064.460122361674	1
0	11555	2064.822125870188	2
0	11558	2065.050132968496	3
0	11559	2065.065072018486	2
0	11565	2066.118498251002	3
0	11568	2067.457006657193	2
0	11573	2067.772546702332	1
0	11579	2067.919410374648	2
0	11580	2068.136633136817	1
0	11586	2069.854167142835	0
0	11609	2071.109863443251	1
0	11610	2071.335864493135	0
0	11630	2073.0311592075	1
0	11635	2074.419037197837	0
0	11641	2074.426654779119	1
0	11643	2074.431294770044	2
0	11645	2074.547312465142	1
0	11654	2077.841190979124	0
0	11662	2078.250802348623	1
0	11663	2078.931283141121	0
0	11667	2079.139487395854	1
0	11669	2080.860880171452	2
0	11671	2081.311406105201	3
0	11677	2085.616612093182	4
0	11679	2086.811001790659	5
0	11682	2087.394530311448	4
0	11692	2090.323127201881	5
0	11693	2090.590802328148	4
0	11698	2091.045127548537	3
0	11704	2094.133907110109	2
0	11710	2095.363312709864	3
0	11711	2095.585187615885	2
0	11717	2096.564277653622	3
0	11718	2096.676143350294	2
0	11722	2096.936953071569	3
0	11724	2097.520218203166	4
0	11728	2097.885965773857	5
0	11729	2098.160039896577	4
0	11733	2098.390774291182	5
0	11739	2099.935639160064	6
0	11742	2100.09431159555	5
0	11752	2102.302400828525	4
0	11757	2102.387134927156	3
0	11761	2104.443065927961	4
0	11764	2104.986363578289	3
0	11768	2106.271979425929	4
0	11770	2106.733088233533	5
0	11776	2109.194063228689	6
0	11780	2110.292382665131	7
0	11783	2113.665629411287	6
0	11787	2113.767490501598	7
0	11789	2114.598587464676	8
0	11792	2115.103132491588	7
0	11797	2116.126336555604	6
0	11803	2117.242582069251	5
0	11810	2117.493390848047	4
0	11815	2118.191581000592	3
0	11819	2121.012856194857	4
0	11823	2121.817224388368	5
0	11827	2123.454707441102	4
0	11833	2124.124225618259	3
0	11840	2124.52801142448	2
0	11846	2126.772973977565	3
0	11849	2126.997148693779	2
0	11855	2127.601064787189	3
0	11856	2127.814783698369	2
0	11865	2128.723501059957	1
0	11870	2129.982328365104	0
0	11881	2130.616566904456	1
0	11885	2131.21919204301	0
0	11896	2131.575891671897	1
0	11900	2133.329140879196	0
0	11906	2133.474962851318	1
0	11907	2133.487645743596	0
0	11920	2133.790304573961	1
0	11922	2134.713508447201	2
0	11923	2135.216101216204	1
0	11931	2136.42834961637	2
0	11932	2136.548367609345	1
0	11939	2137.644986927691	0
0	11945	2137.743722755617	1
0	11946	2138.441882468905	0
0	11967	2143.14821963118	1
0	11970	2143.853094359992	2
0	11971	2144.133234356789	1
0	11976	2144.255304460639	0
0	11982	2145.044424698402	1
0	11983	2145.145270762248	0
0	11987	2145.669874329433	1
0	11989	2147.346064911713	2
0	11993	2148.557889847678	3
0	12002	2151.706574547102	2
0	12008	2151.862060800482	3
0	12009	2152.174258776744	2
0	12014	2152.697646960765	1
0	12021	2153.130572342475	0
0	12025	2154.14011325785	1
0	12031	2155.536203906839	2
0	12033	2155.545092990829	3
0	12038	2158.20994641285	2
0	12043	2159.498698258373	1
0	12049	2159.828446100068	2
0	12051	2160.045285833076	3
0	12052	2161.648967538076	2
0	12057	2162.087256467111	1
0	12063	2162.846018445643	2
0	12064	2163.017396029918	1
0	12068	2163.179680355424	2
0	12076	2165.755802825917	1
0	12081	2166.204898450225	0
0	12092	2167.60141311244	1
0	12096	2168.316944490685	0
0	12119	2170.876005716321	1
0	12120	2171.741538865501	0
0	12133	2172.006557644437	1
0	12135	2172.106749212011	0
0	12141	2172.270024199949	1
0	12142	2173.197693604309	0
0	12148	2173.551202874133	1
0	12152	2174.295149563422	2
0	12153	2174.358270419144	1
0	12160	2175.389560989426	2
0	12161	2175.407830680338	1
0	12166	2175.501193368102	0
0	12172	2175.609673620189	1
0	12174	2177.111585571644	2
0	12177	2177.23887667757	1
0	12181	2177.759659559755	2
0	12186	2178.661543289443	1
0	12192	2180.216107390016	0
0	12213	2183.632381209523	1
0	12214	2183.681988483712	0
0	12222	2184.985659986184	1
0	12223	2186.86709252797	0
0	12227	2187.173873910086	1
0	12231	2188.510237339969	0
0	12243	2189.954528573882	1
0	12245	2190.945028031718	2
0	12246	2191.379717564061	1
0	12253	2191.878686923432	2
0	12254	2192.064320351161	1
0	12261	2192.85467768027	2
0	12264	2194.19309846097	1
0	12269	2194.870066457582	0
0	12275	2196.459202198347	1
0	12276	2196.484421841152	0
0	12299	2197.831654090247	1
0	12300	2198.272750168404	0
0	12329	2206.429803813506	1
0	12332	2208.326544878922	0
0	12356	2214.507436736141	1
0	12357	2215.256485052424	0
0	12378	2219.459671156979	1
0	12379	2219.51553717428	0
0	12385	2220.097342220666	1
0	12387	2220.207467550014	2
0	12388	2220.82260621098	1
0	12396	2222.149825696743	2
0	12398	2222.611403075309	1
0	12403	2223.372260451068	0
0	12409	2223.549298755763	1
0	12410	2223.795942022233	0
0	12425	2224.923599876749	1
0	12426	2225.125989836408	0
0	12438	2225.965092826547	1
0	12440	2226.718687045289	2
0	12442	2228.608964921407	1
0	12447	2229.849078482338	0
0	12465	2230.887871065441	1
0	12466	2231.393522014615	0
0	12470	2235.657467386748	1
0	12473	2235.915326840737	0
0	12477	2235.919241767731	1
0	12481	2237.23992372854	0
0	12487	2237.767653382613	1
0	12489	2237.998311082451	0
0	12517	2241.108117433992	1
0	12519	2242.975165588753	0
0	12532	2245.264676113975	1
0	12533	2245.514651895789	0
0	12544	2246.322863567262	1
0	12546	2246.91335795831	0
0	12554	2247.639410741282	1
0	12555	2248.027176144828	0
0	12562	2248.665714388603	1
0	12563	2248.792137365481	0
0	12592	2253.860278968921	1
0	12594	2254.737178182221	0
0	12608	2256.190390163239	1
0	12611	2257.22454577207	0
0	12633	2259.420351464439	1
0	12641	2261.766338235943	2
0	12642	2262.062505967003	1
0	12648	2262.599788462886	0
0	12712	2271.280566381063	1
0	12714	2271.361939497832	2
0	12718	2272.586236771128	3
0	12724	2273.549949164385	2
0	12730	2273.762800943306	3
0	12731	2273.851902322263	2
0	12736	2274.171862552139	1
0	12744	2274.533197551765	0
0	12776	2279.686774662479	1
0	12778	2279.919957183439	2
0	12782	2280.989100753558	3
0	12784	2281.82373385247	2
0	12790	2282.248699852363	3
0	12791	2282.357612643607	2
0	12797	2283.147582124673	1
0	12802	2283.206681379596	0
0	12823	2284.887416611283	1
0	12827	2285.675182808664	0
0	12835	2286.518243285797	1
0	12836	2286.714518056159	0
0	12855	2289.839152274443	1
0	12859	2290.420489668638	0
0	12889	2294.415359044509	1
0	12895	2295.705266530607	2
0	12897	2296.198288433268	3
0	12902	2298.550589748651	4
0	12903	2298.560936373205	3
0	12912	2299.719446467163	2
0	12917	2299.810047394233	1
0	12923	2300.003893552105	2
0	12926	2300.879357329694	1
0	12934	2302.630591751241	0
0	12951	2304.174523691978	1
0	12953	2304.52295064871	2
0	12954	2305.120992764991	1
0	12959	2305.27495194818	0
0	12987	2307.598439241544	1
0	12989	2308.34995072528	2
0	12992	2309.664428385581	1
0	12997	2310.259917831907	0
0	13003	2310.902871137606	1
0	13004	2311.670227813402	0
0	13025	2315.248399274601	1
0	13027	2317.161889334432	2
0	13028	2317.294886405758	1
0	13034	2317.961468271115	0
0	13057	2322.519756107337	1
0	13058	2323.675877857254	0
0	13067	2325.985986319391	1
0	13072	2328.480289594398	0
0	13083	2329.178510121768	1
0	13085	2330.513761242433	0
0	13091	2330.902157490727	1
0	13095	2331.91044979115	0
0	13101	2331.979218620402	1
0	13102	2332.128373133863	0
0	13121	2336.489361785061	1
0	13125	2337.134064187002	0
0	13153	2339.603190161802	1
0	13155	2340.138687762689	0
0	13167	2343.689296143002	1
0	13169	2344.154969254525	0
0	13176	2344.439356920209	1
0	13180	2346.1340536441	0
0	13188	2346.454437827235	1
0	13189	2346.657473951109	0
0	13222	2349.595021533053	1
0	13225	2349.98262498881	0
0	13231	2350.282349930827	1
0	13237	2351.418978253213	2
0	13240	2351.610257070009	3
0	13243	2352.109295401691	2
0	13249	2352.404158857062	3
0	13252	2352.491651808578	2
0	13260	2353.538258114125	1
0	13265	2355.484672955878	0
0	13278	2357.940527698885	1
0	13280	2357.99502541321	2
0	13282	2358.0354397686	3
0	13284	2358.479430419342	4
0	13285	2358.530587931988	3
0	13289	2362.012332769236	4
0	13292	2363.639022223027	3
0	13297	2365.322433577023	2
0	13306	2366.543450707339	3
0	13309	2367.437022007635	4
0	13310	2367.713540808813	3
0	13316	2367.917188762477	2
0	13321	2368.020322335716	1
0	13327	2368.879172691661	2
0	13329	2369.258116207175	3
0	13332	2370.067603103206	2
0	13338	2370.58625406592	3
0	13341	2371.746128845833	2
0	13345	2372.543897917292	3
0	13350	2375.141717124146	4
0	13354	2376.141221561019	3
0	13361	2377.993275515446	4
0	13362	2378.143965479971	3
0	13367	2378.218112542061	2
0	13374	2380.010469281979	3
0	13376	2380.725963838212	4
0	13379	2381.538065688242	3
0	13386	2381.925587685541	2
0	13391	2381.993855458431	1
0	13396	2382.620456256112	0
0	13402	2386.465929848515	1
0	13403	2386.549770240667	0
0	13409	2387.202844657651	1
0	13410	2387.371619425686	0
0	13432	2388.853699675666	1
0	13433	2388.854335415646	0
0	13448	2390.276692238961	1
0	13451	2390.80554527895	0
0	13458	2391.463287657014	1
0	13459	2391.913011976483	0
0	13482	2395.588098978111	1
0	13487	2397.641068607422	2
0	13490	2399.695414947928	1
0	13496	2400.231092271805	0
0	13514	2402.915667720959	1
0	13516	2403.52860591252	2
0	13517	2403.710851261846	1
0	13522	2403.854374219308	0
0	13533	2405.558019663791	1
0	13534	2405.892696967259	0
0	13547	2408.205452252754	1
0	13551	2409.081823677608	2
0	13552	2409.631090736718	1
0	13557	2409.773330765974	0
0	13572	2411.548393357414	1
0	13573	2411.633459300818	0
0	13588	2413.059719417525	1
0	13591	2413.767392913719	0
0	13597	2414.046663974659	1
0	13598	2414.67152755209	0
0	13620	2416.761183621812	1
0	13622	2418.692744256347	2
0	13623	2419.793622729421	1
0	13629	2419.82536915381	2
0	13635	2421.782037085676	1
0	13641	2422.346374705496	2
0	13643	2423.681250859882	1
0	13648	2424.075728625122	0
0	13659	2425.765512197678	1
0	13660	2425.798181755661	0
0	13666	2426.470306851102	1
0	13668	2426.678851542891	2
0	13671	2427.194553321844	3
0	13672	2427.31720143956	2
0	13676	2427.630404659726	3
0	13678	2427.957873827273	4
0	13680	2428.221319094457	5
0	13683	2429.035849997794	4
0	13694	2429.914025416398	3
0	13702	2432.313090550496	4
0	13705	2432.369853991486	3
0	13709	2432.766678933325	4
0	13713	2433.00470727232	5
0	13715	2433.433524145618	6
0	13716	2433.575208855955	5
0	13720	2433.838096095167	6
0	13723	2434.112123162238	5
0	13727	2434.393940276388	6
0	13731	2435.023001666305	7
0	13732	2435.792651756747	6
0	13741	2437.652699219037	5
0	13748	2438.021120526985	4
0	13752	2438.279199315963	5
0	13757	2440.56428899251	4
0	13761	2441.065822292376	5
0	13766	2442.203788922951	6
0	13767	2442.759587934712	5
0	13772	2442.878385943704	4
0	13776	2443.629657386743	5
0	13778	2443.787243690568	6
0	13780	2444.506363287243	7
0	13783	2445.012145282716	6
0	13787	2445.915196377261	7
0	13793	2446.727874646384	8
0	13796	2448.82919625292	7
0	13802	2449.457915008911	6
0	13808	2449.945107476503	7
0	13809	2450.959754747877	6
0	13815	2451.796825178423	5
0	13820	2452.37875225979	4
0	13824	2452.902727924424	5
0	13833	2453.852418644502	4
0	13837	2453.879815217247	5
0	13839	2454.056581917454	6
0	13841	2455.068312511395	7
0	13847	2456.077814329872	6
0	13853	2456.112352045845	7
0	13855	2456.304651584675	6
0	13860	2456.397419633306	5
0	13864	2456.570413734006	6
0	13868	2458.077423185946	7
0	13869	2458.127551971212	6
0	13873	2458.468214853867	7
0	13875	2458.513691830338	8
0	13879	2459.249235436253	9
0	13882	2460.09884759137	8
0	13888	2461.061695767912	7
0	13893	2461.076262982605	6
0	13901	2461.46658614539	7
0	13903	2462.433987059847	6
0	13908	2463.041717423521	5
0	13915	2465.188785097081	6
0	13916	2465.289413167968	5
0	13921	2466.684131958199	4
0	13925	2466.714474642194	5
0	13929	2467.687147454641	6
0	13931	2468.30194231926	5
0	13936	2470.468058727781	4
0	13940	2470.532652329622	5
0	13944	2471.99396083812	4
0	13950	2472.035797061586	5
0	13951	2472.878460669104	4
0	13957	2473.313480007578	3
0	13962	2474.179873588826	2
0	13970	2475.98846036062	3
0	13973	2476.741156492997	2
0	13978	2476.931231317799	1
0	13983	2477.006441791877	0
0	13991	2477.565927121312	1
0	13993	2477.753863301725	0
0	14032	2483.888511339839	1
0	14034	2484.073485182208	2
0	14035	2484.191876075477	1
0	14040	2484.635261948168	0
0	14103	2500.080217784743	1
0	14104	2500.251724669742	0
0	14113	2502.568520742942	1
0	14114	2502.857335967782	0
0	14130	2503.750170288713	1
0	14131	2504.238840487573	0
0	14161	2507.349285727526	1
0	14163	2508.150476731598	2
0	14165	2508.700985216481	3
0	14170	2511.000702827126	2
0	14176	2511.027885326462	3
0	14177	2511.166316510069	2
0	14182	2511.288664139841	1
0	14187	2511.354815916338	0
0	14200	2514.087317663811	1
0	14201	2515.223680358726	0
0	14212	2515.506725223723	1
0	14216	2517.71460170429	2
0	14218	2519.600193827899	1
0	14223	2519.744715686505	0
0	14251	2524.265207225154	1
0	14253	2524.337720608746	2
0	14257	2524.669136119524	1
0	14262	2524.899456294658	0
0	14270	2525.594726256913	1
0	14273	2526.187000195646	2
0	14274	2526.959239212153	1
0	14280	2527.528669681411	0
0	14304	2528.817347748412	1
0	14308	2529.348391136479	2
0	14310	2529.581571651916	1
0	14315	2529.66350427004	0
0	14321	2530.306293081126	1
0	14323	2530.696276804933	0
0	14334	2532.521828364149	1
0	14336	2532.809974044565	2
0	14337	2532.863637685504	1
0	14344	2533.63923656957	0
0	14348	2533.695555999293	1
0	14351	2533.961437878652	0
0	14357	2535.16815980008	1
0	14358	2535.195386645253	0
0	14365	2536.197124908327	1
0	14367	2537.453853050637	0
0	14394	2542.117526246757	1
0	14396	2542.80230737885	2
0	14397	2543.502655180444	1
0	14402	2544.412535666705	0
0	14408	2545.491714757795	1
0	14410	2545.820592645661	0
0	14423	2547.620372119001	1
0	14427	2548.905723153468	0
0	14444	2551.31630470742	1
0	14447	2552.725408963797	0
0	14470	2554.150718210093	1
0	14471	2554.474102791849	0
0	14499	2557.572830844263	1
0	14503	2559.236881772212	2
0	14505	2559.64338870391	3
0	14507	2560.490120265745	4
0	14510	2561.080853591196	3
0	14515	2561.135360650849	2
0	14520	2562.048688239302	1
0	14527	2562.479262727556	0
0	14534	2563.392633193645	1
0	14536	2563.411023002367	2
0	14538	2565.413713589862	1
0	14545	2566.475141281546	2
0	14547	2567.730076171258	3
0	14549	2567.745165347705	4
0	14550	2567.867302736961	3
0	14556	2567.909492352266	4
0	14557	2568.110266083429	3
0	14565	2569.012130678162	4
0	14567	2569.16691624849	3
0	14573	2569.538292405988	2
0	14582	2570.357479418832	3
0	14584	2571.901517528365	2
0	14590	2572.155887910951	1
0	14595	2572.590599926386	0
0	14607	2573.644959513701	1
0	14608	2573.658477661571	0
0	14622	2574.593567223187	1
0	14623	2574.857810933187	0
0	14627	2574.860980964234	1
0	14630	2576.08249357012	0
0	14644	2579.54463588983	1
0	14645	2580.634195804373	0
0	14683	2586.509801988764	1
0	14692	2590.378250894166	2
0	14693	2590.501671801696	1
0	14700	2591.589068817974	0
0	14723	2593.519004664635	1
0	14724	2593.739039323221	0
0	14730	2593.902268298853	1
0	14732	2594.18750072603	0
0	14750	2595.830936767766	1
0	14751	2596.153564095332	0
0	14764	2596.670430361068	1
0	14765	2597.694412394961	0
0	14772	2597.852950858322	1
0	14775	2598.212811588647	0
0	14807	2603.045818910234	1
0	14809	2603.711446945145	2
0	14813	2604.06091899258	3
0	14815	2604.383406890434	4
0	14819	2606.869626497738	5
0	14820	2606.976580053745	4
0	14826	2607.849417942895	3
0	14831	2608.167882581525	2
0	14839	2609.045288777376	3
0	14841	2609.084607822823	4
0	14843	2609.794556375655	3
0	14851	2610.48175686967	4
0	14854	2611.763852461389	3
0	14859	2611.812134247841	2
0	14864	2612.251075614381	1
0	14868	2613.005040371525	2
0	14871	2613.348803178584	1
0	14875	2614.92377947381	2
0	14883	2618.001777900139	1
0	14888	2618.618349350246	0
0	14895	2619.606061231636	1
0	14896	2619.67176462625	0
0	14909	2622.543288336587	1
0	14910	2623.453506244449	0
0	14930	2626.632799430052	1
0	14933	2626.827086360138	2
0	14937	2627.608918291709	1
0	14942	2627.613092951923	0
0	14955	2629.637425579655	1
0	14956	2630.148510434277	0
0	14978	2634.955918829748	1
0	14982	2636.695409156809	0
0	15027	2643.625481704013	1
0	15031	2644.728274556369	2
0	15034	2646.174059429952	1
0	15040	2646.417663002067	0
0	15061	2649.79712577524	1
0	15064	2650.163401090015	0
0	15070	2650.478507441541	1
0	15072	2652.255152199753	0
0	15085	2654.220623692125	1
0	15086	2654.541576062753	0
0	15092	2654.875066784852	1
0	15094	2656.015981972339	0
0	15119	2658.721509341619	1
0	15120	2659.647218733944	0
0	15126	2660.253247521368	1
0	15132	2662.111481181798	0
0	15140	2663.186702172474	1
0	15141	2663.656835211361	0
0	15158	2665.725836336108	1
0	15160	2665.730119110206	2
0	15161	2665.817325839764	1
0	15166	2666.652644481088	0
0	15178	2667.187154853646	1
0	15181	2667.914769611095	2
0	15184	2669.733065012946	3
0	15185	2669.988690233031	2
0	15191	2670.09596575016	1
0	15196	2670.169501601972	0
0	15225	2672.000607749132	1
0	15228	2672.763529640398	0
0	15240	2674.919775942075	1
0	15241	2675.338993844108	0
0	15245	2675.512643638809	1
0	15247	2676.333345212665	2
0	15251	2676.893160310429	1
0	15256	2677.163648330846	0
0	15277	2679.581610563796	1
0	15286	2681.127367908601	2
0	15287	2681.395695684124	1
0	15292	2681.51113989311	0
0	15305	2682.417865496614	1
0	15308	2682.89131464121	2
0	15315	2686.523722544085	3
0	15317	2686.575433584441	4
0	15318	2686.664364328596	3
0	15325	2686.94914667345	4
0	15326	2687.144734710267	3
0	15331	2687.144973794142	2
0	15339	2688.57945407308	1
0	15345	2688.964879155494	2
0	15346	2689.048487547947	1
0	15351	2689.160494258136	0
0	15365	2692.620049607817	1
0	15368	2695.370581410841	2
0	15369	2696.967125435121	1
0	15375	2697.061977653949	2
0	15376	2697.349717708717	1
0	15383	2697.967046033198	2
0	15385	2698.166537578275	3
0	15388	2699.230232882328	2
0	15393	2699.858636227503	1
0	15398	2700.44977457513	0
0	15431	2705.836469028609	1
0	15435	2707.770976238802	0
0	15456	2711.502770116742	1
0	15457	2711.921656071831	0
0	15463	2712.044447172514	1
0	15464	2712.694820338581	0
0	15470	2713.321046330008	1
0	15475	2715.43862186226	0
0	15479	2716.764916415719	1
0	15482	2717.31885575621	0
0	15486	2718.403147331825	1
0	15488	2718.796072574905	2
0	15490	2718.860140149599	3
0	15494	2719.646286305197	2
0	15499	2719.844232121245	1
0	15507	2722.028062709537	2
0	15510	2722.570406902282	1
0	15517	2723.589844240711	0
0	15523	2723.811505325768	1
0	15527	2725.401062172375	2
0	15528	2725.572341572744	1
0	15532	2725.576685537708	2
0	15535	2727.432280570118	1
0	15541	2729.051753247576	2
0	15542	2729.661414139757	1
0	15549	2730.985026577144	2
0	15550	2732.32087833564	1
0	15555	2732.988645207297	0
0	15590	2736.511873869481	1
0	15593	2736.963014899612	0
0	15600	2737.01882442119	1
0	15602	2738.043691039582	0
0	15640	2743.138232423061	1
0	15642	2743.390455834893	2
0	15644	2743.888405567963	3
0	15649	2746.452020827735	4
0	15650	2747.76900431028	3
0	15656	2748.614527218938	2
0	15664	2750.722127492948	3
0	15667	2750.997360943863	4
0	15669	2751.611702812127	3
0	15675	2752.454667631006	2
0	15680	2753.583385467341	1
0	15686	2753.698814176255	2
0	15688	2754.034866288522	3
0	15690	2754.309298995534	4
0	15692	2754.990933995881	5
0	15693	2755.564665366411	4
0	15699	2755.880132755954	5
0	15700	2756.363217362387	4
0	15706	2756.758649442499	5
0	15708	2757.430279347578	6
0	15709	2757.78756132961	5
0	15714	2758.271664282079	4
0	15719	2758.630849373686	3
0	15724	2758.956891243607	2
0	15728	2759.213637863603	3
0	15731	2761.343217896318	2
0	15739	2763.664979644904	3
0	15743	2764.86701525277	4
0	15748	2766.206122624624	5
0	15749	2766.459295499766	4
0	15756	2766.924217751846	5
0	15757	2767.452413285347	4
0	15762	2767.57627441189	3
0	15766	2768.567874266347	4
0	15770	2769.195339145501	5
0	15774	2771.751003675683	6
0	15777	2772.961914964256	5
0	15787	2773.933863858837	6
0	15788	2774.162340173542	5
0	15792	2775.037828134183	6
0	15794	2775.125686202102	7
0	15796	2775.69741603547	8
0	15798	2775.893692794108	9
0	15801	2776.513186615339	8
0	15805	2776.53467607923	9
0	15811	2776.974199995576	10
0	15814	2777.589191366903	9
0	15821	2779.897464663377	8
0	15825	2779.964564090875	9
0	15827	2779.98288976481	10
0	15830	2780.290622809147	9
0	15834	2781.248840763344	10
0	15840	2782.537944380045	11
0	15843	2782.650499202224	12
0	15847	2782.837186921926	13
0	15848	2784.216607057173	12
0	15853	2784.711406307189	11
0	15857	2784.914926247401	12
0	15859	2785.364211332196	13
0	15863	2787.616921370471	14
0	15870	2788.708884132037	15
0	15871	2789.236748070966	14
0	15878	2790.619123678055	13
0	15882	2791.003293453288	14
0	15884	2792.52899144914	15
0	15888	2794.822814481131	16
0	15891	2796.304373580837	15
0	15896	2796.519539193979	14
0	15903	2797.987585382353	13
0	15908	2798.260076499981	12
0	15912	2798.597600420052	13
0	15919	2799.931958934616	12
0	15925	2800.321875347335	13
0	15927	2801.368815072844	14
0	15929	2802.985196421199	15
0	15930	2803.168527820815	14
0	15935	2805.639976630349	13
0	15939	2805.972766175013	14
0	15943	2806.281668656269	15
0	15950	2808.572847096786	14
0	15955	2808.636525641776	13
0	15960	2808.918684753929	12
0	15964	2810.312954763001	13
0	15970	2810.708293855717	14
0	15972	2811.421625900332	15
0	15975	2812.146377252849	14
0	15981	2813.329958018897	15
0	15982	2813.637415364231	14
0	15986	2815.335999148356	15
0	15989	2815.93649984967	14
0	15993	2816.046169273445	15
0	16000	2818.110367364259	14
0	16005	2818.468347172838	13
0	16012	2820.740303218127	12
0	16017	2821.163596843859	11
0	16023	2821.249800252034	12
0	16024	2821.614060323581	11
0	16028	2822.115258451632	12
0	16032	2822.677822536498	13
0	16033	2822.968933935293	12
0	16037	2823.984615015421	13
0	16039	2824.585134702457	14
0	16041	2824.855786351429	15
0	16046	2825.033260838044	16
0	16048	2825.270952499195	17
0	16049	2825.858426246273	16
0	16055	2827.704667639503	15
0	16060	2828.54490132605	14
0	16066	2829.722283505135	15
0	16072	2832.755871786398	14
0	16077	2833.568562239584	13
0	16084	2834.910751196359	12
0	16089	2835.042854910622	11
0	16095	2835.054195522836	12
0	16096	2836.515478931047	11
0	16100	2837.094545820874	12
0	16102	2837.407979162615	13
0	16104	2837.744532324719	14
0	16110	2839.294466878503	13
0	16115	2839.415735497048	12
0	16121	2839.881323448766	11
0	16126	2840.032347474161	10
0	16135	2842.340515206047	9
0	16143	2843.164360033628	8
0	16149	2844.881528911894	7
0	16154	2845.562559347795	6
0	16160	2845.954248920228	5
0	16165	2846.274885707518	4
0	16169	2846.323977001173	5
0	16172	2848.692457593969	4
0	16177	2848.731737008953	3
0	16183	2848.987106501232	4
0	16189	2850.573191400287	3
0	16197	2852.37275098596	2
0	16202	2852.659827219344	1
0	16209	2855.040999796381	0
0	16215	2855.503667123041	1
0	16218	2858.267135721125	0
0	16222	2859.134929035212	1
0	16231	2862.078627816871	0
0	16242	2863.12270002679	1
0	16244	2863.518430170543	2
0	16246	2863.696542311327	3
0	16247	2863.740625197135	2
0	16252	2863.798657378417	1
0	16257	2864.25375101315	0
0	16287	2867.324821541578	1
0	16288	2867.613840583	0
0	16292	2868.201656918391	1
0	16294	2868.46983017552	2
0	16297	2869.327148678218	1
0	16304	2870.343115625132	0
0	16317	2871.979479043724	1
0	16318	2872.030763508869	0
0	16330	2872.77716607303	1
0	16333	2873.830305979758	0
0	16346	2877.155749346493	1
0	16351	2877.86034073094	0
0	16360	2878.329583291296	1
0	16362	2878.622921474738	2
0	16366	2879.937385203968	1
0	16372	2880.241586932259	0
0	16376	2880.87224229757	1
0	16378	2881.047272921808	2
0	16381	2882.10251591954	1
0	16386	2882.781027402355	0
0	16445	2893.341051713736	1
0	16449	2894.182373272281	0
0	16460	2894.932403615226	1
0	16464	2896.309905659885	0
0	16509	2901.51206758708	1
0	16510	2901.802010755738	0
0	16522	2902.116150761968	1
0	16523	2902.166141879752	0
0	16530	2902.423367531597	1
0	16534	2903.074134484727	2
0	16535	2904.115145864775	1
0	16540	2904.163446088886	0
0	16559	2907.634728465779	1
0	16561	2907.64615803769	2
0	16563	2908.028601775265	3
0	16564	2909.17519243334	2
0	16570	2909.48754609422	3
0	16572	2909.753758290812	4
0	16573	2909.901232930255	3
0	16579	2910.131301688349	4
0	16581	2910.829513276684	5
0	16582	2911.555212319782	4
0	16587	2911.662586236214	3
0	16594	2912.103451515295	2
0	16599	2912.633216008559	1
0	16606	2913.312244107647	2
0	16609	2913.813415907655	1
0	16614	2913.961046727027	0
0	16618	2914.206896715068	1
0	16621	2914.412401942409	0
0	16625	2915.175284606531	1
0	16627	2917.239855460967	2
0	16630	2917.824315880462	1
0	16635	2918.280466344241	0
0	16656	2921.571898883144	1
0	16658	2922.555952980764	2
0	16663	2924.618851707265	1
0	16668	2926.501166266276	0
0	16676	2926.692657936301	1
0	16679	2927.234914183281	2
0	16681	2928.227727061557	1
0	16687	2929.16244494587	0
0	16698	2930.593153593307	1
0	16700	2931.064973895565	2
0	16701	2931.728982397201	1
0	16709	2931.96061825843	2
0	16715	2933.399007533862	1
0	16721	2933.681057916819	2
0	16725	2934.146007635592	3
0	16727	2934.321278496678	4
0	16729	2934.493403104858	5
0	16730	2934.768909747421	4
0	16735	2934.861205296337	3
0	16743	2936.241583085843	4
0	16746	2936.756349165669	3
0	16753	2937.81085065239	2
0	16758	2938.21502319121	1
0	16764	2938.896398839386	2
0	16767	2939.705753755507	1
0	16774	2940.817060879045	2
0	16775	2940.913430018336	1
0	16783	2943.049834025326	0
0	16801	2944.11908696569	1
0	16802	2944.60827071616	0
0	16819	2947.313609991979	1
0	16823	2948.534005744402	2
0	16825	2948.92297289076	1
0	16831	2949.309501360989	2
0	16834	2950.1070310275	3
0	16835	2950.627823327278	2
0	16841	2951.485649644656	3
0	16843	2951.952765018992	2
0	16848	2951.999632820753	1
0	16853	2953.558002828058	0
0	16867	2954.867700049459	1
0	16869	2955.89416162489	2
0	16870	2955.942045218697	1
0	16877	2957.027978621288	2
0	16879	2957.031560148217	3
0	16880	2957.528999809705	2
0	16886	2957.581937729845	3
0	16887	2957.892317646737	2
0	16892	2957.917116219724	1
0	16896	2959.105817304358	2
0	16898	2959.835587029834	3
0	16902	2960.707731118103	4
0	16904	2960.796601274637	5
0	16906	2962.191658301115	4
0	16911	2962.239199038735	3
0	16920	2965.675457378366	2
0	16925	2966.023280054898	1
0	16932	2966.834793715959	0
0	16962	2969.992382038538	1
0	16964	2970.061803986614	2
0	16967	2972.318514037688	3
0	16968	2972.690233516162	2
0	16975	2973.345045212429	1
0	16982	2974.594288602324	0
0	16999	2976.980777874528	1
0	17000	2977.277737042688	0
0	17015	2978.230888852957	1
0	17016	2978.243753637496	0
0	17022	2978.319896975026	1
0	17029	2979.461751448079	2
0	17031	2979.523175713304	1
0	17038	2980.981319770744	0
0	17060	2982.227789180851	1
0	17062	2982.86493833165	2
0	17063	2983.504929700511	1
0	17069	2983.645252929335	0
0	17086	2986.795610345309	1
0	17090	2987.167153057046	0
0	17109	2988.729094016953	1
0	17110	2988.799963758362	0
0	17119	2989.053684620823	1
0	17121	2989.500832765037	2
0	17123	2989.669092745628	3
0	17127	2991.763437652225	2
0	17132	2991.907814656446	1
0	17137	2992.153860813449	0
0	17157	2994.568050866638	1
0	17159	2994.581304243686	2
0	17163	2996.28043331386	3
0	17165	2996.439769332096	4
0	17167	2997.490191974787	5
0	17171	2998.23120417192	6
0	17177	2999.741479434718	5
0	17183	2999.885406830282	6
0	17184	2999.920010824332	5
0	17189	3000.019376459278	4
0	17195	3000.275244876029	5
0	17198	3000.636189047594	6
0	17199	3000.835316409312	5
0	17208	3002.426500281325	4
0	17215	3003.553366788744	3
0	17224	3005.540322838847	2
0	17228	3005.890184103751	3
0	17231	3006.989410193357	2
0	17239	3007.827250941378	3
0	17240	3009.198837781362	2
0	17245	3009.392879678479	1
0	17250	3010.211304221711	0
0	17254	3010.592384044455	1
0	17263	3012.40702871354	0
0	17280	3017.496487734888	1
0	17282	3018.200431301751	2
0	17283	3018.720796536049	1
0	17288	3019.031847916744	0
0	17292	3019.298862244085	1
0	17295	3019.853431001361	0
0	17305	3020.802079395989	1
0	17306	3020.823448330703	0
0	17339	3024.753470316477	1
0	17340	3024.929940890057	0
0	17385	3030.855309862377	1
0	17387	3031.087765219665	2
0	17389	3032.532296218843	3
0	17393	3033.204617730495	4
0	17395	3033.447887693419	5
0	17396	3034.528936005451	4
0	17401	3035.453290271443	3
0	17407	3036.041302929442	2
0	17415	3037.278294259795	3
0	17416	3037.310014760357	2
0	17422	3037.663725970687	1
0	17427	3038.228854386555	0
0	17433	3039.932233414901	1
0	17439	3042.391767384247	0
0	17465	3045.377729654344	1
0	17469	3045.902795709416	2
0	17471	3050.137504934779	3
0	17477	3051.421582080295	4
0	17478	3051.615023527547	3
0	17485	3052.637629198094	2
0	17491	3053.129903423591	3
0	17493	3053.907418048268	2
0	17497	3053.930964802885	3
0	17499	3055.040689908853	4
0	17504	3055.293657657672	5
0	17508	3057.402521042404	4
0	17514	3057.405097385276	5
0	17515	3057.544759107798	4
0	17521	3058.535782001532	3
0	17527	3059.13811221613	4
0	17529	3060.071270214648	3
0	17533	3060.72160865189	4
0	17540	3063.105980794058	3
0	17544	3063.908040080929	4
0	17546	3064.38881482475	5
0	17551	3066.400044161944	4
0	17559	3068.996743676604	5
0	17562	3069.838354420957	4
0	17566	3070.589964297312	5
0	17570	3071.837838494155	4
0	17575	3071.846091875952	3
0	17580	3072.649232139379	2
0	17584	3073.055915883159	3
0	17586	3073.201680538545	4
0	17589	3074.166555802456	3
0	17593	3074.196737974501	4
0	17595	3074.378307462333	5
0	17597	3074.690974237516	6
0	17599	3074.751440390552	7
0	17603	3075.621253716506	6
0	17608	3076.173585097811	5
0	17615	3077.003488937625	6
0	17617	3077.620190539642	7
0	17621	3078.440926107428	8
0	17623	3078.786761518071	9
0	17624	3079.464486891381	8
0	17630	3079.498777763174	9
0	17632	3079.981526648694	10
0	17633	3080.110700837381	9
0	17638	3080.467321529996	8
0	17647	3084.91513536107	9
0	17648	3087.019023927926	8
0	17653	3087.063084846213	7
0	17659	3087.401541759312	8
0	17660	3089.592545742354	7
0	17665	3090.602059451979	6
0	17669	3092.738364870062	7
0	17671	3092.948892966723	8
0	17676	3093.529681487691	7
0	17681	3093.921208002662	6
0	17686	3094.07891440874	5
0	17690	3094.374544033734	6
0	17693	3094.894330908982	5
0	17698	3096.388837883094	4
0	17704	3097.387596629977	3
0	17711	3097.549780333945	4
0	17712	3098.718505610198	3
0	17719	3101.801355152661	2
0	17724	3103.06402882124	1
0	17730	3104.429695492626	2
0	17731	3105.916133840479	1
0	17737	3106.629044886622	2
0	17739	3108.692516611949	3
0	17741	3109.051746173182	4
0	17742	3109.454012927069	3
0	17749	3111.689537854463	2
0	17755	3112.183333312342	3
0	17756	3113.326260881768	2
0	17760	3113.376317934028	3
0	17764	3114.623013754192	4
0	17765	3114.970785897613	3
0	17771	3115.325076387218	4
0	17772	3115.337485923866	3
0	17778	3116.52530687413	2
0	17783	3116.913299987255	1
0	17788	3118.477675855048	0
0	17833	3121.953257433795	1
0	17840	3127.705570737143	0
0	17853	3128.643965092408	1
[...]
4	160373	28151.926598660349	3.415440945684
4	160399	28155.085527179437	0.003722929082
4	160408	28160.206105180062	1.652449788474
4	160437	28165.396852974181	0.999738962799
4	160443	28165.797257921911	0.655143076755
4	160459	28172.608998905608	0.646967210231
4	160471	28175.556075457367	2.613311761843
4	160496	28177.718099477867	1.947617079184
4	160505	28178.269090500376	1.881131200584
4	160523	28182.087986357614	0.434084502349
4	160562	28190.177826878721	2.978068076743
4	160621	28203.285771139029	6.224697757802
4	160639	28204.488323889498	6.740372708941
4	160737	28227.498319792305	26.206251243178
4	160796	28238.821851016319	31.062761711909
4	160803	28239.42786961597	28.186221482015
4	160866	28257.73645449308	38.818803085998
4	160873	28257.871440797453	28.775203944533
4	160912	28263.736782205923	33.471395521257
4	160917	28264.119754226332	30.669126952975
4	160921	28265.247167647628	29.149364088056
4	160930	28267.20685424511	0.921495688013
4	160978	28280.177985203822	9.056828072182
4	160995	28281.052688067826	9.389705810339
4	161000	28281.441667202666	2.480666440329
4	161047	28293.02535107797	1.88619343817
4	161051	28294.065999054796	2.693376031371
4	161089	28302.479909761609	1.869652922462
4	161114	28306.704140235348	4.296561913632
4	161138	28317.732344892924	1.647395216993
4	161143	28318.918674709805	2.829875951381
4	161150	28319.813637127361	0.671945011999
4	161167	28325.461349445027	2.173373623046
4	161180	28325.937550625732	0.562440285068
4	161203	28330.165632322291	0.747464821145
4	161218	28336.465362569286	0.394645528548
4	161236	28337.730480774799	0.721116069484
4	161340	28354.868327105431	17.537266399559
4	161369	28359.471063074359	21.741981573072
4	161374	28360.030128349766	20.254647683132
4	161380	28360.784404196667	18.192510850717
4	161386	28361.898410586667	17.766615367328
4	161394	28363.083254111783	16.709620062371
4	161405	28364.184397764932	16.503243467561
4	161419	28365.44510194527	14.301592801133
4	161440	28369.139334961711	15.938254480999
4	161444	28369.559576279397	2.556626768518
4	161455	28372.488552777545	1.519792644977
4	161481	28375.670219047778	1.903890917317
4	161486	28375.885925890084	1.874288884342
4	161490	28375.902137104511	1.882453056887
4	161508	28380.404368559078	0.710561634174
4	161518	28386.145773005707	0.150121228065
4	161533	28389.198807714746	1.037304984317
4	161542	28390.458665442552	0.313102202584
4	161549	28391.498149929943	0.364631085555
4	161566	28398.816699943859	0.134438197936
4	161597	28403.269700373575	3.003245875693
4	161740	28428.197991254074	26.172371909674
4	161753	28430.06421398874	24.208866158753
4	161806	28441.118152026842	28.955018381526
4	161821	28444.38660127637	32.197610415933
4	161839	28445.929540889348	25.788780834629
4	161855	28447.993640830893	27.134488159316
4	161863	28450.067501921303	22.354694909826
4	161877	28451.552182858214	18.015764758006
4	161897	28452.86474154242	13.116382262233
4	161904	28453.189791461748	11.799578318614
4	161915	28453.686485262814	8.752507350491
4	161924	28458.525969454203	12.375918702093
4	161948	28463.657701314839	16.693376005335
4	161955	28464.324572178337	12.624543602572
4	161960	28464.959307719907	6.165315796269
4	161979	28472.936599731047	12.943115500572
4	162046	28482.051937162259	8.009888712511
4	162057	28483.777710355417	4.138957717672
4	162081	28486.214249701803	6.114833822617
4	162111	28488.689671975857	1.886040264473
4	162135	28494.384715853157	2.31228358902
4	162147	28494.655968111833	2.356427871403
4	162185	28501.309813005858	7.595550069163
4	162648	28591.429988289528	96.706377407483
4	162662	28594.859753013309	99.871875734807
4	162667	28595.007247663446	93.931780255413
4	162673	28595.460178796646	90.99857891744
4	162681	28598.29658598514	82.316335882006
4	162698	28601.411871353081	83.946902060024
4	162710	28604.56638216505	78.206742315799
4	162728	28606.106995454878	75.231538362651
4	162734	28606.432477241535	73.800158465891
4	162740	28606.616971079415	62.981050786033
4	162746	28607.328629893115	52.084183908494
4	162752	28607.538313178932	46.538819550638
4	162757	28608.20936187697	46.184158978893
4	162764	28610.392578616115	47.056297690587
4	162777	28614.289910826213	50.370397812585
4	162803	28619.575127577091	54.335848611007
4	162810	28623.406814300079	53.871489852224
4	162821	28625.377083916425	54.218870039616
4	162841	28627.929176116745	54.78980953554
4	162881	28632.80811209762	59.620778944517
4	162886	28632.974872302055	58.998768542967
4	162893	28633.103665127259	53.719101189315
4	162907	28634.297380912762	50.880916323437
4	162912	28635.718419162501	49.346630013816
4	162919	28637.378381399031	49.658563095459
4	162924	28638.249482870226	49.506691572902
4	162934	28642.138346677842	52.895237304612
4	162965	28647.716780949035	53.94080212081
4	162975	28651.341194568923	57.236196416602
4	162988	28653.690511362059	51.202059115253
4	163002	28655.496049258779	46.792655638302
4	163182	28687.710858880831	75.047467015101
4	163200	28690.516279241632	68.808952070579
4	163221	28695.452959462035	71.649656736055
4	163242	28698.32052749256	74.031462508122
4	163252	28699.444836432865	69.370616942418
4	163257	28701.282876660978	54.672611374613
4	163262	28701.501134928331	52.278296309911
4	163270	28702.693111441554	48.918999589396
4	163276	28703.16854590725	44.952481056208
4	163281	28703.902028377177	39.54434966555
4	163294	28706.204146063007	38.787213703967
4	163308	28707.329797931666	39.728562427579
4	163325	28708.698996022771	31.693309903984
4	163331	28709.152165022667	30.665728122116
4	163336	28709.510810130038	26.443946315155
4	163341	28709.720355654428	24.261049503379
4	163352	28713.027021502899	26.686111056765
4	163373	28718.140394301914	27.793287081038
4	163406	28720.729097187418	25.226379728548
4	163449	28727.48550761772	31.878361701641
4	163458	28729.318221211925	26.96858695743
4	163470	28732.366642385245	26.295051887406
4	163475	28732.808437132628	21.748800565872
4	163482	28734.307970322832	16.546890470442
4	163491	28735.709161687818	14.516171484499
4	163535	28742.6145742116	21.262750064629
4	163545	28744.418231880623	22.370317446907
4	163599	28751.219702739019	22.238660765868
4	163605	28753.142757864562	22.945033318391
4	163612	28755.367085269794	16.085491590883
4	163617	28756.027012863122	8.722845044859
4	163627	28757.457798427324	9.798078016644
4	163642	28758.349243284745	9.873398731141
4	163647	28758.66433278889	0.891879773046
4	163651	28759.455910994012	1.545377159247
4	163679	28763.508282427086	3.277564937075
4	163685	28764.812124691191	1.769917169991
4	163712	28768.369278344607	2.131657780777
4	163749	28773.114313302475	1.999323383499
4	163753	28773.601499373753	1.865261344642
4	163780	28780.770653940137	0.822171779011
4	163838	28794.503116445056	0.009928639398
4	163955	28807.330765926855	8.41197858052
4	163965	28808.377541789341	8.956428402469
4	163978	28809.370491042332	9.439091027925
4	163987	28810.743025746263	6.049097600972
4	163998	28812.910922864	4.707811767675
4	164023	28818.151188721913	0.980827990139
4	164050	28824.757383158052	2.703491141557
4	164086	28831.634846398928	5.302869507589
4	164151	28841.955116628512	2.671322579268
4	164219	28853.10864843165	11.640113818974
4	164225	28854.73340458687	5.536689084429
4	164229	28854.846029717732	3.013865737085
4	164249	28863.31376403281	4.665986686462
4	164268	28867.413990732869	0.383610906531
4	164279	28870.924542110814	0.102722753959
4	164319	28876.604403198301	4.527021732876
4	164339	28881.178739077942	1.262048441011
4	164505	28906.580118527709	24.496402123554
4	164607	28928.533431419703	44.425549558525
4	164614	28928.913669992533	43.652670352634
4	164627	28931.39927605306	38.157786560396
4	164645	28933.004541813615	39.746969745562
4	164650	28934.847518568806	41.131028153977
4	164661	28939.915137318034	45.981383019493
4	164676	28940.751859577434	42.276460178978
4	164684	28942.544386698541	40.68105428652
4	164691	28943.655007261843	36.733039881733
4	164706	28946.790751910858	31.371861627424
4	164732	28948.722257255734	27.839056496821
4	164738	28949.658648797061	27.393042786806
4	164751	28951.316177427674	28.110117968006
4	165170	29023.879633177398	98.706220109706
4	165175	29024.793984308396	96.063207462137
4	165187	29027.136250702241	91.048405895666
4	165204	29030.405247526671	89.020951237454
4	165210	29031.676040556874	85.336128719213
4	165215	29031.917751206246	79.197774274612
4	165224	29032.742689669995	70.709312591865
4	165240	29034.94416820928	71.565743590441
4	165270	29039.705252772965	75.560383584884
4	165281	29041.435509024647	76.248642134135
4	165317	29045.775745548584	77.637586516343
4	165326	29046.417759112049	72.430233872961
4	165337	29048.088723183664	69.462177507342
4	165343	29048.784880106719	69.111586358562
4	165352	29050.305582421101	66.971477935313
4	165363	29050.924843632123	60.34867906834
4	165406	29055.352290260928	63.956007949555
4	165415	29063.324077386048	71.086401957212
4	165439	29066.759864831553	70.463024894005
4	165449	29067.034158527928	68.913148689368
4	165454	29067.080181356758	67.154849439889
4	165459	29067.865628480474	63.531037381748
4	165477	29072.164109695021	67.619652792218
4	165500	29075.450031191421	67.05072957267
4	165505	29075.794783541169	67.232641303246
4	165510	29075.872107044194	54.460190400529
4	165534	29081.722678882324	60.038499949476
4	165851	29150.621955330728	128.54278637553
4	165858	29152.137326557163	123.90757064947
4	165866	29154.846787484444	125.60454778927
4	165879	29155.74167304221	122.68244215093
4	165884	29155.916907228427	117.0057205164
4	165891	29156.251182815023	117.05991261667
4	165908	29157.401491239117	113.95185453901
4	165920	29159.358390230422	115.14676092178
4	165926	29159.56635778494	113.65350285293
4	165933	29160.534572874394	108.20344335825
4	165943	29162.059751261541	109.22822323267
4	165952	29166.462765779716	112.75651859542
4	165963	29166.812608767867	112.12094153308
4	165970	29167.518959090067	104.14756833989
4	165979	29168.277282081244	103.99429583979
4	165986	29169.525567715739	105.03942706985
4	165991	29171.106223750649	106.23173096983
4	165998	29173.438326612229	104.75197263804
4	166007	29175.242846920825	103.53681233852
4	166030	29178.46432630681	104.29423606399
4	166039	29180.9574688631	101.32527089442
4	166044	29182.112321536283	100.4226999997
4	166053	29183.261421917999	95.715615730401
4	166083	29188.425871347802	95.980511375864
4	166108	29192.6625394208	92.956069276708
4	166113	29193.159515087913	75.678707726488
4	166118	29193.283464752054	75.783158789863
4	166125	29193.578369862316	74.734942783551
4	166132	29194.670458355914	71.48255324671
4	166137	29195.442505669378	69.407272738031
4	166142	29196.33975068311	64.254143839936
4	166151	29198.763842286838	65.164394936043
4	166173	29204.775978946942	48.11817488835
4	166189	29206.735300086105	39.574850936507
4	166225	29213.443062401108	45.365935957391
4	166300	29223.947793450561	55.118453482376
4	166305	29224.041086113941	50.767346905374
4	166310	29224.042146495425	50.281521308872
4	166319	29224.784147219083	49.049505753551
4	166392	29238.742971201434	62.159558702764
4	166398	29239.499724016592	60.422375419277
4	166403	29239.628856936471	56.192337752047
4	166411	29240.087910246197	55.030127580725
4	166432	29242.146099260247	48.660659273559
4	166437	29242.182614861438	47.605379400117
4	166442	29242.905099701099	42.685779354591
4	166449	29247.356732559676	42.713988392797
4	166465	29250.585854917841	45.499465665652
4	166472	29252.618816484453	46.671280865207
4	166478	29252.906112037427	45.187334125006
4	166485	29254.710404157817	46.183996321319
4	166507	29261.428994251281	52.552715242281
4	166518	29261.705994508679	49.773129734837
4	166523	29261.825609422738	46.772844363594
4	166528	29262.01319318336	44.767599156256
4	166533	29262.282738744605	44.473005804589
4	166542	29263.779857831037	44.227517895449
4	166556	29267.165603048207	45.390122547736
4	166566	29268.182810629423	43.947733450979
4	166575	29270.38607303124	42.979436603554
4	166597	29272.227355351267	41.443419455146
4	166625	29275.427008395561	38.47269336485
4	166636	29275.818998841896	26.871210538723
4	166643	29276.894294366996	27.155598422231
4	166648	29277.589490772431	27.712136849499
4	166657	29279.240663275583	26.986331761103
4	166672	29281.942557081861	22.316482174993
4	166684	29283.311985345063	20.274851792451
4	166706	29287.829712351864	16.591311353776
4	166721	29289.339203342822	16.591605045339
4	166726	29289.55327766759	13.120168927112
4	166731	29291.007460601389	12.725348309271
4	166754	29297.159706134407	16.091333847397
4	166876	29324.490547775881	39.825759817243
4	166882	29324.873228727947	39.530477018055
4	166897	29328.025371253539	40.586760183967
4	166908	29328.92781193821	36.447912518355
4	166914	29329.649762283262	36.666592090087
4	166919	29329.780462033985	36.454241814848
4	166926	29331.077983811941	27.313128802438
4	166938	29331.341077571398	24.689142531263
4	166954	29334.364981400573	27.099915222819
4	166959	29334.447847523581	25.036392890307
4	166964	29334.493331960002	19.248850894343
4	166977	29336.468521581603	19.481350041507
4	166999	29337.972327926087	15.30102735048
4	167008	29340.687691768359	15.148239764465
4	167028	29344.832395572909	17.19071727376
4	167036	29345.519512414288	9.24192349756
4	167063	29348.293876469302	6.125998349703
4	167075	29350.558571406258	0.66552125769
4	167081	29351.275260980515	1.142756287432
4	167123	29361.214553275145	0.736987751622
4	167131	29361.95681739113	0.455808999927
4	167148	29363.717431766258	0.873258395741
4	167153	29364.517362889831	1.374771442163
4	167173	29368.726032014657	3.550016575329
4	167184	29370.917022988496	4.544561207744
4	167228	29377.667149350847	0.698929039892
4	167259	29383.523921324666	2.058194495572
4	167275	29390.270913499756	0.512598993226
4	167297	29394.419944184782	2.334519270682
4	167318	29400.240264542751	2.248379873259
4	167349	29405.489460058389	0.895875496711
4	167356	29406.595679798568	1.706763762276
4	167460	29426.047838883545	13.711036071115
4	167472	29427.471938351347	6.417008453841
4	167497	29429.727312552538	7.627400050567
4	167504	29431.942431119002	6.13191268892
4	167514	29434.411805150326	6.810684845695
4	167523	29435.595637589471	2.539645689289
4	167873	29501.770995366101	56.491101507523
4	167885	29503.668436696963	58.216447378737
4	167890	29503.997229763434	58.45959097573
4	167897	29504.592838416195	53.702703568744
4	167902	29504.643113014516	53.012215881029
4	167915	29511.214886272809	58.896766898038
4	167937	29513.694544223833	47.241196649495
4	167961	29519.037606424516	47.669372497581
4	167974	29519.758945294019	44.62772110134
4	168075	29535.811609905639	58.333821442219
4	168081	29537.944441943351	54.936075145268
4	168086	29537.95868654717	46.724940475676
4	168095	29539.302573091491	42.01888348259
4	168108	29544.331750573756	42.220315344291
4	168139	29549.16497303865	45.068203907091
4	168146	29550.468605822569	39.038388946101
4	168283	29571.233059463482	58.177863181514
4	168290	29571.787295519021	47.695355474369
4	168309	29577.832483927198	50.536002180563
4	168321	29579.356741274632	51.335496606444
4	168330	29580.549334911587	51.155926564403
4	168356	29584.37509113265	53.298573978488
4	168363	29585.350204034456	31.952800646188
4	168368	29586.129639292885	20.270079949921
4	168373	29588.184176004226	19.104306919369
4	168381	29589.921667835141	16.790647549168
4	168394	29591.751034359588	12.609517494631
4	168408	29593.577175245815	12.163663490831
4	168423	29595.877133005417	6.243798370144
4	168433	29596.759648341921	5.069986911573
4	168438	29597.615196876567	5.866033552355
4	168491	29608.496930808293	0.44813965543
4	168531	29617.050753149756	0.54645187949
4	168592	29628.508714034484	4.88381353073
4	168652	29640.852375833236	15.908133996901
4	168662	29640.882937787846	14.95091255385
4	168669	29641.095346396022	10.084042305827
4	168675	29641.805950586337	7.108052255365
4	168687	29643.070849680219	7.603393821383
4	168699	29643.351138122513	5.723897093619
4	168715	29644.694369454482	2.090606816351
4	168734	29647.85794640761	4.484011176527
4	168778	29653.328734912476	5.076179827867
4	168804	29657.503522983645	0.70236520947
4	168811	29657.797937840032	0.41020678829
4	168815	29657.890567684767	0.118224347659
4	168898	29670.418782024948	1.140282343674
4	168905	29670.673430715651	0.206033050694
4	168964	29683.558952546676	2.076413268563
4	168983	29684.481312561863	0.007472342247
4	169000	29689.559879845855	0.099503496255
4	169030	29698.283134951619	0.383962201925
4	169040	29698.859585889099	0.865831486704
4	169048	29699.260388038633	0.192915725507
4	169074	29701.732809778692	0.910261347578
4	169092	29708.26678189001	0.99079518929
4	169109	29710.048469986806	1.492712710735
4	169139	29715.51777474807	0.29366695944
4	169156	29719.487262697512	1.981279180668
4	169375	29756.660031224829	38.673268011627
4	169381	29757.38287218234	39.074707015379
4	169387	29758.083852535279	34.556871210162
4	169398	29759.533551704569	33.426232686899
4	169416	29762.626074544091	33.732949760375
4	169425	29764.393986324591	33.832485005855
4	169433	29766.234449775924	35.567296008195
4	169438	29766.607806311131	33.734888974171
4	169443	29766.629138398981	30.522104350495
4	169455	29767.421400290498	31.090753423949
4	169476	29769.684916829633	31.632896230189
4	169491	29771.860685613616	30.140000538577
4	169496	29772.028590475855	27.33717622827
4	169506	29774.41695430998	26.141338633956
4	169535	29776.231649401827	27.575976235034
4	169546	29781.513324780241	29.458909128966
4	169592	29789.219871145304	35.100842039196
4	169604	29791.793017422434	36.319187524201
4	169615	29792.366595649533	29.151221095159
4	169621	29792.867673291354	27.476783554034
4	169634	29795.781369839607	28.543668603286
4	169746	29813.867304259442	42.017855572766
4	169755	29815.981994479996	29.840047414765
4	169766	29816.671653742442	30.078469984262
4	169815	29822.337319982564	33.950114209882
4	169831	29825.367572808852	36.233062510726
4	169853	29827.915246348752	36.986403533043
4	169871	29830.950975539679	32.815657037159
4	169878	29832.91220703318	30.092758551965
4	169890	29835.649056703378	32.027615214262
4	169905	29836.042622189933	25.803613656161
4	169912	29837.828141159372	25.854032894525
4	169919	29839.55360999137	26.898948666849
4	169927	29841.937017334021	25.361326639984
4	169938	29842.45436273369	15.512123434221
4	169989	29850.830073814945	2.474000444337
4	170004	29851.969072750102	1.691195007252
4	170010	29853.283084165712	2.509267172146
4	170040	29859.595139370746	1.861843969479
4	170052	29861.016237295378	1.689203975924
4	170056	29862.463197004483	1.996899435646
4	170123	29872.99777644115	1.615799692402
4	170149	29878.910310507883	4.326478630374
4	170157	29879.362826851747	2.682226935282
4	170206	29884.653488025613	3.140928132782
4	170214	29885.19630689916	2.820880033503
4	170246	29892.408069229902	2.398360525415
4	170251	29892.701496496038	2.284948253723
4	170258	29893.683736455566	2.488798590036
4	170282	29895.903627475469	2.094945280272
4	170294	29899.269078290233	5.405769596683
4	170306	29901.550683778081	5.552602540659
4	170319	29902.589762468904	5.790963823518
4	170346	29908.417271236759	3.997295463339
4	170426	29922.463990450607	15.220693063643
4	170431	29922.709148282824	5.638769518477
4	170436	29922.854453747016	3.635379558525
4	170448	29923.7402769775	3.840762403063
4	170454	29925.128664376479	2.215780668493
4	170461	29925.574781935747	2.366261789344
4	170468	29927.551383513837	4.183020705592
4	170492	29934.227396981083	5.331807878223
4	170538	29941.109726488352	10.900395964581
4	170544	29942.792875605048	11.8177835472
4	170549	29943.537314974326	9.388545927387
4	170558	29944.664942277682	8.77831949148
4	170569	29945.39735873818	1.723078816158
4	170641	29955.062377442039	6.212409945557
4	170648	29956.321211962426	5.832040028713
4	170665	29963.983156453177	11.89631447064
4	170669	29964.450379428863	10.613195522793
4	170677	29969.083502573663	2.836701526634
4	170741	29981.107140455449	2.742434049959
4	170761	29982.283739977239	0.885950146965
4	170770	29983.458112632751	0.804508993999
4	170790	29987.883592840926	0.988285299253
4	170797	29988.334587981033	1.270684224136
4	170835	29994.115041965975	1.198738859309

