version 2
run First-n5-9-20191016-17:03:36-748
attr configname First-n5
attr datetime 20191016-17:03:36
attr experiment First-n5
attr inifile omnetpp.ini
attr iterationvars ""
attr iterationvarsf ""
attr measurement ""
attr network org.omnetpp.queueing.Pizza
attr processid 748
attr repetition 9
attr replication ""
attr resultdir results
attr runnumber 9
attr seedset 9
param **.PS.maxInventoriedPS 5
param **.U1.interArrivalTime exponential(2s)
param **.U2.interArrivalTime exponential(4s)
param **.PS.serviceTimeForInventoryU1 exponential(0.8s)
param **.PS.serviceTimeForInventoryU2 exponential(1.0s)
param **.PS.serviceTimeDirectU1 exponential(1.2s)
param **.PS.serviceTimeDirectU2 exponential(1.4s)
param **.PS.probabilityProducing 0.5
param **.CS.serviceTimeU1 exponential(0.8s)
param **.CS.serviceTimeU2 exponential(1.0s)

vector 0 Pizza.EntryQueueU1 queueLength:vector ETV
attr interpolationmode sample-hold
attr title "queue length, vector"
vector 1 Pizza.CS queueLength:vector ETV
attr interpolationmode sample-hold
attr title "queue length, vector"
vector 2 Pizza.EntryQueueU2 queueLength:vector ETV
attr interpolationmode sample-hold
attr title "queue length, vector"
vector 3 Pizza.sink lifeTime:vector ETV
attr interpolationmode none
attr title "lifetime of arrived jobs, vector"
attr unit s
vector 4 Pizza.sink lifeTimeU1:vector ETV
attr interpolationmode none
attr title "lifetime of arrived jobs, vector"
attr unit s
vector 5 Pizza.sink lifeTimeU2:vector ETV
attr interpolationmode none
attr title "lifetime of arrived jobs, vector"
attr unit s
0	0	0	0
0	28	3.075591881666	1
0	30	3.154630015333	2
0	32	3.397227905087	1
0	41	5.223509751997	0
0	65	10.973359897441	1
0	67	11.194012119284	2
0	69	11.565794993076	3
0	71	11.731071802341	4
0	74	13.203534908592	5
0	75	13.30940327011	4
0	82	14.554069553248	5
0	83	14.887061572649	4
0	91	15.830683422209	3
0	96	16.228896632394	2
0	103	17.076207302163	1
0	109	18.909705346282	0
0	154	25.24980942688	1
0	155	25.641459771316	0
0	208	32.849381304715	1
0	210	33.166876298178	2
0	211	33.256452617853	1
0	217	33.907395077734	0
0	275	40.233926057795	1
0	277	40.520603963646	2
0	284	42.531977348274	1
0	289	43.018010716995	0
0	302	45.131774687759	1
0	303	45.357541881578	0
0	338	51.845648486025	1
0	339	51.903017635997	0
0	359	56.870505674293	1
0	362	57.200290778888	0
0	370	59.392644051678	1
0	371	59.802068402609	0
0	412	67.097260136509	1
0	413	67.165255501042	0
0	435	71.299257513855	1
0	436	71.381866145822	0
0	458	72.910219569528	1
0	460	73.210280126492	2
0	463	73.303351477454	3
0	464	73.551399665572	2
0	473	73.954264514376	1
0	478	74.242863898655	0
0	524	79.502714144005	1
0	525	80.075121033136	0
0	546	86.212545846361	1
0	548	86.68764094562	0
0	562	89.086475927239	1
0	567	90.95286819521	0
0	596	99.158796428828	1
0	598	99.778613972449	0
0	604	100.136312251306	1
0	605	100.422648142874	0
0	675	112.500358861041	1
0	677	112.724210188534	0
0	717	123.22423085614	1
0	719	123.244745424573	2
0	720	123.915410876246	1
0	727	125.500434108402	2
0	728	125.916302282748	1
0	733	126.024612379179	0
0	753	128.392839531159	1
0	756	128.797341274549	0
0	775	134.147379887114	1
0	784	136.920634621463	2
0	786	137.978911906991	1
0	791	138.347669685933	0
0	814	140.318760556739	1
0	818	141.165303489721	2
0	819	141.34346269788	1
0	824	141.671354188362	0
0	828	142.104341923141	1
0	831	143.185682160606	0
0	895	158.501683681067	1
0	897	159.134180951561	0
0	926	163.040613427384	1
0	927	163.066572571811	0
0	933	163.747792379154	1
0	934	163.918204053098	0
0	938	165.657111341719	1
0	944	169.338880751441	2
0	946	169.768720351238	1
0	952	170.190089027073	2
0	953	170.371620034833	1
0	961	171.529745308131	2
0	963	172.204589772032	3
0	964	172.273587709921	2
0	971	172.68954446963	3
0	972	172.825739861113	2
0	977	172.931163475084	1
0	981	173.100010217408	2
0	983	175.682163588883	3
0	987	175.822290010712	4
0	988	175.939407824412	3
0	992	175.947982171255	4
0	994	176.033430669972	5
0	998	176.423113661688	6
0	999	176.763799347048	5
0	1005	180.140387624428	6
0	1006	180.476226256477	5
0	1011	180.895779805445	4
0	1015	182.419154710825	5
0	1018	185.071874022833	4
0	1022	185.122831361132	5
0	1027	185.834675204178	4
0	1032	186.658245293407	3
0	1036	186.862259058694	4
0	1040	186.957245637053	5
0	1043	187.743664561069	4
0	1048	188.741029664276	3
0	1054	191.377523900009	4
0	1058	193.063179323073	5
0	1062	193.567219563832	6
0	1064	194.240411391622	7
0	1067	195.148102142044	6
0	1074	196.761472880536	5
0	1081	198.034287957701	4
0	1086	198.403915667245	3
0	1091	199.293047533939	2
0	1096	200.619823197742	1
0	1102	203.321699015486	2
0	1106	203.840953591528	3
0	1107	204.150712487283	2
0	1112	204.373457255248	1
0	1120	207.077068450186	2
0	1121	208.033536148547	1
0	1127	208.108967679177	2
0	1128	209.621627685391	1
0	1135	210.312978733019	2
0	1137	211.879139337858	1
0	1143	212.842267740226	0
0	1181	217.572875946175	1
0	1183	217.794486560835	2
0	1185	218.902646874593	1
0	1190	219.495910024522	0
0	1197	219.62815996585	1
0	1203	221.654584029857	0
0	1232	225.570275222795	1
0	1233	225.651920998468	0
0	1239	225.780870511614	1
0	1240	226.292957459882	0
0	1246	226.310311084102	1
0	1247	226.396486154578	0
0	1278	229.690168796172	1
0	1279	229.756108777274	0
0	1311	232.35347330618	1
0	1315	233.42181325565	2
0	1318	233.928957186708	3
0	1319	234.051997391581	2
0	1326	235.647173522656	3
0	1327	236.421697188191	2
0	1332	236.518687087424	1
0	1338	236.638133630552	2
0	1343	238.121471711922	3
0	1347	238.266110118111	4
0	1349	239.134075552742	5
0	1351	240.18336085355	6
0	1354	242.90154673005	7
0	1357	243.17933729987	8
0	1358	243.197067411531	7
0	1367	244.416757690474	6
0	1375	245.919686077328	7
0	1376	246.145451295315	6
0	1382	246.511968864549	5
0	1387	246.755527377648	4
0	1394	247.127825043015	5
0	1395	247.204270104549	4
0	1401	248.334166388333	3
0	1406	248.369394757707	2
0	1411	249.400702659468	1
0	1416	249.686007679376	0
0	1420	249.710864848002	1
0	1422	252.757452342138	2
0	1424	253.087191932578	3
0	1426	254.068345020873	4
0	1429	254.470557933865	3
0	1433	255.858929669099	4
0	1438	258.719459231303	3
0	1444	259.847681370565	2
0	1449	260.052533733427	1
0	1453	260.163642787099	2
0	1456	260.928770100103	1
0	1464	261.560267960005	2
0	1465	261.852801526507	1
0	1470	263.970166174145	0
0	1474	264.073178358916	1
0	1476	264.105271557353	2
0	1480	264.571408259568	1
0	1485	264.853724778993	0
0	1528	269.628831479109	1
0	1531	270.179350682989	2
0	1532	270.277659765782	1
0	1541	270.746157198191	2
0	1543	270.760015485068	3
0	1547	272.098606886182	2
0	1552	272.619088191413	1
0	1557	272.692139097461	0
0	1575	273.613431643687	1
0	1576	273.704037272382	0
0	1592	275.234526944025	1
0	1598	275.76657173814	0
0	1612	277.41880410274	1
0	1613	277.524055021273	0
0	1619	277.557388662144	1
0	1620	277.835540528717	0
0	1643	278.793601679632	1
0	1644	278.832323202261	0
0	1714	293.9259621434	1
0	1716	294.385447069628	0
0	1731	295.945300397302	1
0	1732	295.962678347713	0
0	1740	298.293275576937	1
0	1741	299.461483365077	0
0	1745	299.542470189959	1
0	1749	301.837722365835	2
0	1750	302.084234388865	1
0	1754	302.314005314506	2
0	1756	302.619277410373	3
0	1765	304.161173791792	2
0	1771	305.355228143417	1
0	1776	305.894398109784	0
0	1790	306.675245109738	1
0	1791	306.812873398389	0
0	1814	310.675260178754	1
0	1816	310.722824365076	2
0	1822	311.916301279044	1
0	1829	313.231877022643	0
0	1883	322.712286658545	1
0	1884	323.235458507443	0
0	1890	323.288546321551	1
0	1891	323.539675381113	0
0	1904	327.864927125296	1
0	1906	328.285810415394	2
0	1908	328.591233224535	3
0	1912	329.695911257386	4
0	1914	330.055231965455	5
0	1915	330.124923032127	4
0	1920	330.265495094534	3
0	1926	331.197694478223	2
0	1933	331.916223013388	3
0	1934	332.140219296472	2
0	1939	332.96801455743	1
0	1943	333.049702678782	2
0	1949	335.110602645332	3
0	1953	336.530368873113	4
0	1954	337.636794417033	3
0	1958	337.776627591514	4
0	1965	339.667114239028	3
0	1970	339.817248020289	2
0	1978	340.241057542126	1
0	1983	340.384204381889	0
0	1990	341.796371499443	1
0	1992	342.964025209009	2
0	1993	343.105166559393	1
0	2000	343.381286415833	0
0	2019	344.356504373975	1
0	2020	344.374686758081	0
0	2024	344.535664025973	1
0	2026	344.813750407468	2
0	2029	345.333102722459	1
0	2033	345.405180525096	2
0	2035	345.475253285427	3
0	2041	347.197085102729	2
0	2046	347.555906766485	1
0	2051	348.204021254266	0
0	2085	351.352755785575	1
0	2086	351.44225114919	0
0	2092	351.529745926281	1
0	2094	351.790863665779	2
0	2095	352.401099126066	1
0	2101	353.13471848875	0
0	2125	356.232983910677	1
0	2128	357.230730312174	2
0	2129	357.384243960281	1
0	2136	358.766001171882	0
0	2151	359.655411444329	1
0	2153	360.037771214034	2
0	2154	360.995452850327	1
0	2159	361.041432811902	0
0	2194	371.875474565161	1
0	2195	372.69933675344	0
0	2210	374.049260756447	1
0	2212	374.356533900911	2
0	2214	374.525323805475	3
0	2215	374.6662123982	2
0	2220	375.11515212472	1
0	2225	375.752926702746	0
0	2253	386.378251958748	1
0	2254	387.077165347558	0
0	2260	388.267501017792	1
0	2262	388.774440943485	2
0	2263	389.012551345247	1
0	2270	389.42215441733	2
0	2271	389.633230136748	1
0	2276	389.660801662405	0
0	2293	392.895642715354	1
0	2296	393.899834266386	0
0	2300	395.598194889153	1
0	2302	396.488564841959	2
0	2304	396.741072051572	3
0	2307	397.2679974516	2
0	2313	398.707108788709	3
0	2314	398.859521611829	2
0	2320	399.616891474351	3
0	2321	399.643476308511	2
0	2325	400.202624647681	3
0	2327	400.59792723076	4
0	2329	401.456429217904	5
0	2334	402.649065914587	4
0	2340	405.336955323148	3
0	2346	406.964925098722	2
0	2352	407.203001727488	3
0	2353	408.191474431391	2
0	2358	409.644947707455	1
0	2364	410.290345149882	0
0	2379	411.888138205048	1
0	2381	412.142962909221	0
0	2387	412.952885069813	1
0	2389	413.194959282244	2
0	2391	413.813800496784	3
0	2392	414.546854092866	2
0	2402	417.050477030013	1
0	2407	417.33718956672	0
0	2418	417.864397604809	1
0	2421	418.113380288061	0
0	2445	421.628358825129	1
0	2448	421.935698454672	2
0	2450	422.164193942414	3
0	2452	422.352622335184	4
0	2453	422.798347174171	3
0	2458	423.082888155424	2
0	2463	423.289682011114	1
0	2467	424.762747066885	2
0	2472	425.763065994276	3
0	2475	425.973633469019	4
0	2476	426.169463455154	3
0	2482	426.799485767913	2
0	2488	427.379744789881	1
0	2493	427.456737084869	0
0	2503	430.702672990743	1
0	2505	430.919537206064	2
0	2507	431.001333231125	3
0	2508	431.490713936784	2
0	2513	433.016741469685	1
0	2517	433.86620913147	2
0	2521	435.734218712164	1
0	2526	435.802240658629	0
0	2550	440.659215525624	1
0	2551	440.707834496293	0
0	2588	450.895062403232	1
0	2590	451.190888168711	2
0	2595	453.235843903272	1
0	2601	454.264519277802	0
0	2638	457.282714448555	1
0	2640	457.665459223275	0
0	2647	458.411711534906	1
0	2649	458.501539669563	0
0	2656	459.008198333831	1
0	2657	459.28994573758	0
0	2668	460.664217193143	1
0	2673	462.876952542926	0
0	2677	463.91534870551	1
0	2680	464.908685105648	0
0	2684	465.004447839504	1
0	2686	465.407389228237	2
0	2688	466.755684915956	3
0	2692	467.128179488425	4
0	2694	467.259954368876	5
0	2696	467.296614595916	6
0	2699	469.117833019966	5
0	2703	469.642655982368	6
0	2706	471.083932366796	5
0	2711	471.327316497276	4
0	2717	473.713413313323	3
0	2722	473.870610156464	2
0	2727	475.664260220957	1
0	2731	477.240969120489	2
0	2734	478.71211055068	1
0	2740	479.107141674986	2
0	2741	479.812853927482	1
0	2745	480.359066089269	2
0	2749	481.474935188151	3
0	2751	482.258401373825	2
0	2756	483.515928926119	1
0	2766	486.045586197927	2
0	2767	486.39804266674	1
0	2771	487.251983042179	2
0	2773	487.443693843226	3
0	2775	487.997828974871	4
0	2778	490.343718190569	3
0	2783	492.278300639684	2
0	2788	493.017379305054	1
0	2793	493.705062449484	0
0	2805	494.441352059329	1
0	2807	495.853481657942	0
0	2814	496.167597347162	1
0	2815	496.477351896075	0
0	2826	496.976956370363	1
0	2827	497.07627253788	0
0	2847	499.683985484552	1
0	2848	499.910754640224	0
0	2899	510.862671892709	1
0	2902	512.098170227145	0
0	2906	512.784594198045	1
0	2910	514.530118498235	2
0	2913	514.871726935092	1
0	2922	517.580642697805	0
0	2928	517.762959437901	1
0	2929	518.332706708505	0
0	2988	526.82102771214	1
0	2992	527.228523573074	2
0	2994	527.319310383553	3
0	2995	527.882010823124	2
0	3000	528.245552231681	1
0	3007	528.70141670247	0
0	3030	529.363918006525	1
0	3034	530.571727462003	0
0	3055	532.905338553152	1
0	3057	533.102608335297	2
0	3058	533.135084534355	1
0	3065	533.567479046466	2
0	3067	533.615617756248	3
0	3070	534.20141780784	2
0	3076	534.687879411441	3
0	3079	536.806416875857	2
0	3084	537.242746052367	1
0	3091	537.491852065006	0
0	3100	538.411925902481	1
0	3105	539.263079582361	2
0	3108	540.312933885465	1
0	3116	540.902995709768	0
0	3126	541.431894012389	1
0	3128	542.50830437417	0
0	3161	548.134926003429	1
0	3162	548.390651362213	0
0	3188	553.840174563324	1
0	3194	554.080508920839	2
0	3196	555.015760283406	3
0	3199	556.489474546707	2
0	3203	556.978488608835	3
0	3209	557.767797225764	4
0	3212	559.638307865656	3
0	3217	560.617122440015	2
0	3222	561.124689914562	1
0	3230	561.611628019656	2
0	3232	563.394350959719	3
0	3234	563.670420885954	4
0	3236	563.688132842246	5
0	3238	565.0890636198	6
0	3240	565.385438568262	7
0	3242	566.53687120682	8
0	3245	567.049017313426	7
0	3253	568.028763633372	6
0	3259	570.115113175848	5
0	3265	570.499249039469	6
0	3267	570.87293494104	7
0	3268	570.904699185074	6
0	3274	572.049729488111	7
0	3276	572.637575149576	6
0	3283	573.195386043073	5
0	3287	573.716480945035	6
0	3289	574.206386917277	7
0	3294	575.273099657214	6
0	3300	577.609341500206	7
0	3304	578.370303624224	6
0	3310	579.04007880791	7
0	3311	579.26084854737	6
0	3316	579.931958822058	5
0	3321	580.474650767803	4
0	3326	580.686425658596	3
0	3334	583.641234762149	4
0	3337	583.999616449308	3
0	3341	584.919929903426	4
0	3346	585.529670785203	3
0	3350	586.049760890601	4
0	3354	586.60495482752	3
0	3359	588.602252658807	2
0	3363	588.75722686038	3
0	3369	590.254128681679	4
0	3372	592.543764878169	3
0	3376	592.552988334162	4
0	3378	592.934291762286	5
0	3380	593.690853986468	6
0	3386	596.903712819065	7
0	3388	598.270109095275	8
0	3391	598.951596842256	7
0	3399	603.110465170293	6
0	3406	605.117283728843	5
0	3410	605.291195532878	6
0	3413	605.697616201383	5
0	3418	605.970607620577	4
0	3423	606.609176833023	3
0	3429	607.42387615889	4
0	3430	607.438304480857	3
0	3436	607.885103505593	4
0	3437	607.99172370126	3
0	3441	609.253476495326	4
0	3443	610.505750498761	5
0	3446	611.89984283533	4
0	3450	612.532730170896	5
0	3454	613.40084407392	6
0	3456	613.770010371878	7
0	3458	615.000513624531	6
0	3463	615.515893834979	5
0	3467	617.819925297512	6
0	3469	618.281925839104	7
0	3471	620.109209548771	8
0	3473	620.297765508118	9
0	3475	620.361649326301	10
0	3477	620.529145024976	11
0	3479	621.528211695903	12
0	3482	622.376123784519	11
0	3488	623.650844498398	12
0	3489	623.864360045434	11
0	3495	624.26214382408	12
0	3497	624.47815101316	11
0	3508	625.862201769654	10
0	3513	626.219939934173	9
0	3518	626.788172774115	8
0	3524	627.258694387846	7
0	3530	628.89356831333	6
0	3536	629.095121175524	7
0	3538	629.183422045451	8
0	3540	629.215180257801	9
0	3541	629.502914318972	8
0	3546	629.889811609149	7
0	3552	631.053785969038	6
0	3558	631.56709258956	7
0	3559	632.453251225889	6
0	3564	632.804808699973	5
0	3571	633.565407146055	4
0	3576	634.108723548113	3
0	3582	634.846624142692	4
0	3585	636.555669547771	3
0	3592	636.839041336687	2
0	3597	637.237348928461	1
0	3601	637.330363168558	2
0	3605	638.216564176561	3
0	3607	638.629213424482	4
0	3608	639.312784771501	3
0	3614	639.882108738045	4
0	3615	639.89866576649	3
0	3621	639.962367682632	4
0	3623	640.379181354132	5
0	3625	641.117236612289	4
0	3631	641.313562264327	3
0	3636	642.173754590429	2
0	3641	642.661684529932	1
0	3648	644.748470875411	0
0	3664	646.429604620394	1
0	3665	646.752388366686	0
0	3674	648.261245475615	1
0	3675	648.365285287869	0
0	3693	651.631403127097	1
0	3694	651.641723632866	0
0	3708	653.028324520304	1
0	3710	653.931281489328	0
0	3718	654.675775093851	1
0	3721	655.4891619184	0
0	3727	655.510439077156	1
0	3730	655.896512608276	0
0	3738	656.298625516678	1
0	3739	656.364898620918	0
0	3746	658.374465483172	1
0	3747	658.923875305777	0
0	3762	661.570810214453	1
0	3763	662.436503985113	0
0	3769	662.700307418061	1
0	3770	663.358928846936	0
0	3776	664.010136243708	1
0	3777	664.438419600213	0
0	3781	664.493275106426	1
0	3786	665.013360402237	2
0	3787	665.266869276468	1
0	3793	665.270301339194	2
0	3795	665.900670727793	1
0	3800	666.221435953128	0
0	3804	666.226086377522	1
0	3810	673.366471100572	2
0	3812	674.089939465048	3
0	3815	675.174335445625	2
0	3819	676.411779537013	3
0	3821	676.734327737582	4
0	3824	678.842656261065	3
0	3829	679.560706492143	2
0	3836	681.652538554117	1
0	3840	684.238349865521	2
0	3843	685.358576826204	1
0	3847	685.373707993963	2
0	3849	685.835972322328	3
0	3854	687.00409783679	2
0	3859	687.220417282908	1
0	3864	687.846712484084	0
0	3870	688.089912765686	1
0	3873	688.213347710035	0
0	3881	689.197921265552	1
0	3882	690.005564322655	0
0	3899	693.072152259101	1
0	3900	693.117853254503	0
0	3933	696.356927031728	1
0	3934	696.736595456933	0
0	3953	698.175218022794	1
0	3955	698.28311312978	2
0	3956	698.353313778143	1
0	3962	698.835240790452	0
0	3968	698.84899289196	1
0	3971	699.23974276778	0
0	3988	700.285592414194	1
0	3989	700.549313826874	0
0	4001	701.278323302662	1
0	4004	702.149101658069	2
0	4006	702.448817970508	1
0	4011	702.774151223924	0
0	4029	703.712312457854	1
0	4031	706.053423810358	2
0	4033	706.09932707142	3
0	4036	706.452643993406	2
0	4041	706.467395610126	1
0	4046	706.498766876389	0
0	4050	706.561351299279	1
0	4052	706.884957361761	2
0	4056	707.764579176118	3
0	4058	707.804063626007	4
0	4060	708.179020645597	5
0	4063	708.426968934869	4
0	4071	710.774422214637	5
0	4073	712.288191628705	4
0	4078	712.749410732998	3
0	4082	712.749489115514	4
0	4090	714.745421634319	5
0	4092	715.420674299993	4
0	4097	717.024450433658	3
0	4102	718.828694885855	2
0	4107	719.547534164138	1
0	4111	720.04642222198	2
0	4114	722.167285622279	1
0	4119	723.029890006935	0
0	4123	723.407903054937	1
0	4125	724.053167520215	2
0	4131	725.389657024008	1
0	4135	725.701243974552	2
0	4138	725.876225558107	1
0	4146	726.057390834981	2
0	4147	726.173399135213	1
0	4151	726.681058013339	2
0	4158	729.154843192533	1
0	4162	729.905528250087	2
0	4164	730.066456314065	3
0	4167	730.360241907278	2
0	4176	732.511835434752	1
0	4181	732.919791288374	0
0	4192	733.78811519799	1
0	4194	734.29208751114	2
0	4199	735.241825859402	3
0	4200	735.522759310456	2
0	4206	737.15503592472	3
0	4208	737.906695868931	2
0	4217	738.596119514947	1
0	4221	738.967980615731	2
0	4224	739.120323615951	1
0	4232	740.085995079406	2
0	4234	740.556087879935	3
0	4240	743.087945944207	2
0	4246	744.978725716026	3
0	4248	744.98263874517	4
0	4249	745.490452585572	3
0	4256	746.479682638143	2
0	4263	749.547945314677	1
0	4270	750.942682717646	0
0	4292	752.953254171258	1
0	4295	753.85674175305	0
0	4307	756.028013742802	1
0	4309	756.046558746293	2
0	4310	756.163461831496	1
0	4321	757.735374618357	0
0	4334	758.380467027552	1
0	4336	758.665035123672	0
0	4386	764.952081990409	1
0	4388	765.240210425572	2
0	4391	765.601252578858	1
0	4398	765.723423414181	0
0	4411	768.437612532386	1
0	4415	769.998616523026	2
0	4416	771.02695148924	1
0	4425	772.887776250058	0
0	4443	773.800451044407	1
0	4444	774.032278275894	0
0	4456	774.319959246395	1
0	4458	774.493130659819	2
0	4466	778.415308086899	1
0	4472	778.570588016799	2
0	4474	779.624506901201	1
0	4479	779.865046641179	0
0	4486	780.603928176897	1
0	4488	780.631692695838	2
0	4490	780.945172942155	3
0	4491	781.155391005949	2
0	4496	782.135529279826	1
0	4501	783.42551137745	0
0	4509	785.029168922576	1
0	4511	785.807455970391	2
0	4513	785.930969939796	3
0	4516	786.530771121894	2
0	4521	787.624968561895	1
0	4526	789.15306605077	0
0	4532	789.562134507252	1
0	4534	789.57252033848	2
0	4536	789.714223539823	1
0	4542	790.251953180761	0
0	4551	792.579227091435	1
0	4553	792.93995068288	0
0	4588	796.280148627299	1
0	4590	796.35944779058	2
0	4594	797.16074170946	3
0	4596	797.348730551104	2
0	4602	797.95122970348	1
0	4607	798.25264139466	0
0	4618	799.289387198314	1
0	4620	799.495759958076	0
0	4637	800.95736841801	1
0	4641	801.650492457181	0
0	4650	802.604844672424	1
0	4651	802.730728462452	0
0	4665	803.589029117537	1
0	4667	804.040470726395	2
0	4668	804.060931261856	1
0	4674	804.296705290827	0
0	4686	805.78140931662	1
0	4688	806.446051763829	0
0	4703	808.124518893802	1
0	4704	808.149577801658	0
0	4733	812.466957569267	1
0	4734	813.478765882551	0
0	4751	814.601274968469	1
0	4753	815.150698079359	0
0	4759	816.177997295403	1
0	4760	816.561125999758	0
0	4773	818.059950429502	1
0	4775	818.269234050296	2
0	4777	818.522263670074	1
0	4783	818.601655764511	0
0	4797	820.053209516236	1
0	4799	820.555053200603	0
0	4848	825.306286763924	1
0	4851	826.070114595018	0
0	4871	831.232791081434	1
0	4872	831.749990611143	0
0	4878	832.085547165905	1
0	4881	832.477667349611	2
0	4882	832.527455051015	1
0	4891	833.889815033376	0
0	4897	834.243835714952	1
0	4899	834.482858056721	2
0	4901	834.832026970929	1
0	4907	836.210345477612	0
0	4913	836.485572588924	1
0	4914	836.545233589716	0
0	4920	836.869119217249	1
0	4922	837.274811458372	2
0	4923	837.382152208642	1
0	4929	837.886396358441	0
0	4936	838.01747598785	1
0	4938	838.224844355475	2
0	4939	838.288026971671	1
0	4943	838.760871965886	2
0	4945	839.147320053632	3
0	4948	839.471707277937	2
0	4954	840.945686690206	3
0	4960	842.505192399852	4
0	4964	844.240260078625	3
0	4971	844.973406568048	2
0	4976	846.114809078398	1
0	4985	847.525113281078	2
0	4987	847.604532699267	3
0	4989	847.70349776363	2
0	4995	849.063721421501	3
0	4996	849.445194549814	2
0	5002	849.522493178514	3
0	5005	850.137906921208	4
0	5006	850.232670463302	3
0	5011	851.234451392395	2
0	5015	851.941680480898	3
0	5017	852.780957693798	4
0	5019	853.697807920814	5
0	5023	854.123339324251	6
0	5025	854.608673325226	7
0	5028	855.440821493279	6
0	5032	855.477710960834	7
0	5035	856.561609187939	6
0	5040	858.310563862361	5
0	5046	860.843682868867	4
0	5051	861.69036812014	3
0	5056	862.60731028781	2
0	5062	863.466090818712	3
0	5065	863.811095279495	2
0	5069	864.402136709288	3
0	5071	864.412461632258	4
0	5074	865.492540846642	3
0	5082	868.833278330435	2
0	5087	869.167231434974	1
0	5093	869.276296856689	2
0	5094	869.567323967033	1
0	5099	869.729086032128	0
0	5103	869.92166730796	1
0	5110	873.432924505682	0
0	5114	876.331732511363	1
0	5119	876.677193519044	2
0	5120	877.81504388349	1
0	5125	877.986855125099	0
0	5129	878.299624846609	1
0	5134	880.165424054569	0
0	5161	882.259421127221	1
0	5164	883.35332599839	0
0	5234	894.332528271981	1
0	5241	894.71752233918	2
0	5242	895.213581894369	1
0	5247	895.3241557512	0
0	5266	897.517150683099	1
0	5271	898.755646725502	0
0	5313	909.541963856679	1
0	5318	912.466825021366	0
0	5339	918.768384653216	1
0	5343	919.99332228932	2
0	5345	920.567097022021	3
0	5347	920.887417163134	4
0	5351	922.343494055864	3
0	5358	924.552954497494	2
0	5364	924.66187826152	1
0	5369	924.740940251193	0
0	5413	929.248728319095	1
0	5416	930.276906242789	0
0	5430	931.23344793435	1
0	5432	931.317199635393	2
0	5433	931.758698354959	1
0	5439	932.982947748063	0
0	5447	933.019740519253	1
0	5448	933.061338747576	0
0	5489	941.535596258925	1
0	5491	942.443124075052	2
0	5492	943.108498715608	1
0	5497	943.362663686734	0
0	5506	944.5234688722	1
0	5510	946.720342833596	2
0	5511	947.131114657698	1
0	5516	947.191159395845	0
0	5522	947.504428057203	1
0	5525	948.354105360832	0
0	5531	948.397530840721	1
0	5532	948.70210987108	0
0	5544	949.946818683975	1
0	5545	951.329532387019	0
0	5575	954.061260022086	1
0	5576	954.314867154949	0
0	5580	954.47164326833	1
0	5583	955.174464958869	0
0	5587	956.514821880063	1
0	5592	957.718089683308	2
0	5593	957.994183294426	1
0	5602	958.34634076272	2
0	5605	958.875148207067	3
0	5607	958.983032020234	2
0	5613	959.907195355945	1
0	5617	960.014364536232	2
0	5619	960.129454031636	3
0	5627	961.648479232883	2
0	5632	961.649700373737	1
0	5637	961.903509695728	0
0	5653	964.868316294394	1
0	5658	966.121012120142	2
0	5661	966.656370963062	1
0	5668	966.883099182698	0
0	5684	969.113631992472	1
0	5685	969.275965010676	0
0	5699	971.70205979162	1
0	5700	972.151236947507	0
0	5710	974.829033241375	1
0	5711	975.443316622858	0
0	5725	976.489568081716	1
0	5726	977.128706418666	0
0	5732	977.378385514903	1
0	5733	977.9675275286	0
0	5739	978.539536381577	1
0	5740	978.667079033861	0
0	5748	979.640931755698	1
0	5749	979.717875997311	0
0	5755	979.866819199728	1
0	5756	979.88453800613	0
0	5760	980.451995170611	1
0	5763	980.9838989998	0
0	5776	982.479559123341	1
0	5778	982.816769993536	2
0	5779	982.845678886234	1
0	5783	982.987187044165	2
0	5787	983.792714392425	3
0	5788	983.916812393595	2
0	5792	984.659788139616	3
0	5798	987.447999594512	2
0	5804	987.793951453994	1
0	5813	988.454674403898	2
0	5815	988.62331757657	3
0	5819	990.315370086475	4
0	5821	990.680866791437	5
0	5823	990.789021916094	6
0	5824	991.005370248759	5
0	5829	991.091265878599	4
0	5836	991.522132051118	3
0	5841	991.902314841861	2
0	5847	992.017722993411	3
0	5849	992.169611659072	4
0	5850	992.808444149611	3
0	5856	993.422461396402	2
0	5862	995.607405899696	1
0	5867	995.719385089477	0
0	5871	995.948313744212	1
0	5873	996.507773288197	2
0	5875	997.540605846298	3
0	5878	998.292294545876	2
0	5882	998.887434487126	3
0	5885	1001.270953368069	2
0	5890	1001.65552087505	1
0	5894	1004.647099227243	2
0	5896	1004.990331523657	3
0	5898	1005.086583208117	4
0	5903	1006.128143254182	5
0	5904	1006.436548627425	4
0	5910	1007.205159566854	5
0	5911	1007.592598501269	4
0	5918	1008.319587688982	3
0	5923	1008.805619115912	2
0	5928	1009.375384675145	1
0	5932	1009.477320496304	2
0	5936	1010.748954534105	1
0	5942	1011.640227859675	0
0	5959	1012.405146877335	1
0	5962	1012.82039606067	0
0	5968	1013.610454038527	1
0	5970	1014.183757105037	0
0	5992	1015.088938975242	1
0	5994	1015.329931525915	0
0	6013	1016.275373246249	1
0	6015	1016.546564640922	0
0	6033	1020.414699885281	1
0	6038	1020.992501310276	0
0	6055	1021.80070847186	1
0	6056	1021.878700280718	0
0	6062	1022.20418267057	1
0	6066	1023.322913804663	2
0	6067	1023.387376165744	1
0	6074	1023.720663293539	0
0	6080	1023.775853112054	1
0	6082	1024.252720343912	2
0	6084	1024.555839133548	3
0	6086	1025.57175657897	2
0	6093	1026.012215432051	3
0	6095	1026.345286314541	4
0	6096	1026.359821132227	3
0	6104	1028.128839724901	4
0	6106	1028.640198517804	3
0	6112	1028.732815712815	4
0	6113	1029.364220542644	3
0	6118	1029.560179885946	2
0	6124	1030.600149023344	1
0	6128	1031.485598527503	2
0	6132	1032.582440782196	3
0	6134	1032.967031253514	4
0	6138	1033.359413295871	5
0	6140	1034.473305210773	6
0	6141	1034.698546793328	5
0	6145	1035.10742926207	6
0	6149	1037.488520656994	7
0	6151	1037.730970794914	8
0	6156	1038.610032002449	7
0	6160	1040.835183047254	8
0	6165	1042.543674601215	7
0	6172	1046.663893906854	6
0	6176	1046.746004286801	7
0	6180	1047.459089946039	6
0	6184	1047.539967782799	7
0	6186	1048.152945772013	8
0	6191	1049.520288814805	7
0	6198	1050.402161992309	6
0	6210	1052.535808946125	7
0	6211	1052.697358621149	6
0	6216	1052.838675019112	5
0	6221	1052.990656527417	4
0	6227	1053.332692879368	5
0	6229	1055.416778859412	4
0	6235	1057.820189930611	5
0	6237	1058.158139309647	6
0	6238	1058.364766412508	5
0	6244	1059.617399420362	6
0	6245	1059.672702609213	5
0	6252	1061.773994933924	4
0	6256	1062.099408610573	5
0	6259	1062.464269429984	4
0	6265	1062.831050445398	5
0	6267	1063.213141243752	6
0	6270	1063.725726403394	5
0	6275	1066.912017898683	4
0	6283	1068.632043184275	5
0	6285	1068.813496615342	6
0	6288	1068.916509257125	7
0	6289	1069.465275482202	6
0	6294	1069.890183934095	5
0	6301	1071.179386013863	4
0	6307	1073.324938449225	5
0	6310	1074.123592666179	6
0	6312	1074.619963189314	5
0	6317	1074.824532087829	4
0	6322	1075.294546229324	3
0	6328	1076.55178732171	2
0	6333	1078.187947416861	1
0	6340	1079.589207278337	0
0	6344	1080.451523611829	1
0	6346	1080.598989305559	2
0	6348	1080.952015554921	3
0	6350	1081.093902326644	4
0	6352	1081.398297973167	5
0	6356	1082.396950085843	4
0	6363	1082.874841180882	5
0	6364	1084.476379669149	4
0	6369	1085.314401193481	3
0	6373	1085.640240947495	4
0	6376	1086.46058488472	3
0	6382	1086.950087631055	4
0	6383	1087.911260672053	3
0	6390	1090.087100772262	4
0	6392	1090.484777207833	3
0	6397	1091.595881105172	2
0	6403	1091.996560027061	1
0	6408	1092.004204621973	0
0	6414	1093.302137800769	1
0	6415	1093.933581220956	0
0	6421	1095.532904362491	1
0	6422	1096.058570831439	0
0	6430	1097.086123749297	1
0	6432	1098.466346566147	0
0	6441	1101.82264095216	1
0	6442	1102.17482760989	0
0	6448	1102.350931101109	1
0	6449	1102.71502818616	0
0	6469	1106.782143214982	1
0	6470	1107.370374609731	0
0	6476	1108.907695678057	1
0	6482	1109.997900174655	2
0	6483	1110.159895923785	1
0	6487	1110.519776721352	2
0	6491	1111.633585819512	3
0	6493	1112.024956440684	2
0	6499	1112.138093546559	3
0	6502	1112.441501983764	4
0	6504	1113.499879234274	3
0	6510	1114.609767983417	2
0	6520	1115.630695160416	1
0	6526	1115.970667335674	0
0	6532	1116.713116912363	1
0	6533	1117.563945535607	0
0	6569	1122.044363432942	1
0	6572	1123.050152055007	2
0	6574	1123.748931710238	3
0	6575	1124.852868775877	2
0	6583	1125.845561043259	1
0	6589	1126.203001050064	0
0	6599	1127.139505258896	1
0	6600	1127.378275324256	0
0	6680	1141.827438579015	1
0	6683	1143.299159896017	0
0	6692	1143.769622880965	1
0	6696	1145.467020159176	2
0	6697	1146.140375751056	1
0	6709	1150.288411994786	0
0	6722	1152.412906537621	1
0	6723	1152.480826705447	0
0	6751	1159.244412490656	1
0	6753	1159.529528331702	2
0	6763	1161.430504555727	3
0	6765	1161.441247643157	4
0	6766	1161.539078929969	3
0	6773	1162.008280722466	2
0	6778	1162.078035896204	1
0	6784	1162.158949667473	2
0	6785	1162.517628475549	1
0	6790	1162.714520179245	0
0	6835	1170.281176191678	1
0	6838	1174.102442330579	0
0	6847	1175.451790905355	1
0	6853	1176.261750689118	2
0	6854	1176.433403967223	1
0	6861	1177.343058419146	0
0	6880	1179.159703639831	1
0	6882	1179.442720817455	2
0	6886	1180.821979968391	3
0	6889	1181.478435881456	2
0	6895	1181.831526748878	1
0	6901	1182.370611611395	2
0	6902	1182.429176723023	1
0	6906	1182.879029524331	2
0	6915	1187.019367733779	1
0	6921	1187.924006137755	2
0	6922	1187.943315439811	1
0	6927	1188.989410617054	0
0	6935	1190.314431499222	1
0	6936	1190.427613513837	0
0	6942	1190.910328154502	1
0	6943	1191.29807885046	0
0	6962	1195.098824484453	1
0	6964	1195.866753443352	2
0	6969	1197.789360096702	1
0	6975	1198.281707408705	2
0	6976	1198.388293927448	1
0	6981	1198.506723906833	0
0	6987	1199.179174421378	1
0	6991	1200.619719112637	0
0	7008	1202.301883877366	1
0	7010	1202.795630638546	0
0	7016	1202.928502962188	1
0	7019	1203.637384320896	0
0	7027	1204.723481296328	1
0	7031	1205.480461030344	0
0	7037	1205.522438523392	1
0	7039	1205.548858839818	0
0	7048	1206.811671614469	1
0	7049	1207.202199743871	0
0	7073	1209.270204796285	1
0	7080	1211.311612662881	0
0	7086	1211.467573582945	1
0	7088	1211.812632834983	0
0	7094	1212.093357426949	1
0	7096	1212.590408654699	0
0	7102	1212.595162191394	1
0	7103	1212.609879916502	0
0	7109	1212.712078548343	1
0	7110	1213.708852480178	0
0	7121	1214.577131494507	1
0	7124	1215.261334085474	2
0	7126	1215.265669869529	3
0	7128	1215.796008946734	4
0	7129	1216.61079968187	3
0	7134	1217.490958772262	2
0	7144	1218.85531230094	3
0	7145	1219.012980052649	2
0	7150	1219.531871906743	1
0	7155	1220.360861113523	0
0	7159	1221.001051564868	1
0	7165	1221.847703963247	0
0	7182	1222.539783273039	1
0	7185	1222.955325286763	2
0	7188	1223.748209090103	3
0	7190	1224.293105338085	2
0	7195	1224.721362771453	1
0	7200	1224.888289537551	0
0	7231	1227.947221718055	1
0	7234	1228.976343468138	0
0	7240	1229.293752354419	1
0	7244	1229.834440252659	2
0	7246	1230.832066939936	3
0	7249	1231.168502072473	4
0	7250	1231.412861927519	3
0	7258	1232.852014814468	2
0	7266	1233.304177722874	3
0	7267	1233.827149534923	2
0	7272	1233.862042583036	1
0	7278	1234.180449558681	0
0	7322	1240.59584510008	1
0	7324	1241.928466699308	2
0	7329	1243.4559565431	1
0	7335	1243.534781282985	2
0	7336	1244.204732654786	1
0	7341	1244.220908644453	0
0	7354	1245.7551358219	1
0	7357	1246.389156165572	2
0	7360	1246.750883453054	3
0	7363	1247.355720051552	4
0	7366	1248.612715373231	3
0	7373	1250.11427234825	2
0	7379	1250.624313828957	3
0	7382	1251.368773573492	4
0	7384	1251.679045317732	3
0	7391	1251.981982557202	4
0	7395	1253.187455866117	3
0	7402	1253.691578043012	2
0	7408	1253.747196527218	3
0	7409	1254.575865961501	2
0	7416	1255.317221656512	3
0	7417	1255.333107287443	2
0	7424	1255.990629667184	1
0	7430	1257.511147497792	2
0	7433	1258.511820940381	1
0	7441	1261.884187287611	2
0	7442	1261.914361424003	1
0	7446	1262.014944087995	2
0	7449	1263.017130932272	1
0	7460	1266.3992673613	0
0	7464	1266.974614801606	1
0	7467	1268.271201286043	0
0	7473	1269.994994126111	1
0	7474	1270.116824968828	0
0	7483	1272.209266134457	1
0	7485	1272.752003301919	2
0	7486	1272.7952117276	1
0	7491	1273.370879584326	0
0	7523	1274.567683097927	1
0	7526	1275.190883755748	0
0	7534	1275.953186867512	1
0	7536	1276.137911131703	2
0	7539	1276.641772634261	1
0	7544	1276.985826300562	0
0	7552	1277.09392831619	1
0	7554	1277.360788427711	2
0	7557	1278.678797448339	1
0	7565	1279.636006791897	2
0	7567	1279.734025862826	3
0	7569	1280.011945125654	4
0	7571	1280.364469821391	5
0	7575	1280.914773284579	4
0	7580	1280.984861259615	3
0	7586	1281.476573906851	2
0	7593	1282.918517851295	1
0	7598	1283.099665030868	0
0	7636	1286.554819566769	1
0	7640	1288.241876144103	0
0	7652	1290.276758210904	1
0	7653	1290.895311469129	0
0	7659	1290.951438959817	1
0	7663	1292.501913169481	2
0	7664	1292.540797681993	1
0	7670	1292.905354026197	2
0	7672	1293.70171834313	3
0	7674	1293.889697556097	4
0	7678	1295.363080684588	5
0	7681	1295.515249552078	4
0	7688	1296.419984215894	3
0	7693	1298.338648670362	2
0	7697	1298.589261059458	3
0	7701	1299.551334505732	4
0	7705	1300.106615236578	5
0	7711	1300.833914034639	6
0	7712	1302.406642146712	5
0	7720	1303.327556135063	6
0	7723	1304.480005220302	5
0	7728	1304.973808954496	4
0	7738	1308.546856115417	5
0	7740	1309.040709621934	4
0	7745	1310.325319629802	3
0	7750	1311.431343563424	2
0	7755	1312.307304532168	1
0	7760	1314.017990880391	0
0	7764	1314.396109792839	1
0	7766	1316.528128533098	2
0	7771	1317.270061996658	3
0	7772	1317.93604447292	2
0	7780	1319.091267410864	1
0	7786	1319.796305631431	2
0	7787	1320.462675636278	1
0	7793	1321.421085243553	0
0	7799	1321.947282529272	1
0	7801	1322.438104233656	2
0	7803	1323.735833430313	1
0	7809	1324.00955735589	2
0	7810	1324.18682156067	1
0	7814	1324.237346751711	2
0	7818	1325.059463915796	3
0	7819	1325.333452841892	2
0	7824	1325.691933280156	1
0	7828	1326.566205257032	2
0	7832	1326.744187239033	3
0	7834	1326.812129833422	4
0	7836	1327.236184453421	5
0	7837	1327.457760674586	4
0	7841	1327.573918243738	5
0	7843	1327.880920009845	6
0	7845	1328.704594067166	7
0	7847	1330.528516816625	8
0	7853	1331.570253383857	9
0	7855	1331.798333930521	10
0	7857	1333.785552331738	9
0	7863	1333.849457558387	10
0	7866	1334.05949411229	9
0	7870	1336.7662136386	10
0	7875	1337.511842152266	9
0	7881	1338.272901929359	10
0	7882	1338.762620304999	9
0	7886	1339.311094321	10
0	7889	1340.15532079235	9
0	7895	1341.428583693769	10
0	7898	1342.430162197761	9
0	7903	1343.864613826424	8
0	7907	1344.110706819993	9
0	7910	1345.033195651375	8
0	7915	1345.34794090203	7
0	7920	1346.293921105884	6
0	7925	1347.298434497985	5
0	7930	1348.736243259866	4
0	7935	1349.461141592136	3
0	7943	1350.325373871751	4
0	7945	1350.680868939504	5
0	7947	1350.806700004714	6
0	7948	1351.021709491591	5
0	7952	1351.456974585339	6
0	7956	1352.282384492946	7
0	7961	1354.806634793639	8
0	7962	1355.151216486293	7
0	7967	1355.365074328594	6
0	7972	1357.852494436283	5
0	7981	1359.248814071965	4
0	7985	1359.437348514189	5
0	7987	1359.493950587168	6
0	7990	1359.81317547004	5
0	7995	1361.037989262007	4
0	8002	1362.777290566313	3
0	8007	1363.93419671349	2
0	8016	1365.735747395433	1
0	8022	1367.906736491257	2
0	8024	1367.933803587283	3
0	8029	1368.772009876072	4
0	8031	1369.130790704813	5
0	8032	1370.116286463404	4
0	8038	1370.240704694583	5
0	8039	1370.387794491225	4
0	8047	1372.163529431133	3
0	8052	1372.20431892446	2
0	8060	1374.634995548378	3
0	8062	1374.870861279752	4
0	8066	1375.317822925469	5
0	8068	1375.941207766769	6
0	8069	1376.100808793089	5
0	8074	1377.066925136847	4
0	8080	1378.490659264132	5
0	8081	1379.261911292008	4
0	8087	1379.517736659771	3
0	8093	1380.066551692545	4
0	8095	1380.067306037968	5
0	8096	1380.225380543221	4
0	8101	1380.407166791782	3
0	8109	1382.413924210899	4
0	8110	1382.454279352358	3
0	8120	1384.332555539326	4
0	8121	1384.836531024223	3
0	8126	1386.534482187702	2
0	8131	1388.158348436552	1
0	8136	1389.080771001824	0
0	8140	1389.909225201854	1
0	8144	1390.151823746026	2
0	8146	1390.639756146453	3
0	8147	1391.196070281503	2
0	8151	1394.525607707385	3
0	8155	1395.758269912303	4
0	8160	1396.634304749248	3
0	8167	1398.357530513413	4
0	8168	1398.876460304596	3
0	8174	1399.249156096183	2
0	8180	1399.586817452516	3
0	8184	1401.582467162388	4
0	8186	1402.279351963645	5
0	8187	1402.310878894936	4
0	8192	1402.477313872227	3
0	8197	1403.030212255937	2
0	8204	1406.558417841617	1
0	8209	1406.847885241059	0
0	8213	1407.020392178848	1
0	8215	1408.510865422703	2
0	8220	1410.318586656618	3
0	8221	1410.364530859974	2
0	8226	1410.543643925655	1
0	8231	1410.818552945874	0
0	8237	1411.222922090863	1
0	8239	1412.501020779721	0
0	8252	1414.443438512915	1
0	8254	1414.682787307673	2
0	8256	1415.135341903712	1
0	8261	1415.316847412478	0
0	8281	1417.190095807675	1
0	8283	1417.322454079177	2
0	8284	1417.50311948167	1
0	8291	1419.072815607929	0
0	8297	1419.087500136865	1
0	8298	1419.115341354663	0
0	8304	1419.951243575735	1
0	8309	1421.759685009059	0
0	8315	1422.129375866565	1
0	8317	1422.446253002569	0
0	8351	1427.143619669719	1
0	8355	1428.311749938391	2
0	8361	1430.657792644645	1
0	8366	1430.707654622907	0
0	8372	1431.187739392589	1
0	8373	1431.318333376274	0
0	8384	1431.834166292377	1
0	8385	1431.857057758233	0
0	8391	1432.328983160823	1
0	8395	1434.094216934624	2
0	8398	1435.1010735897	1
0	8403	1436.116888493273	0
0	8414	1437.161835907525	1
0	8415	1437.69750019783	0
0	8419	1437.737810372307	1
0	8427	1438.366991096567	0
0	8434	1439.064488979922	1
0	8435	1439.448781128398	0
0	8444	1439.813238878402	1
0	8446	1441.093358077849	2
0	8449	1444.089414331054	1
0	8453	1444.115229918189	2
0	8455	1444.222153340393	3
0	8457	1444.789625591326	4
0	8459	1444.800462909886	5
0	8462	1445.14158872282	4
0	8467	1446.079547171213	3
0	8475	1446.856831793055	2
0	8480	1447.56411247142	1
0	8488	1449.173820833357	0
0	8495	1449.381525149402	1
0	8497	1449.818794262413	2
0	8498	1450.399166534578	1
0	8506	1450.782576615511	2
0	8510	1451.460171590217	1
0	8515	1451.906793320366	0
0	8521	1451.996659247371	1
0	8522	1452.138599638339	0
0	8526	1452.161828719867	1
0	8529	1454.342246493726	0
0	8561	1457.104185218314	1
0	8563	1458.165484020806	0
0	8600	1466.138256217773	1
0	8604	1468.694141263507	2
0	8606	1469.071217353355	3
0	8607	1469.374026712065	2
0	8612	1469.572154478271	1
0	8618	1469.955083029947	0
0	8634	1473.210478317467	1
0	8637	1474.048130587522	0
0	8644	1475.339493810011	1
0	8648	1476.558194578517	0
0	8656	1477.095754353695	1
0	8660	1477.438592784055	0
0	8672	1477.749553665732	1
0	8673	1478.400841239119	0
0	8679	1478.409686227585	1
0	8680	1478.49554142242	0
0	8687	1478.799125452679	1
0	8688	1478.810347339222	0
0	8703	1481.312483813638	1
0	8704	1481.505419660099	0
0	8719	1482.893760632169	1
0	8723	1484.039494603921	0
0	8729	1484.812235587258	1
0	8730	1485.299255408101	0
0	8736	1485.302644966182	1
0	8737	1486.084572226968	0
0	8760	1489.387125885423	1
0	8764	1491.13564487776	2
0	8766	1491.440225851036	3
0	8770	1491.966426334101	4
0	8771	1492.224753751803	3
0	8777	1492.333616264947	4
0	8778	1492.877256037898	3
0	8783	1493.413475880816	2
0	8788	1493.480542903819	1
0	8796	1494.37909289221	2
0	8800	1495.122625089739	3
0	8801	1495.673568703013	2
0	8807	1496.824640564973	3
0	8810	1498.696175308969	2
0	8814	1499.057216402953	3
0	8817	1499.513408955261	2
0	8821	1500.563201864705	3
0	8824	1501.03996818698	2
0	8829	1502.967839277031	1
0	8835	1503.716622272337	2
0	8836	1503.750927967081	1
0	8840	1504.007438045332	2
0	8844	1505.507574500301	1
0	8852	1506.734293981917	2
0	8853	1507.063317662399	1
0	8859	1507.258694496325	2
0	8861	1507.465113787533	3
0	8862	1507.939511601534	2
0	8866	1508.321353770264	3
0	8872	1510.620300707842	4
0	8876	1510.775874920992	5
0	8877	1510.80618485284	4
0	8881	1511.099932650115	5
0	8884	1512.140685838286	4
0	8889	1512.465466048655	3
0	8900	1513.776800109566	2
0	8904	1513.933101506346	3
0	8906	1514.234549409895	4
0	8911	1514.963133679451	3
0	8918	1516.600877639049	2
0	8922	1516.902450764052	3
0	8926	1517.334993150433	2
0	8932	1517.611086434561	3
0	8934	1518.155654929104	2
0	8940	1518.228224864561	3
0	8942	1518.482291548569	2
0	8949	1519.608735567537	1
0	8953	1519.658385671093	2
0	8955	1519.977043440118	3
0	8957	1520.161709657276	4
0	8963	1521.161141331758	5
0	8964	1521.329115999442	4
0	8968	1521.374982596981	5
0	8972	1522.340323062337	4
0	8978	1522.454414454741	5
0	8979	1522.756216424032	4
0	8988	1526.559878784299	3
0	8994	1527.56861766445	4
0	8996	1527.888641827409	5
0	8999	1530.28379865047	4
0	9003	1530.339050687434	5
0	9005	1530.689180933516	6
0	9007	1532.892083403925	7
0	9010	1533.279615507543	6
0	9018	1539.009670299785	7
0	9023	1540.206561489409	6
0	9028	1540.82836885129	5
0	9033	1541.574583342418	4
0	9038	1543.32161357742	3
0	9044	1543.529881860532	4
0	9046	1543.984187560697	5
0	9049	1544.455993986924	4
0	9055	1545.172906480734	3
0	9060	1545.24264224904	2
0	9068	1549.552791706688	1
0	9073	1549.966681113355	0
0	9084	1551.205455827743	1
0	9085	1551.212476696604	0
0	9089	1551.49251794978	1
0	9091	1552.080910139029	2
0	9093	1552.279097764209	3
0	9099	1552.738246747375	4
0	9101	1552.927178178568	5
0	9104	1553.335931650376	6
0	9107	1553.964848533628	5
0	9111	1554.116678763068	6
0	9114	1555.490013552433	5
0	9118	1555.491338508135	6
0	9127	1557.272865537835	5
0	9131	1557.349203926564	6
0	9136	1559.542504953134	5
0	9140	1559.629344795645	6
0	9144	1561.178813047039	7
0	9148	1562.312223844614	6
0	9153	1562.678318187845	5
0	9157	1562.783605512221	6
0	9160	1563.226886463546	5
0	9164	1564.116648934921	6
0	9172	1567.749886474677	7
0	9176	1569.631235689273	8
0	9177	1570.643000106842	7
0	9181	1571.507873853527	8
0	9183	1571.71901671466	9
0	9187	1572.737918485952	10
0	9190	1572.997000692445	9
0	9194	1573.161454957755	10
0	9196	1573.490313610469	11
0	9198	1574.139073266758	12
0	9201	1575.103515991337	11
0	9205	1575.989112937132	12
0	9208	1576.746851451762	11
0	9213	1577.258185878122	10
0	9218	1577.786490860851	9
0	9222	1577.915083206409	10
0	9224	1578.277360171383	11
0	9227	1580.64665681392	10
0	9232	1581.978803771996	9
0	9240	1582.383964395008	10
0	9242	1582.568244905384	11
0	9244	1583.755150016057	10
0	9249	1584.157734798944	9
0	9255	1585.082617408554	8
0	9264	1586.488713950033	9
0	9266	1589.249108209155	10
0	9267	1589.82865158912	9
0	9273	1591.52576431229	8
0	9281	1593.440020352447	9
0	9283	1594.056429733813	10
0	9285	1594.160817549683	11
0	9286	1595.477322998155	10
0	9291	1596.266758423099	9
0	9295	1596.353522340667	10
0	9297	1596.591784486135	11
0	9299	1597.062889628766	12
0	9303	1600.346649190542	13
0	9304	1600.362482359804	12
0	9308	1601.10782821206	13
0	9314	1604.127998528332	14
0	9315	1604.160839762236	13
0	9321	1604.489500886295	14
0	9324	1605.410578016216	13
0	9330	1607.693168370063	14
0	9331	1607.782876948681	13
0	9337	1608.412043229563	14
0	9342	1611.154200142716	13
0	9348	1612.572624823831	14
0	9351	1613.431571521378	13
0	9358	1614.972701538861	12
0	9363	1615.554554923246	11
0	9369	1615.952035614962	12
0	9370	1616.129381239891	11
0	9374	1617.810762332832	12
0	9380	1621.160533692448	13
0	9385	1623.130153687243	12
0	9390	1623.734272089308	11
0	9395	1627.096626901055	10
0	9401	1627.757950579303	11
0	9402	1630.208894417636	10
0	9409	1634.018651945373	9
0	9414	1636.52274274784	8
0	9419	1637.058514568541	7
0	9424	1638.194787278613	6
0	9433	1639.563136817705	5
0	9442	1641.322493919328	4
0	9451	1643.149127295802	5
0	9452	1643.342261500782	4
0	9458	1643.737709060014	5
0	9460	1644.200032253286	6
0	9463	1644.475313363068	5
0	9468	1645.788985651531	4
0	9473	1647.73532525895	3
0	9478	1648.31153793846	2
0	9484	1649.946389391444	3
0	9486	1650.007316942094	4
0	9487	1650.067845166679	3
0	9491	1650.210433703844	4
0	9494	1652.850978037621	3
0	9502	1654.297018747975	2
0	9507	1655.29989794184	1
0	9512	1656.646267484063	0
0	9523	1658.507949803904	1
0	9524	1658.866081301143	0
0	9536	1660.852982437468	1
0	9540	1663.534260115993	0
0	9546	1663.545976984375	1
0	9547	1664.120171169702	0
0	9560	1665.05929034893	1
0	9562	1665.729924529111	2
0	9564	1666.601204592708	1
0	9571	1668.538180630134	2
0	9572	1668.674276802323	1
0	9578	1668.860354906919	2
0	9580	1669.620565796104	3
0	9581	1670.34274038469	2
0	9586	1670.352556649222	1
0	9591	1670.761463261877	0
0	9612	1672.867256530143	1
0	9614	1673.441606476087	2
0	9618	1675.254702290066	1
0	9624	1675.275802731196	2
0	9626	1675.964483474415	3
0	9627	1676.014689652185	2
0	9631	1676.630381891078	3
0	9634	1677.72720691091	2
0	9638	1677.734860283487	3
0	9640	1677.879240384895	4
0	9645	1678.543829643134	3
0	9651	1680.19459433617	2
0	9657	1680.792872786979	3
0	9660	1681.239134906919	4
0	9667	1683.106268981351	3
0	9671	1683.189129942637	4
0	9675	1683.848601385178	3
0	9680	1684.32052917298	2
0	9684	1684.363832942706	3
0	9687	1686.013107071386	2
0	9693	1688.190034265391	1
0	9699	1688.95601626352	0
0	9705	1689.186525807625	1
0	9706	1689.700186428196	0
0	9710	1689.7963517686	1
0	9714	1690.073304786042	2
0	9716	1690.408304562136	1
0	9721	1690.517324824141	0
0	9755	1696.793415806796	1
0	9758	1698.938089458658	0
0	9764	1699.288179846579	1
0	9769	1700.618533387573	0
0	9775	1700.912455192006	1
0	9776	1701.311836135909	0
0	9807	1703.469935318864	1
0	9808	1703.919823712979	0
0	9831	1706.944790777657	1
0	9832	1707.037938590319	0
0	9845	1709.533370578557	1
0	9846	1709.937184933762	0
0	9857	1710.124112386441	1
0	9860	1714.016887662716	0
0	9872	1714.689024166505	1
0	9874	1715.120883587879	2
0	9879	1715.737774146402	3
0	9880	1717.007602395134	2
0	9885	1717.030148496543	1
0	9890	1717.471723762742	0
0	9902	1718.440927681176	1
0	9904	1718.481256322131	2
0	9906	1718.548226056179	3
0	9907	1719.075833725593	2
0	9914	1719.821621938223	1
0	9919	1720.21007238712	0
0	9943	1722.961408895496	1
0	9945	1723.444041525484	2
0	9950	1725.01389593265	3
0	9951	1725.126008806176	2
0	9959	1725.30207324382	3
0	9962	1725.598465779135	2
0	9968	1726.185688670094	1
0	9973	1726.277853714644	0
0	9993	1727.961306302139	1
0	9994	1728.295672189334	0
0	10001	1729.26535714583	1
0	10008	1730.472626523553	0
0	10015	1732.497128375751	1
0	10016	1732.535195006341	0
0	10023	1732.962013050328	1
0	10025	1733.01001821545	2
0	10031	1734.066257884786	1
0	10045	1737.256818790591	0
0	10082	1740.959444475613	1
0	10084	1740.96833166621	2
0	10087	1741.37765500525	3
0	10089	1741.57485758395	2
0	10095	1741.623044365551	3
0	10101	1742.056182352303	2
0	10109	1742.65438905117	1
0	10114	1743.087708467262	0
0	10126	1743.844807686522	1
0	10128	1744.779398646244	0
0	10196	1754.007991196716	1
0	10198	1754.431996266646	2
0	10199	1754.789694695977	1
0	10204	1754.852167041724	0
0	10211	1755.697058509147	1
0	10212	1755.928003748658	0
0	10218	1755.988629377769	1
0	10219	1756.093550391114	0
0	10235	1757.19328808822	1
0	10237	1759.256841387746	0
0	10251	1759.939970009427	1
0	10252	1760.544261548497	0
0	10267	1761.570794276999	1
0	10271	1762.559029575502	2
0	10273	1762.701714206317	1
0	10279	1762.717137842367	2
0	10282	1763.595319121531	1
0	10288	1764.033597814432	0
0	10300	1765.541846000861	1
0	10302	1765.75282718322	2
0	10304	1765.977946251916	1
0	10310	1766.111328810522	0
0	10316	1766.295332415979	1
0	10318	1766.533661207265	0
0	10326	1767.645485919471	1
0	10328	1767.737368009484	2
0	10329	1768.133802568393	1
0	10335	1768.220313088834	2
0	10336	1768.230286725121	1
0	10343	1770.065715565313	2
0	10344	1770.264666163098	1
0	10352	1772.689870286002	0
0	10366	1774.406391985734	1
0	10367	1775.445652681393	0
0	10382	1778.906102506012	1
0	10384	1780.037028572754	2
0	10386	1780.365718743767	1
0	10392	1780.567386751201	2
0	10393	1780.717730654273	1
0	10399	1781.389166506854	0
0	10410	1781.813418792579	1
0	10411	1781.838749370249	0
0	10430	1783.507239846014	1
0	10432	1783.57964292552	2
0	10433	1783.673460845803	1
0	10440	1784.826992101874	0
0	10452	1785.205604225827	1
0	10453	1785.577313994144	0
0	10460	1785.851527610813	1
0	10462	1786.992695074286	0
0	10476	1788.483402731103	1
0	10477	1789.69025839149	0
0	10506	1791.286662811383	1
0	10507	1791.830464068104	0
0	10539	1797.001349686692	1
0	10540	1797.2868945849	0
0	10559	1799.655360624941	1
0	10563	1800.154554000592	2
0	10564	1800.163714937658	1
0	10569	1800.630374005081	0
0	10575	1800.689082633982	1
0	10576	1801.461633959729	0
0	10589	1802.565555485999	1
0	10591	1802.762722597707	2
0	10593	1803.61153551891	3
0	10596	1804.685804954145	2
0	10601	1805.339585090422	1
0	10606	1805.677484578498	0
0	10630	1809.154643852991	1
0	10633	1809.782295100052	0
0	10644	1810.908824347557	1
0	10648	1811.075501223735	2
0	10649	1811.172559812554	1
0	10655	1811.257070943068	2
0	10661	1812.530591160583	1
0	10667	1813.103432558338	2
0	10672	1814.796131844857	3
0	10674	1815.035179837559	2
0	10682	1815.398700661438	3
0	10685	1816.032903353681	2
0	10690	1816.305634126838	1
0	10694	1816.837904868992	2
0	10698	1817.404162188193	1
0	10704	1817.700241481612	0
0	10733	1821.90147844409	1
0	10737	1823.133849037796	2
0	10738	1823.31583863943	1
0	10744	1823.622524667991	2
0	10745	1824.853045554474	1
0	10752	1825.474508489904	0
0	10768	1826.42942183698	1
0	10771	1827.621873829591	0
0	10783	1829.285468372354	1
0	10786	1829.578923293254	0
0	10809	1831.726786608199	1
0	10811	1831.831441265801	2
0	10812	1832.308241271784	1
0	10818	1832.814216067848	2
0	10819	1833.609000500093	1
0	10826	1834.190301006737	0
0	10858	1838.272171909292	1
0	10861	1838.832161485919	0
0	10884	1842.222848981586	1
0	10885	1842.322920696325	0
0	10909	1843.50411807699	1
0	10912	1843.683902217254	2
0	10914	1843.772745201651	3
0	10915	1843.938562886595	2
0	10921	1844.802721914668	1
0	10928	1845.533926154213	2
0	10930	1846.070965482221	1
0	10935	1846.084907679135	0
0	10971	1849.852294426125	1
0	10973	1850.664388354533	2
0	10975	1850.860551648483	3
0	10979	1852.471460559987	2
0	10984	1852.663396546844	1
0	10989	1852.990188271646	0
0	11001	1854.255411298894	1
0	11002	1855.072818131113	0
0	11011	1855.610706765937	1
0	11017	1856.844411278679	2
0	11021	1858.542141988802	3
0	11022	1859.893505858302	2
0	11026	1860.555668844164	3
0	11030	1861.348627398716	4
0	11032	1861.528692243925	5
0	11036	1863.180867143615	4
0	11043	1863.628573966933	3
0	11048	1864.745979056854	2
0	11053	1865.377003823254	1
0	11059	1867.521971922104	2
0	11064	1868.786977958888	1
0	11069	1869.102399348447	0
0	11073	1869.120658568554	1
0	11084	1873.78126653879	0
0	11090	1874.035408856737	1
0	11091	1874.943826319118	0
0	11095	1875.124814573648	1
0	11097	1875.495892891624	2
0	11101	1875.726080032823	3
0	11102	1875.763442061341	2
0	11110	1877.127294840686	3
0	11111	1877.162695751831	2
0	11116	1879.089753314721	1
0	11120	1879.256058659339	2
0	11122	1879.342212424401	3
0	11126	1882.267994362662	4
0	11128	1882.714521456371	5
0	11129	1882.974493619489	4
0	11133	1882.997712029114	5
0	11135	1883.439414752384	6
0	11138	1885.379917295766	5
0	11144	1887.07755140916	4
0	11149	1887.144518913736	3
0	11156	1891.363853146589	2
0	11162	1892.04336009888	3
0	11163	1892.046657728103	2
0	11168	1892.679647958122	1
0	11172	1892.692498515262	2
0	11175	1894.692158031153	1
0	11181	1896.277131240022	2
0	11185	1897.27687102515	1
0	11190	1897.316185558546	0
0	11194	1897.527354709734	1
0	11197	1898.213976583727	0
0	11201	1898.31672124003	1
0	11204	1900.928397689403	0
0	11246	1903.849631858198	1
0	11247	1904.187393339987	0
0	11253	1904.743832697881	1
0	11254	1905.663565978303	0
0	11260	1906.332706696251	1
0	11261	1906.400154305819	0
0	11267	1906.566691238906	1
0	11268	1906.859160303142	0
0	11274	1906.984092024833	1
0	11275	1907.492224703365	0
0	11286	1908.409318122777	1
0	11289	1908.83209833905	0
0	11299	1912.23830834489	1
0	11303	1912.904273533256	2
0	11306	1913.281712609958	1
0	11312	1913.344373229992	2
0	11321	1913.863564656461	3
0	11322	1914.006969994256	2
0	11327	1914.509858095098	1
0	11334	1915.336487588848	0
0	11338	1916.038707193362	1
0	11340	1916.355177600376	2
0	11344	1918.038526934025	3
0	11349	1918.528340587064	2
0	11354	1918.973480316989	1
0	11360	1919.323822796947	2
0	11367	1919.905836574882	3
0	11368	1920.439621870997	2
0	11376	1921.198897999679	1
0	11383	1922.600605313621	0
0	11407	1931.531624735164	1
0	11410	1932.53529463442	0
0	11414	1932.848293257729	1
0	11416	1935.055614826775	2
0	11420	1935.930699275048	3
0	11424	1936.612126526055	4
0	11427	1937.431754398984	3
0	11432	1938.301977023197	2
0	11437	1941.397790661135	1
0	11444	1942.420812155536	0
0	11456	1943.128639631069	1
0	11461	1944.39343377003	0
0	11503	1946.725883884313	1
0	11507	1949.828167556322	0
0	11513	1949.934642040418	1
0	11514	1950.291505292287	0
0	11539	1953.772360442155	1
0	11541	1953.793869480567	2
0	11543	1953.98661976747	1
0	11549	1954.333344073621	2
0	11551	1954.454608503603	3
0	11553	1955.651669859984	2
0	11562	1956.827531814559	3
0	11565	1957.160291498359	4
0	11566	1957.427820441552	3
0	11573	1959.051427867535	4
0	11574	1959.074753023386	3
0	11579	1959.765329491364	2
0	11585	1960.353192305064	1
0	11590	1960.449096595182	0
0	11601	1960.855566647151	1
0	11603	1963.54532478175	0
0	11609	1964.210835381263	1
0	11612	1964.726855863801	0
0	11634	1965.849705844683	1
0	11636	1966.441612144356	0
0	11681	1974.173651941496	1
0	11682	1974.510519642434	0
0	11695	1976.959553401343	1
0	11697	1979.908359076514	2
0	11705	1981.855050119744	3
0	11709	1982.80250928426	4
0	11712	1983.522026682255	3
0	11717	1983.636391178642	2
0	11723	1983.740793739188	3
0	11725	1984.930931093349	2
0	11735	1985.897214809072	1
0	11741	1986.650841039817	0
0	11764	1987.950475464628	1
0	11766	1988.067014855771	2
0	11768	1988.070692537285	3
0	11769	1988.126991640213	2
0	11774	1989.600785712678	1
0	11778	1990.774930991595	2
0	11782	1991.712737057553	3
0	11785	1992.103767169526	2
0	11791	1992.925579404328	3
0	11792	1993.254120637763	2
0	11796	1994.455126312352	3
0	11802	1996.813618537074	4
0	11803	1996.910253366507	3
0	11809	1997.078198850168	4
0	11812	1998.277058224893	5
0	11815	1998.807359222778	4
0	11820	1998.82259003651	3
0	11828	2000.696272683223	4
0	11830	2000.741436635546	5
0	11832	2001.045849569476	6
0	11837	2002.781964544526	7
0	11838	2002.943349366833	6
0	11842	2004.384110683639	7
0	11846	2005.699414730178	8
0	11849	2006.257743853342	7
0	11856	2007.282560000104	6
0	11863	2008.188243463395	5
0	11868	2008.987907388538	4
0	11872	2010.063459243889	5
0	11877	2011.598190104904	4
0	11883	2012.647111361273	5
0	11885	2012.780874479421	6
0	11888	2015.713328037796	5
0	11894	2017.235322936396	4
0	11900	2018.172985665115	5
0	11902	2018.961106525838	4
0	11907	2019.356300968889	3
0	11911	2019.511610149647	4
0	11914	2019.897039123315	3
0	11918	2020.125541760525	4
0	11923	2022.123091164674	3
0	11927	2022.332703148828	4
0	11929	2022.402402586552	5
0	11932	2024.132725453472	4
0	11939	2025.601601977038	3
0	11944	2026.936421489003	2
0	11950	2027.113625123314	3
0	11952	2027.28143881245	4
0	11953	2027.314438950726	3
0	11957	2028.441118928446	4
0	11959	2030.231363998067	5
0	11961	2030.302635582239	6
0	11964	2031.318704744429	5
0	11971	2033.922424192863	6
0	11973	2035.208508453191	7
0	11974	2035.414585879193	6
0	11979	2035.826204812116	5
0	11983	2036.22206643647	6
0	11987	2039.27735087976	5
0	11992	2040.210293460117	4
0	11998	2043.625692785308	5
0	12000	2044.593558736401	6
0	12002	2044.843569882488	7
0	12004	2045.084796236591	8
0	12010	2045.699002500339	9
0	12012	2046.951992448921	8
0	12017	2047.004005117347	7
0	12021	2047.696483859953	8
0	12023	2048.40999077844	9
0	12029	2050.124669733647	10
0	12030	2050.510616073527	9
0	12036	2052.452800457873	8
0	12042	2054.088518936724	7
0	12049	2054.912903204712	8
0	12050	2055.045991558405	7
0	12055	2055.374567177139	6
0	12060	2055.740964643671	5
0	12064	2056.192207180642	6
0	12066	2056.251514039814	7
0	12071	2057.519323136193	6
0	12076	2057.678617343642	5
0	12082	2057.857514137599	6
0	12083	2058.13732511518	5
0	12087	2059.039097993174	6
0	12089	2059.158499812561	7
0	12091	2060.031618147493	8
0	12093	2060.19616103778	9
0	12100	2061.219502086412	10
0	12102	2061.35355081345	11
0	12106	2062.312988626518	10
0	12112	2063.675858787177	11
0	12115	2064.346587615181	10
0	12121	2064.538083302115	11
0	12123	2065.910235562642	10
0	12128	2066.01599589643	9
0	12134	2066.868328060842	10
0	12136	2066.989394998736	11
0	12137	2067.105778972257	10
0	12142	2070.682718235328	9
0	12147	2074.061053083167	8
0	12154	2075.048277082292	7
0	12158	2075.19018777216	8
0	12161	2077.31644923888	7
0	12165	2077.339083417334	8
0	12169	2077.719607646886	9
0	12170	2078.342817140137	8
0	12175	2078.787893885291	7
0	12182	2080.963787124135	6
0	12187	2085.321751348169	5
0	12198	2089.274253458601	4
0	12203	2090.690623665295	3
0	12209	2091.780190804163	4
0	12214	2093.41406970356	3
0	12220	2093.896005000877	4
0	12223	2095.258663910517	3
0	12230	2096.164861533947	2
0	12234	2096.220195083167	3
0	12240	2097.416043450353	2
0	12246	2097.557055732951	3
0	12247	2098.245444266962	2
0	12254	2098.341176139706	1
0	12258	2099.068508611461	2
0	12262	2100.062557659301	1
0	12267	2100.215753833387	0
0	12273	2101.478860330586	1
0	12277	2102.131102333235	2
0	12278	2102.991962746312	1
0	12284	2104.217706973702	2
0	12285	2104.327292191147	1
0	12290	2105.362024268759	0
0	12294	2105.616897298534	1
0	12296	2105.621251378544	2
0	12300	2108.342015872291	3
0	12302	2108.975888619249	4
0	12304	2109.641968504206	5
0	12308	2110.268742629297	4
0	12314	2110.49831207916	3
0	12321	2111.950600211144	2
0	12326	2112.02475006573	1
0	12332	2112.35494709768	0
0	12368	2113.710526903071	1
0	12371	2113.875827489586	2
0	12373	2114.545881742844	3
0	12374	2114.589799271028	2
0	12380	2116.274630132416	1
0	12384	2119.211031640769	2
0	12387	2119.869217813929	1
0	12395	2120.511160155602	0
0	12414	2123.995314118947	1
0	12418	2124.51156373238	0
0	12436	2126.76191314077	1
0	12441	2127.498551330862	0
0	12451	2128.626615811021	1
0	12458	2131.258217934593	0
0	12472	2133.666995089258	1
0	12479	2137.822835610886	2
0	12480	2138.000733845217	1
0	12485	2138.563486322387	0
0	12508	2142.566779485641	1
0	12512	2144.334204713546	2
0	12513	2145.191696805854	1
0	12519	2145.67795345881	2
0	12522	2146.008023005224	3
0	12523	2146.015702621226	2
0	12531	2146.248553127912	3
0	12532	2146.331365016321	2
0	12537	2146.966046153716	1
0	12546	2148.54801824667	0
0	12570	2149.339120270012	1
0	12572	2149.815288852702	2
0	12576	2151.262035535573	3
0	12582	2152.585977176814	2
0	12591	2153.614854332425	1
0	12596	2154.110583662751	0
0	12611	2156.011531407621	1
0	12614	2156.886368376729	0
0	12670	2164.412779361804	1
0	12671	2164.9857905583	0
0	12699	2168.142721000942	1
0	12703	2170.271453297248	0
0	12720	2173.549720827412	1
0	12723	2174.037757034283	0
0	12731	2174.620221142691	1
0	12734	2176.775510726013	0
0	12745	2177.826281157751	1
0	12747	2178.231362777127	2
0	12748	2178.408452491458	1
0	12754	2179.598621520619	0
0	12791	2185.544195210414	1
0	12793	2185.900927549314	2
0	12797	2186.057265229958	3
0	12799	2186.289327033003	4
0	12802	2187.641501347833	5
0	12805	2191.434724608611	4
0	12810	2191.586195733763	3
0	12816	2191.93968809434	2
0	12821	2192.156648628944	1
0	12827	2192.349365693835	2
0	12828	2192.383641084099	1
0	12837	2194.367035225825	0
0	12843	2195.671882748626	1
0	12844	2196.408699304246	0
0	12857	2197.484718712473	1
0	12859	2197.689638908578	2
0	12861	2197.80600130655	3
0	12865	2198.527511594803	2
0	12873	2199.017236820706	3
0	12874	2200.035169440953	2
0	12880	2200.536336784131	3
0	12882	2200.589295040913	4
0	12884	2200.904862478497	3
0	12889	2201.213359491249	2
0	12897	2201.922413904313	3
0	12899	2202.219436679141	4
0	12903	2204.033451138889	5
0	12904	2204.096452665578	4
0	12910	2204.661950535885	5
0	12911	2204.713346201914	4
0	12916	2205.028371116767	3
0	12921	2206.657224182103	2
0	12925	2208.757852139995	3
0	12932	2210.990206060767	4
0	12933	2211.345310287423	3
0	12938	2211.543511810926	2
0	12943	2214.296611405944	1
0	12949	2216.145580318341	2
0	12950	2216.903108321739	1
0	12954	2217.667167876384	2
0	12956	2219.003094803815	3
0	12958	2219.576949537833	4
0	12963	2220.730430695076	5
0	12967	2220.958742126447	6
0	12968	2221.550446088585	5
0	12973	2222.125216254909	4
0	12981	2223.547178331233	5
0	12984	2224.252633135939	4
0	12992	2226.637869797578	5
0	12993	2226.682176356919	4
0	13001	2227.988752296138	3
0	13008	2228.876099725068	2
0	13012	2228.931642712586	3
0	13014	2229.364174951797	4
0	13018	2230.283424750131	3
0	13023	2230.5165217496	2
0	13031	2231.880688333467	1
0	13036	2231.886899263007	0
0	13084	2236.578374785969	1
0	13086	2236.826628481782	2
0	13092	2239.27272964243	3
0	13093	2239.585425692204	2
0	13100	2239.75424692604	3
0	13102	2240.5385473147	2
0	13107	2240.843593977776	1
0	13113	2240.872492274853	2
0	13115	2241.224989644893	1
0	13121	2241.457227391772	2
0	13123	2242.552402812515	1
0	13129	2243.64159748881	0
0	13146	2245.35145068926	1
0	13148	2245.985567988295	0
0	13164	2247.125733344077	1
0	13165	2247.351170711729	0
0	13183	2249.215251767728	1
0	13185	2249.374083788905	2
0	13187	2249.457706748171	3
0	13188	2249.478159701143	2
0	13194	2250.099243161399	1
0	13201	2251.604629320648	0
0	13210	2252.079245326434	1
0	13212	2252.193401999011	2
0	13213	2252.344750010557	1
0	13219	2252.493313054194	0
0	13231	2253.35779337319	1
0	13235	2254.272946506044	2
0	13237	2255.293350968324	3
0	13238	2256.8311406342	2
0	13244	2257.194385249089	1
0	13250	2257.418151397625	2
0	13252	2257.469391061093	3
0	13254	2258.628916229854	2
0	13259	2259.199943721771	1
0	13264	2259.385179939429	0
0	13276	2260.61973256901	1
0	13278	2261.809796916363	0
0	13284	2262.10118297363	1
0	13285	2262.124910273561	0
0	13313	2264.188047575103	1
0	13316	2264.873973660314	0
0	13350	2271.10828581455	1
0	13353	2271.613494013774	0
0	13362	2272.150492639251	1
0	13364	2272.652643367256	2
0	13366	2272.664043702472	3
0	13369	2273.819210599086	2
0	13374	2274.176212752186	1
0	13378	2275.466115772746	2
0	13382	2276.371019076915	1
0	13387	2278.158975039256	0
0	13396	2279.419811001878	1
0	13398	2280.143268324381	2
0	13405	2282.071721137972	1
0	13411	2282.532695261102	0
0	13439	2285.319939464144	1
0	13441	2285.47544056186	0
0	13447	2285.635126764634	1
0	13448	2285.914626360099	0
0	13456	2287.274302517639	1
0	13458	2288.241579201229	2
0	13463	2289.630357879698	1
0	13468	2290.185104543202	0
0	13481	2291.277640237503	1
0	13483	2291.727422816391	2
0	13484	2292.192116710549	1
0	13492	2294.16708278914	2
0	13493	2295.001628199351	1
0	13499	2295.077609021965	2
0	13500	2295.17907469164	1
0	13504	2298.473040119041	2
0	13507	2299.933462903096	1
0	13515	2301.872274724649	0
0	13519	2302.598091522522	1
0	13521	2303.012945516084	2
0	13525	2304.821466831694	1
0	13530	2305.14332316076	0
0	13579	2310.020022194147	1
0	13580	2311.965313638188	0
0	13587	2312.781983649017	1
0	13589	2313.487289970125	2
0	13590	2313.86228530095	1
0	13596	2315.084867095386	2
0	13597	2315.643231674553	1
0	13603	2316.072656858112	0
0	13633	2321.722438318859	1
0	13638	2322.715299860698	2
0	13639	2322.719672804105	1
0	13645	2323.036479794947	0
0	13660	2323.79609763284	1
0	13663	2324.565116720536	0
0	13676	2325.956127045128	1
0	13677	2326.433221080991	0
0	13690	2329.539178790826	1
0	13692	2329.856346513878	2
0	13693	2331.057781187338	1
0	13700	2331.374154016603	2
0	13701	2331.805529525129	1
0	13706	2331.898832989881	0
0	13722	2332.659542265166	1
0	13724	2332.958371765396	2
0	13726	2334.113784576661	1
0	13732	2335.039518728599	0
0	13743	2335.064223420973	1
0	13745	2336.077130269915	0
0	13753	2337.262390833041	1
0	13754	2337.432338243523	0
0	13773	2340.002531773133	1
0	13774	2340.393318944631	0
0	13803	2341.844257141655	1
0	13804	2342.266077090724	0
0	13816	2343.122398374952	1
0	13817	2343.864186984387	0
0	13830	2346.794326354527	1
0	13831	2347.478710905046	0
0	13855	2350.757787026092	1
0	13856	2350.785486202677	0
0	13862	2351.071256767736	1
0	13864	2351.882687872452	0
0	13873	2353.488990520111	1
0	13875	2354.550249371451	2
0	13881	2355.749582190219	1
0	13889	2356.748059966452	2
0	13890	2357.266995097959	1
0	13895	2358.236674650467	0
0	13906	2359.135087671008	1
0	13912	2359.67186140305	2
0	13915	2360.303078296784	1
0	13922	2360.793017584471	0
0	13928	2360.896777710355	1
0	13929	2361.173645116557	0
0	13974	2370.661826216066	1
0	13976	2372.709792455207	2
0	13978	2373.965169562534	3
0	13980	2376.900762971274	4
0	13983	2377.792760673255	3
0	13991	2378.296189820192	4
0	13992	2378.612934356842	3
0	13998	2379.578269337852	2
0	14004	2380.287977929706	3
0	14005	2380.402646594168	2
0	14014	2381.64821601401	3
0	14016	2381.762904861589	4
0	14017	2382.512006723978	3
0	14023	2382.582469092869	4
0	14024	2382.764726492433	3
0	14030	2382.904785211298	4
0	14031	2383.362502887875	3
0	14036	2383.528597736191	2
0	14040	2383.868099646388	3
0	14042	2384.985904512704	4
0	14047	2386.466789300567	3
0	14057	2387.036005086908	2
0	14065	2388.163057887696	1
0	14073	2389.311276785136	2
0	14074	2389.337469291228	1
0	14079	2389.63289545322	0
0	14083	2390.268061392352	1
0	14088	2390.964759400041	0
0	14092	2391.076957093425	1
0	14096	2391.83009400651	2
0	14101	2392.965832476459	1
0	14106	2394.867738783888	0
0	14110	2395.492592991206	1
0	14114	2396.38040562634	2
0	14115	2396.618199303063	1
0	14119	2397.286556999094	2
0	14123	2397.992636326589	1
0	14128	2398.199541462457	0
0	14135	2399.816010216735	1
0	14136	2400.220956882693	0
0	14142	2400.382442962913	1
0	14143	2400.442998674302	0
0	14149	2400.95318436109	1
0	14152	2402.154778280491	2
0	14153	2402.54718029538	1
0	14158	2402.883160283982	0
0	14162	2403.5850838953	1
0	14164	2404.184952162541	2
0	14167	2404.52584116165	1
0	14172	2405.22336264338	0
0	14192	2409.599515460973	1
0	14193	2409.712510867218	0
0	14209	2410.388741483152	1
0	14211	2411.410145204032	2
0	14213	2411.756999457101	1
0	14219	2413.314829285841	2
0	14222	2413.608163478497	1
0	14231	2414.589092689018	0
0	14237	2415.200744414133	1
0	14238	2415.281665043196	0
0	14246	2416.995042149739	1
0	14251	2421.183209029734	0
0	14257	2421.336880108814	1
0	14259	2422.41094156721	0
0	14266	2422.719498792073	1
0	14268	2424.134964980205	2
0	14270	2424.836162230667	1
0	14275	2425.110289287804	0
0	14288	2426.617967766527	1
0	14290	2426.767975204052	2
0	14291	2426.830733330237	1
0	14296	2427.009302136686	0
0	14324	2428.908119283116	1
0	14325	2430.063092880629	0
0	14337	2430.567862674665	1
0	14339	2430.63764823417	2
0	14341	2430.656336957304	3
0	14342	2430.755262544778	2
0	14348	2430.865909327055	1
0	14354	2431.128707310779	2
0	14355	2431.931791630606	1
0	14361	2432.106639187816	0
0	14377	2435.269237260072	1
0	14382	2437.935302404633	0
0	14402	2442.28255876154	1
0	14403	2442.693601211749	0
0	14410	2444.096914945142	1
0	14415	2444.498156143497	0
0	14419	2444.557560517845	1
0	14425	2446.626146777278	0
0	14435	2450.666640722047	1
0	14436	2450.734085293739	0
0	14476	2454.646707698885	1
0	14477	2454.958044055589	0
0	14496	2458.226770862116	1
0	14500	2459.605584068677	2
0	14503	2460.654148696508	1
0	14510	2461.106789246793	2
0	14512	2461.812621065858	3
0	14517	2465.343534012376	2
0	14522	2465.349544516868	1
0	14528	2465.608165900423	0
0	14575	2473.753673149102	1
0	14577	2474.065094248551	2
0	14578	2476.361615711404	1
0	14586	2477.318422103053	0
0	14618	2482.392095988474	1
0	14619	2482.649948039866	0
0	14626	2482.995214057148	1
0	14628	2483.724478242418	0
0	14647	2485.415791664047	1
0	14649	2487.534534557826	0
0	14702	2498.496051790159	1
0	14703	2498.586981277437	0
0	14723	2500.291202755508	1
0	14724	2500.680166538548	0
0	14743	2501.377031786082	1
0	14751	2504.459649122417	0
0	14771	2506.350615931191	1
0	14773	2506.69045237564	2
0	14776	2507.820491351811	3
0	14779	2508.444801721948	2
0	14784	2509.60474089633	1
0	14789	2509.999976779069	0
0	14798	2510.710263614531	1
0	14801	2511.499054978558	0
0	14826	2514.850089682963	1
0	14828	2516.516715622662	2
0	14834	2517.615941643499	1
0	14839	2517.67753159956	0
0	14904	2527.47261862959	1
0	14905	2528.015547648464	0
0	14914	2528.708283456249	1
0	14915	2528.723260032171	0
0	14934	2530.061631382171	1
0	14935	2531.112992377049	0
0	14941	2531.185289786721	1
0	14943	2531.661359734891	2
0	14945	2531.730421859249	1
0	14951	2532.207436174636	0
0	14957	2532.592042536229	1
0	14959	2532.842276243241	2
0	14961	2533.534359645672	3
0	14963	2534.012886243631	4
0	14964	2534.633754947232	3
0	14973	2535.007039059942	4
0	14974	2535.306017668044	3
0	14981	2535.49440560529	2
0	14987	2537.390284681261	1
0	14992	2537.558095384158	0
0	14998	2538.291266623197	1
0	14999	2538.434256712676	0
0	15003	2538.660563626334	1
0	15007	2539.090767259006	0
0	15031	2540.795775911021	1
0	15032	2540.902583859702	0
0	15038	2540.976463301939	1
0	15040	2541.036751769755	0
0	15053	2542.686325819183	1
0	15058	2544.144279973527	0
0	15071	2545.319821193934	1
0	15073	2545.350720482778	2
0	15075	2546.24930853621	1
0	15082	2547.871854707479	0
0	15088	2547.908019055562	1
0	15089	2547.930296090111	0
0	15111	2549.729575793832	1
0	15114	2550.39914138743	2
0	15118	2552.956889417099	1
0	15125	2553.898381832949	0
0	15133	2554.794411673822	1
0	15134	2554.845565460129	0
0	15140	2554.862730631556	1
0	15141	2554.878151740213	0
0	15155	2557.051930639475	1
0	15157	2557.114143500421	2
0	15158	2557.140635942664	1
0	15163	2557.353958990031	0
0	15174	2558.760198452586	1
0	15175	2558.804425205465	0
0	15181	2559.657349831443	1
0	15182	2559.952365964438	0
0	15190	2560.685231614803	1
0	15195	2561.59379384386	0
0	15259	2569.129229458954	1
0	15262	2569.60195104989	0
0	15297	2577.272920551918	1
0	15298	2577.71898501419	0
0	15327	2582.041694382682	1
0	15328	2582.161539929695	0
0	15346	2584.879381407614	1
0	15347	2584.92995332185	0
0	15353	2585.201114560532	1
0	15354	2585.431933632368	0
0	15370	2587.414555362849	1
0	15372	2588.47001657766	0
0	15378	2588.659969322821	1
0	15380	2589.581724074602	0
0	15386	2590.697735012133	1
0	15387	2592.697647698196	0
0	15393	2592.865715211813	1
0	15394	2593.223670891076	0
0	15403	2593.418672314488	1
0	15406	2593.948448469882	2
0	15408	2594.902158500305	3
0	15410	2595.334110727045	4
0	15412	2596.869207364991	3
0	15417	2598.054864021409	2
0	15423	2599.269642760124	3
0	15425	2599.701623466363	4
0	15426	2600.108808253181	3
0	15431	2600.221999717631	2
0	15437	2600.290863396129	3
0	15438	2600.976401637728	2
0	15444	2602.424833925958	3
0	15446	2602.957335995298	4
0	15447	2603.139870423865	3
0	15451	2604.622850726382	4
0	15455	2606.415868254009	5
0	15456	2606.656997428053	4
0	15460	2607.078335122373	5
0	15462	2607.266124966944	6
0	15465	2608.698191979281	5
0	15473	2611.070150773467	6
0	15475	2611.242575473307	7
0	15478	2611.498572436138	6
0	15486	2613.257486638597	5
0	15491	2613.721010655758	4
0	15497	2615.352960411954	3
0	15504	2615.611928973604	4
0	15505	2616.039344899961	3
0	15510	2616.080044292579	2
0	15515	2616.159894395382	1
0	15519	2616.398938578153	2
0	15522	2617.124117941678	1
0	15526	2617.849955901144	2
0	15530	2618.191489886989	1
0	15537	2619.710253417977	2
0	15539	2619.919414671341	1
0	15544	2619.92033799805	0
0	15583	2625.438446652845	1
0	15585	2625.500263103517	0
0	15596	2626.019282557231	1
0	15598	2626.178822068956	0
0	15612	2628.541390480845	1
0	15613	2628.58820000773	0
0	15728	2649.525077727516	1
0	15730	2650.00125752908	2
0	15731	2650.222953750879	1
0	15736	2651.284275310445	0
0	15753	2654.178074075959	1
0	15755	2654.454103557395	2
0	15756	2654.676731620689	1
0	15761	2655.157488410822	0
0	15767	2656.283559098487	1
0	15769	2657.403613123392	2
0	15770	2658.37055582561	1
0	15775	2658.411839531663	0
0	15779	2658.775830643914	1
0	15782	2660.305888886838	0
0	15788	2661.884061032948	1
0	15790	2662.904598598115	2
0	15791	2662.973927847531	1
0	15795	2663.160194274272	2
0	15801	2664.207296361268	1
0	15807	2664.980269554855	0
0	15829	2668.525889278802	1
0	15831	2668.559957750018	2
0	15833	2668.650004359449	3
0	15841	2669.987357909381	4
0	15843	2670.31267588247	3
0	15848	2671.428949207051	2
0	15852	2672.012666650592	3
0	15856	2674.738060926625	4
0	15858	2675.300498194497	5
0	15865	2677.745070722308	4
0	15870	2679.05822136437	3
0	15875	2680.497373472019	2
0	15879	2680.604083585279	3
0	15890	2683.531648318603	2
0	15894	2684.728842136066	3
0	15897	2686.858164009923	2
0	15903	2689.507910444048	1
0	15912	2690.107693243034	0
0	15937	2690.885141420418	1
0	15938	2691.005315258651	0
0	15954	2691.279890790027	1
0	15956	2692.048695623689	0
0	15968	2692.902776184006	1
0	15974	2693.991878477515	2
0	15976	2694.479078810052	3
0	15977	2694.482801175836	2
0	15985	2694.99008347571	3
0	15988	2697.102728551517	2
0	15994	2697.517150776608	1
0	15999	2697.633041691886	0
0	16038	2700.891423115743	1
0	16044	2702.77709643832	2
0	16048	2703.656370303977	3
0	16050	2703.725459640657	4
0	16051	2703.921520803667	3
0	16056	2703.959797315704	2
0	16062	2705.19026402443	1
0	16069	2705.85639186323	0
0	16083	2708.153640138976	1
0	16085	2708.208786333734	2
0	16088	2708.934262845372	3
0	16091	2709.828657940038	2
0	16098	2710.302375597004	3
0	16099	2710.338016337654	2
0	16104	2710.670427705441	1
0	16109	2711.173335472943	0
0	16122	2712.678608802523	1
0	16124	2713.282509414062	2
0	16128	2714.264204400072	3
0	16130	2714.38624552307	4
0	16134	2716.698774222076	5
0	16136	2716.787581136878	6
0	16137	2717.909456184641	5
0	16142	2717.920550106256	4
0	16150	2720.546778141788	5
0	16151	2721.545718082306	4
0	16159	2722.307494944383	3
0	16164	2722.391908284422	2
0	16170	2723.532431032197	1
0	16176	2724.379812962162	0
0	16182	2724.380568800707	1
0	16184	2725.538256085904	0
0	16195	2726.477304776343	1
0	16197	2726.620698873714	2
0	16201	2727.196106650915	1
0	16206	2727.971112090963	0
0	16214	2729.67629912212	1
0	16215	2730.59302676243	0
0	16219	2730.711475931193	1
0	16224	2731.726076456952	0
0	16246	2734.901138762048	1
0	16249	2735.477448902185	0
0	16255	2735.481373040091	1
0	16256	2736.516432236513	0
0	16282	2740.31546316597	1
0	16285	2741.834957331175	0
0	16303	2747.788419809723	1
0	16304	2748.212946084387	0
0	16311	2748.489446356688	1
0	16312	2748.582400469912	0
0	16329	2751.454652217972	1
0	16330	2751.461431746132	0
0	16375	2765.234614997329	1
0	16381	2768.402619496496	2
0	16382	2769.658346574721	1
0	16387	2771.433060809515	0
0	16398	2772.838345510312	1
0	16402	2773.563864387107	0
0	16408	2774.082811309283	1
0	16409	2774.205229561336	0
0	16461	2782.213956624694	1
0	16463	2782.917668207025	0
0	16507	2794.272649816859	1
0	16512	2796.161692733563	2
0	16515	2797.524215539625	3
0	16516	2797.703814295104	2
0	16526	2801.780705328974	3
0	16527	2802.817570425139	2
0	16532	2803.062477654182	1
0	16536	2804.051497506604	2
0	16541	2806.505176042072	1
0	16546	2812.03063441131	0
0	16552	2812.313522856768	1
0	16553	2812.525665612716	0
0	16566	2814.447413982812	1
0	16568	2814.678404723448	0
0	16574	2814.688035921121	1
0	16577	2815.444627289188	0
0	16604	2818.624382773173	1
0	16611	2821.526285345066	2
0	16612	2821.541195020931	1
0	16619	2822.352591194691	0
0	16625	2822.725770387741	1
0	16629	2823.29497136338	0
0	16635	2823.941011172813	1
0	16637	2825.033230344946	2
0	16638	2825.445587446809	1
0	16644	2826.528654811147	2
0	16647	2827.477321940384	1
0	16652	2827.551613223759	0
0	16701	2835.374013642378	1
0	16703	2837.261023437041	2
0	16704	2837.541295971161	1
0	16709	2837.703232436487	0
0	16763	2852.878345844591	1
0	16764	2853.046251001411	0
0	16795	2861.139658314547	1
0	16796	2861.310726807317	0
0	16837	2866.376827181787	1
0	16839	2866.496818784592	2
0	16841	2866.687093935603	3
0	16844	2868.204075584859	2
0	16850	2868.211962826797	3
0	16852	2868.556121695323	2
0	16857	2868.872248383227	1
0	16862	2873.445003221414	0
0	16866	2874.186633216594	1
0	16871	2875.186228428298	0
0	16895	2877.218421487289	1
0	16897	2877.328851671906	2
0	16905	2878.606681044729	1
0	16909	2878.650019181514	2
0	16912	2882.439979604103	1
0	16916	2883.016286085214	2
0	16919	2883.741331597503	1
0	16924	2884.984196569274	0
0	16936	2886.305116062647	1
0	16945	2888.272370218482	0
0	17038	2904.328932477851	1
0	17040	2904.437483557139	0
0	17076	2913.659911106781	1
0	17079	2914.447971662872	0
0	17085	2915.197382228434	1
0	17087	2915.545416882958	2
0	17088	2915.568547253362	1
0	17094	2916.897447982296	2
0	17096	2917.647892864348	3
0	17097	2917.939078885415	2
0	17102	2917.96290934501	1
0	17108	2918.677565260974	2
0	17110	2918.733181101844	3
0	17112	2918.739459095482	4
0	17114	2919.882205364876	5
0	17116	2920.744366401031	6
0	17119	2922.06391356391	5
0	17126	2923.416945466489	4
0	17131	2924.003851014178	3
0	17136	2924.576329569917	2
0	17141	2924.721389405258	1
0	17147	2925.924154687223	0
0	17160	2926.692750344567	1
0	17161	2926.710252970566	0
0	17165	2927.46858551172	1
0	17169	2928.806179521428	0
0	17182	2929.190616257504	1
0	17184	2929.378421917298	2
0	17187	2929.842576003238	1
0	17192	2930.684389929588	0
0	17224	2933.960611399061	1
0	17227	2934.724877729355	2
0	17231	2935.884532301161	1
0	17238	2936.725383400966	2
0	17239	2936.835162900366	1
0	17244	2936.888471216273	0
0	17258	2937.863820510312	1
0	17260	2938.144502173669	0
0	17280	2940.560304357604	1
0	17281	2941.440212715171	0
0	17326	2949.784531076777	1
0	17329	2950.139364199784	2
0	17330	2950.359848142734	1
0	17336	2951.141634914646	0
0	17349	2951.836510687961	1
0	17352	2952.28598001786	2
0	17357	2952.987849619869	3
0	17358	2952.997089829355	2
0	17363	2953.357700192649	1
0	17369	2954.728270198151	0
0	17384	2955.954291057633	1
0	17385	2956.107253502627	0
0	17389	2956.13167704987	1
0	17395	2958.624365405438	2
0	17396	2958.717374517373	1
0	17402	2959.077417567154	2
0	17407	2959.796137750961	3
0	17409	2960.539542518696	2
0	17415	2960.64248657919	3
0	17419	2961.308138004429	2
0	17424	2961.732968414214	1
0	17430	2962.171144947065	2
0	17432	2962.675985345288	1
0	17437	2963.063559127877	0
0	17441	2963.114592078364	1
0	17443	2963.338012148121	2
0	17445	2964.005961998873	3
0	17447	2964.362767015528	4
0	17451	2965.074344576603	5
0	17452	2965.164813060793	4
0	17456	2965.203408272946	5
0	17460	2965.812483527509	6
0	17461	2965.856784274354	5
0	17466	2966.37452646651	4
0	17472	2970.217585590994	5
0	17474	2971.136053470883	6
0	17482	2973.277430274335	7
0	17484	2973.432323489965	6
0	17491	2973.871991970486	7
0	17493	2973.982125854619	8
0	17494	2974.488782597081	7
0	17500	2974.705528135987	8
0	17501	2974.878797519037	7
0	17506	2975.309999769323	6
0	17512	2975.350913891987	7
0	17513	2975.416335421475	6
0	17517	2975.432413836884	7
0	17519	2975.453874156472	8
0	17524	2975.980570615223	7
0	17531	2978.702263873416	6
0	17535	2978.7817542134	7
0	17539	2979.766382035195	8
0	17540	2980.200013895919	7
0	17544	2981.369207100213	8
0	17546	2981.78885728927	9
0	17551	2982.485359420374	8
0	17557	2983.029875212028	9
0	17560	2983.530434534367	8
0	17566	2983.608512736661	9
0	17570	2986.293946090639	10
0	17571	2987.873230044599	9
0	17575	2988.007225485616	10
0	17578	2989.851498894668	9
0	17583	2990.264653243721	8
0	17593	2993.280008196743	9
0	17595	2993.498657826357	8
0	17605	2998.112612121238	7
0	17610	2998.151766414048	6
0	17615	2998.242882422023	5
0	17620	2998.345113241781	4
0	17625	2998.698253638201	3
0	17632	2999.977470272	2
0	17637	3000.78972058293	1
0	17642	3002.388674696295	0
0	17648	3002.8261307057	1
0	17651	3004.400462884685	0
0	17655	3004.986448696418	1
0	17659	3006.368443309174	2
0	17661	3006.658790893124	3
0	17663	3008.383278000181	4
0	17664	3009.532660942246	3
0	17670	3009.724794906148	2
0	17676	3010.524026385751	3
0	17677	3012.286722396277	2
0	17684	3014.140383285031	1
0	17690	3015.548021043427	2
0	17694	3016.666497128082	3
0	17696	3017.674856575453	4
0	17698	3018.182932256237	5
0	17699	3018.652852455309	4
0	17704	3018.815682922246	3
0	17708	3018.885567464778	4
0	17713	3019.752140381563	5
0	17717	3020.904311421209	6
0	17718	3021.000212872338	5
0	17723	3021.171322618531	4
0	17728	3021.943116837676	3
0	17732	3022.087794828197	4
0	17736	3024.195887032583	5
0	17737	3024.404595523163	4
0	17743	3024.905893053747	5
0	17744	3024.930443601532	4
0	17748	3025.031290261062	5
[...]
5	163360	28164.721329006459	48.558828051836
5	163367	28165.487184114464	48.664058779256
5	163377	28166.026932482216	47.610597484193
5	163390	28167.082571025659	44.096243814315
5	163439	28176.489551816897	49.963708644666
5	163449	28177.373232089983	42.647460807266
5	163483	28180.970991712047	43.957028282082
5	163512	28185.006640265977	47.982393099433
5	163520	28187.551257223292	35.688039887812
5	163525	28187.97794684811	35.498966808831
5	163534	28190.245917757114	37.197433739258
5	163590	28199.507339417777	38.989994639073
5	163599	28201.372092735976	34.944313083686
5	163610	28201.545964331859	32.507479974036
5	163615	28201.848533895587	21.712734746897
5	163620	28202.357229776745	20.814182345457
5	163632	28204.150599575146	12.617555865185
5	163648	28204.873736073926	11.628612921066
5	163655	28207.53604379994	6.166969196686
5	163660	28208.152709777363	5.69795225065
5	163726	28222.535738907537	0.436850691643
5	163734	28223.605599068473	0.391112400949
5	163756	28227.928236704901	0.752668913119
5	163770	28229.402511614206	1.358523621933
5	163779	28229.700923023801	0.984358700198
5	163805	28234.286503312626	2.904404670871
5	163815	28235.328273841974	2.85821750052
5	163908	28249.311251988522	8.872008922122
5	163913	28249.681828422891	7.030973227281
5	163917	28250.850973519154	2.297480154503
5	163951	28257.639076639456	2.227331689774
5	163994	28263.56340989816	1.049684356522
5	163998	28264.165569583921	0.789009685577
5	164005	28264.663389801406	0.072563322716
5	164057	28274.081353794223	0.627483719788
5	164111	28284.161995294442	2.91747546304
5	164116	28285.092716656274	3.269382129635
5	164120	28285.099283359253	2.559861285164
5	164180	28294.013039341539	1.609269303692
5	164205	28297.446430627659	1.344591773646
5	164220	28299.708911395591	2.140303026837
5	164247	28305.882338226332	0.225450901275
5	164278	28309.417627339545	1.549181691029
5	164284	28310.119254176843	1.307859959519
5	164293	28311.066815122499	0.276370199539
5	164322	28321.642786929096	9.75714198294
5	164328	28321.749811861166	1.847445283706
5	164333	28322.366293626165	1.76786376794
5	164361	28324.929770521043	1.386022881724
5	164385	28332.117381274964	3.698950217751
5	164428	28336.561734771085	3.758841584614
5	164440	28338.041407544718	4.792892405147
5	164448	28340.029835152805	6.612928275842
5	164529	28357.83141151915	13.94747047879
5	164538	28359.945892068623	12.885205987832
5	164543	28360.112269770646	10.466428392776
5	164554	28361.159166495326	9.242719492716
5	164570	28364.364568144063	11.744098105062
5	164575	28364.642996110777	10.138200361895
5	164580	28366.716883698756	9.503332888348
5	164588	28369.058061415669	11.000845135856
5	164618	28373.305962741122	13.030333515104
5	164753	28391.4670902144	29.104782355617
5	164760	28392.101112854594	27.982265092739
5	164765	28392.436356401612	20.260323778035
5	164774	28393.52448561978	18.699158580271
5	164786	28394.289928087813	16.429891052005
5	164792	28394.446082829451	14.071998938945
5	164800	28395.716506401192	7.782603600948
5	164983	28431.772581412333	30.07083254969
5	164993	28434.296184494528	24.242083527512
5	165015	28437.409622791283	20.844753118236
5	165020	28438.316691502504	21.067322503245
5	165026	28439.198871880193	19.920445541058
5	165034	28440.471185188521	20.907986805206
5	165041	28441.956476217513	16.132224427477
5	165046	28442.051394124108	14.309259550689
5	165051	28442.073265887046	12.098853972071
5	165056	28442.21353465797	11.531657054827
5	165060	28442.53782371092	1.04846687625
5	165197	28463.321086978322	4.859338937071
5	165209	28465.932435481615	0.30895439479
5	165214	28466.735619492705	0.843006534519
5	165223	28467.523920991429	0.407697548191
5	165236	28468.772202026952	0.896439522202
5	165243	28469.32424115808	1.16718569487
5	165260	28471.451020833958	2.896061723829
5	165309	28480.550611327489	6.022788173453
5	165315	28481.35689516764	5.78199533525
5	165322	28481.491257241259	4.544423528346
5	165490	28526.155583548772	43.627938363064
5	165535	28534.508929284991	51.83210505741
5	165544	28535.868742297544	38.080634939425
5	165549	28536.041548714314	36.625031008011
5	165557	28537.085291166807	35.849063866833
5	165566	28538.835747608421	33.208256929316
5	165588	28542.231907326166	36.484833263123
5	165628	28550.479519931561	39.705091697225
5	165657	28552.780487378558	34.093375699449
5	165665	28554.06996720261	35.116506249258
5	165752	28567.120814374994	30.720673835229
5	165761	28567.345015405922	23.933751631134
5	165783	28569.336274996806	18.845308753069
5	165834	28581.052448907245	26.148879264735
5	165841	28582.486988844967	26.074731580016
5	165852	28583.990561699096	25.60344560171
5	165857	28584.363715154908	25.827799160432
5	165863	28587.715648190727	27.340273979757
5	165869	28588.019795395126	19.718489938292
5	165881	28590.849267260501	21.295816525278
5	165886	28591.095604667808	21.488278473678
5	165893	28592.708132064055	21.727321160284
5	165905	28593.41869951956	21.706042361818
5	165913	28594.140357899583	13.390041611775
5	165922	28595.015256879112	4.726210653133
5	165950	28597.921339780249	4.53902419314
5	166029	28609.972062211771	16.21482474589
5	166034	28610.588825420624	11.445380395923
5	166041	28611.913345977646	10.635253443649
5	166055	28616.048972229329	10.477270353777
5	166076	28618.958251086552	2.795505312828
5	166109	28629.622417957322	0.371533138747
5	166116	28630.105092824049	0.304702980185
5	166125	28633.068619493753	1.010846682287
5	166133	28633.992387693043	0.277676789765
5	166162	28637.93785629906	2.129211869135
5	166187	28643.28702412038	2.248577062996
5	166198	28644.433206677616	0.420828002697
5	166210	28648.162701540507	3.895661037996
5	166277	28662.407361224682	15.592635502933
5	166286	28664.030438350001	9.067396701752
5	166372	28676.147676225277	18.889448827643
5	166379	28677.448461342731	19.767981694239
5	166386	28677.902828366993	19.750118852181
5	166444	28683.918836261407	25.078080296656
5	166450	28684.76802884508	23.750708300588
5	166459	28685.063695043159	22.247475445458
5	166470	28685.633493879242	18.114933140561
5	166475	28685.831626444557	10.443559724637
5	166522	28692.901511429019	1.748291384469
5	166527	28693.578025849668	1.630654456768
5	166545	28698.087171032024	1.592519738147
5	166556	28698.788153314181	0.459338485787
5	166574	28702.676117828694	1.176448243084
5	166590	28704.288407361367	0.572306292763
5	166601	28706.342027880842	0.129633161192
5	166608	28707.02710022044	0.794523229038
5	166617	28707.506346390464	1.050040390345
5	166644	28711.644326657957	4.142464598742
5	166699	28721.291043444996	2.692456157438
5	166714	28723.539858114463	3.508463690722
5	166724	28724.239500775499	1.097987817952
5	166739	28726.471026076741	1.936051224535
5	166766	28730.628413862922	0.370960913745
5	166788	28733.84620567212	2.157477723759
5	166806	28736.869453950298	2.859546008123
5	166860	28744.856572609705	6.715682635081
5	166867	28745.859357175298	7.645416598423
5	166874	28746.75663526993	6.525197009908
5	166881	28747.604652054689	6.737317753183
5	166894	28748.356833718875	3.637185850916
5	166945	28756.614035497341	11.101233485422
5	166954	28757.429767316925	6.146477558575
5	167028	28771.349782406642	19.928248960331
5	167034	28771.743840845599	20.02401058855
5	167046	28772.396822891579	20.624404336822
5	167143	28789.584307973403	33.497009917093
5	167293	28822.971654052031	66.459025739978
5	167298	28823.216683534413	65.310311076575
5	167305	28825.004621060414	66.381349568407
5	167323	28829.743437885926	60.941527833228
5	167410	28844.712578626387	71.457366772998
5	167432	28847.430208990634	70.041482333948
5	167440	28848.759961033063	69.055800079948
5	167456	28850.392412721126	65.622226266091
5	167469	28851.307304923765	66.026704773362
5	167482	28852.820438483728	66.084905767995
5	167509	28858.643372732151	70.039517731174
5	167514	28858.791985803736	69.655420784722
5	167522	28860.92395865002	70.213034893217
5	167543	28864.229064596893	72.876614617902
5	167576	28867.02236710401	72.522328637222
5	167590	28869.301812834246	74.491974288435
5	167595	28869.353573835253	70.170633665639
5	167600	28869.496483271165	70.29675405978
5	167605	28871.73284162323	71.523967690709
5	167621	28875.339731789738	73.347323323655
5	167653	28878.260093579075	71.421874905152
5	167658	28878.505584364003	71.189334344202
5	167666	28880.232767754718	70.511424112585
5	167683	28881.735964654142	70.475954543055
5	167688	28881.843688623054	69.665148093643
5	167698	28883.763042425619	66.629441917041
5	167719	28885.839045905896	60.21443605518
5	167727	28887.462246074294	54.66278730921
5	167745	28890.722940707048	53.802219772961
5	167750	28890.736284402228	52.500780601598
5	167755	28890.942656915983	50.931939275017
5	167760	28890.985888281827	46.666897286038
5	167767	28893.76056467745	49.076641032152
5	167779	28895.101279537902	49.685944756566
5	167789	28896.391949078549	50.727393103944
5	167818	28899.420237617157	49.194890160879
5	167834	28900.560546621945	47.202198702301
5	167846	28902.60917322178	41.452945599895
5	167862	28904.329220182086	41.970695900202
5	167871	28908.039841433124	43.593015538261
5	167879	28908.232726210521	40.477235856257
5	167895	28911.654610654243	43.670811448149
5	167926	28914.459344448144	45.26470081838
5	167949	28917.921610550853	37.287691237157
5	168598	29034.517846720764	153.41595126244
5	168634	29037.343113309549	153.08368423383
5	168639	29038.156600416042	150.17758698716
5	168647	29039.64367322376	128.28803059005
5	168692	29046.837074301035	135.10474112691
5	168700	29047.995697617194	128.99495850072
5	168710	29048.898086074917	128.58087672808
5	168720	29049.820381778416	121.872599474
5	168728	29050.919528303501	118.90749704577
5	168762	29058.019067990458	124.28977761662
5	168787	29060.074704588142	126.02877208322
5	168799	29061.522138915418	123.63371839477
5	168824	29064.725480887498	117.8923279328
5	168831	29066.141327986701	118.15531066542
5	168843	29067.786303008102	116.054232686
5	168876	29074.014896516667	117.91277837645
5	168903	29078.723336735335	122.61091276199
5	168911	29081.026889259498	121.60062149674
5	168918	29081.641623457414	115.51147734469
5	168980	29090.459935665698	120.39852621847
5	169017	29094.621152210236	124.48926721158
5	169030	29097.315566761049	126.00942607273
5	169036	29097.545446951033	123.29691249523
5	169042	29097.608807210066	117.92200197619
5	169055	29099.739759527524	117.03981044227
5	169066	29100.404149585978	114.39639756197
5	169074	29105.448634014789	118.13029730326
5	169089	29107.151240222713	118.14172874676
5	169107	29109.415899792929	118.62105193286
5	169114	29110.60562967131	119.60589779576
5	169123	29111.607049266373	108.71659330876
5	169135	29113.045464097658	103.71392612339
5	169148	29114.717076829218	104.37846960943
5	169153	29115.283033722074	102.93635777801
5	169158	29115.465670536265	101.81882445321
5	169163	29116.154834599091	87.989963831306
5	169174	29118.012380726378	87.458074264264
5	169197	29119.721540699277	85.42208873947
5	169212	29120.631537748088	85.885976938527
5	169217	29121.071093059304	85.623190690349
5	169230	29123.002745264624	86.545128449413
5	169258	29125.666806546969	88.999412547423
5	169269	29126.895818596867	85.651013154718
5	169277	29128.182719942266	81.803824009736
5	169291	29131.707560192055	85.228352579171
5	169303	29133.360827467915	75.165330592099
5	169308	29133.606376294892	75.082615298803
5	169313	29133.772506865362	74.163210636065
5	169320	29134.677804575338	66.41795701542
5	169350	29138.513300329496	51.077896859644
5	169359	29140.606716157229	52.97850540113
5	169371	29143.069298161245	48.119080492701
5	169386	29145.493192393494	28.854161177409
5	169863	29250.477984945723	131.68546250562
5	169895	29255.086261518814	134.92647003939
5	169900	29255.257247960604	133.07420302328
5	169908	29255.767853647473	132.64686336367
5	169920	29256.383595663389	124.91616705017
5	169926	29257.127645602526	121.44661777611
5	169939	29263.449920160065	123.55377623136
5	169963	29265.785254762327	119.98029910787
5	169977	29272.135405743219	119.60913265634
5	169994	29274.391565156153	121.26470167291
5	170005	29276.760816260232	117.44582467843
5	170015	29277.392235370782	116.19619957355
5	170022	29279.822824948937	116.5934402602
5	170027	29281.059899168838	112.98020193523
5	170041	29286.399001076922	110.57504838693
5	170070	29289.777479451138	113.81093205273
5	170101	29292.425550885386	102.09134344204
5	170107	29292.607446450428	88.932702292962
5	170116	29294.274922390954	83.332255248961
5	170129	29296.54326056594	83.885995422271
5	170142	29299.553136950642	86.52270666413
5	170158	29302.391527700412	82.832408682341
5	170176	29304.033409872109	82.324814609137
5	170186	29305.410352761916	80.292209647173
5	170210	29311.981989415299	78.883433091117
5	170232	29315.492611999785	75.068889444862
5	170254	29321.675617353017	79.82419642384
5	170281	29323.477976878607	79.018117618923
5	170287	29324.501861732368	76.195317041215
5	170303	29328.67208026683	78.189914456587
5	170345	29336.596818561528	83.614444422367
5	170350	29336.660589275544	74.006306291251
5	170364	29339.33507006845	74.107150210143
5	170386	29344.349851681896	68.460528662864
5	170443	29358.578091048831	82.483867371283
5	170454	29359.659895818408	80.177236438714
5	170462	29361.135116736671	79.295074300293
5	170474	29361.932442953799	69.800662449703
5	170484	29363.483795061184	70.154322636603
5	170490	29364.886205139016	65.371359614309
5	170496	29365.99710666821	65.77014883971
5	170504	29366.3453155023	65.365595541372
5	170510	29367.434624384567	64.083234211887
5	170520	29371.580387460729	67.436950452185
5	170525	29371.633255796963	61.872958803959
5	170537	29372.535365940076	57.751271175722
5	170556	29374.556564827238	55.820603832207
5	170565	29376.152093653981	53.571816884939
5	170577	29377.545676864576	45.040345532832
5	170586	29381.543939989053	44.247369309605
5	170602	29384.681584229912	42.174580118344
5	170629	29386.466003477456	43.715069533315
5	170638	29387.411690561994	34.484722250842
5	170661	29393.240578425045	37.424967911928
5	170882	29431.311242399569	73.931182553939
5	170896	29432.465792740997	72.788748782169
5	170995	29446.706132598082	85.250374510012
5	171002	29447.777834024285	86.243155528112
5	171090	29467.696803005955	101.43161369855
5	171109	29469.147216344597	101.230972885
5	171114	29469.233312800022	96.046657830911
5	171119	29469.616908354257	94.705295755076
5	171125	29470.326786176574	89.919912601867
5	171136	29471.733365212854	88.898143347936
5	171148	29472.800806711654	83.665331695632
5	171156	29473.990834506582	84.565195696133
5	171170	29475.633286262413	80.643319417676
5	171175	29476.666731044179	75.861291317494
5	171180	29478.117378398338	64.800782023455
5	171185	29479.347991340383	58.82107567018
5	171196	29482.740998995476	61.837395494528
5	171264	29493.479416655186	72.46897832505
5	171291	29494.522316563246	70.848522684832
5	171297	29495.205858098808	63.952261572267
5	171308	29497.323171578455	65.897652855088
5	171335	29501.802939584171	63.854793579166
5	171342	29502.788695490305	61.904127491274
5	171353	29506.240933165665	64.733386371796
5	171362	29507.004833078831	64.256724596024
5	171373	29507.897915597678	64.834777227427
5	171383	29508.448660489443	49.361154979004
5	171394	29510.462706702233	46.677247301456
5	171399	29510.464302553774	38.886028813529
5	171411	29511.731401090289	37.167111601228
5	171422	29512.0273336948	31.850111961024
5	171433	29514.102000401196	31.383286460158
5	171446	29516.828324773399	32.736935313245
5	171528	29529.639475343308	39.705084936159
5	171538	29529.962962688381	36.328707891858
5	171545	29531.157153405511	27.144860631719
5	171550	29531.496262751064	24.739379753364
5	171556	29532.637703871765	21.914890837427
5	171562	29533.690608803993	22.296247033387
5	171567	29533.776708518017	20.097385445793
5	171577	29537.375789532396	18.662329517782
5	171604	29539.3057537487	18.231275552181
5	171664	29549.797326299989	23.806438311495
5	171670	29551.905497111388	20.886392710381
5	171678	29555.902518867756	20.160093097961
5	171683	29555.934230266997	18.26815426586
5	171689	29556.47012892506	17.765577120369
5	171694	29557.239826667553	7.924363806594
5	171708	29559.290140102779	0.093896860116
5	171736	29565.252529517845	2.493494218613
5	171744	29565.890214964115	3.040908789664
5	171755	29567.957312608539	3.325120371746
5	171778	29572.032103278273	0.512341310148
5	171786	29573.260602468954	1.012245102608
5	171815	29577.625407739059	0.244573900733
5	171822	29579.737870256297	0.84679924611
5	172880	29811.988244440248	228.04432187503
5	172889	29812.998559324654	225.22343309685
5	172911	29815.427602509351	216.39968776889
5	172918	29816.515351105498	214.94706962201
5	172923	29816.589797327809	214.63320366014
5	172928	29816.878877697492	208.18591055203
5	172933	29817.431374271176	207.89917942499
5	172938	29817.625562288052	199.10525146689
5	172951	29821.417941545595	194.09184907105
5	173005	29830.195203066625	197.13573211421
5	173024	29832.819340961883	187.66210827642
5	173057	29837.391466721142	190.80034516937
5	173067	29839.347883948157	187.3779930328
5	173092	29844.512628167479	179.66954653004
5	173127	29850.553648835738	171.20302316132
5	173165	29856.827027471359	169.66157255329
5	173188	29859.945813572636	171.62531695143
5	173198	29860.959482937532	166.92811461034
5	173210	29862.043309047833	165.98590300098
5	173217	29862.596911133652	162.06918376909
5	173228	29864.141382829763	156.67830023477
5	173235	29865.386500874235	144.79608544393
5	173240	29865.513934961248	134.50547428972
5	173251	29870.261098649859	134.06714061875
5	173274	29872.213608926448	133.73220002496
5	173283	29873.693042232371	125.41555084595
5	173313	29878.798897885732	130.0795513298
5	173352	29883.175466690075	129.33299739866
5	173375	29886.724768665954	129.85133353287
5	173447	29902.265280581411	140.30961974215
5	173452	29902.869998634997	137.39838311538
5	173458	29903.186718893373	134.13088540785
5	173463	29903.311921757092	132.39429518175
5	173469	29903.576080821901	130.22069863464
5	173474	29903.812865048885	129.90917685587
5	173484	29905.556795520776	131.00267502158
5	173495	29907.077554246623	131.63802726778
5	173505	29908.556536401611	125.71153300235
5	173518	29909.649183196734	124.71140635493
5	173523	29910.222848982304	121.41193154738
5	173528	29911.010382233874	117.3049526646
5	173535	29913.359181131558	107.84439190901
5	173540	29913.785865244079	101.02383822383
5	173545	29914.298997698596	100.67768919944
5	173557	29918.47683772063	100.08034107603
5	173587	29923.192190901255	104.02994059253
5	173596	29925.207342553912	99.778608377526
5	173612	29929.628313972526	103.74520888167
5	173653	29934.472567842601	105.7214531303
5	173658	29934.650411765318	101.22836327936
5	173664	29934.817637183541	94.676492724515
5	173671	29936.882172025377	92.249274129984
5	173678	29938.402560569116	92.543767684129
5	173683	29939.73904655095	82.677354487838
5	173692	29941.281797647014	76.245360524737
5	173705	29942.581636735089	75.736055857304
5	173711	29942.829118787159	69.363635831334
5	173718	29943.959846735692	66.768766263947
5	173739	29945.271521623545	64.558846811167
5	173752	29951.80192124872	67.927968993116
5	173783	29957.447966479571	70.568654581566
5	173788	29959.843814697445	71.526923069108
5	173799	29960.952994224347	71.358819760668
5	173820	29962.950934171344	68.570106597941
5	173829	29963.591012053357	68.870167067937
5	173836	29964.121346785723	60.142211475575
5	173859	29967.798834077598	62.477645446311
5	173867	29968.947886322179	62.381250858371
5	173872	29969.033960173254	60.890903297941
5	173887	29971.744397681307	62.439897994016
5	173922	29975.697972560952	42.644821712687
5	173927	29975.798584998161	41.758626556995
5	173934	29975.921230682439	40.750934902734
5	173940	29976.360526487295	35.044576025621
5	173954	29981.352999887755	36.123800009275
5	173959	29981.924198475337	32.599605298528
5	173965	29982.679097279209	22.220113311888
5	173970	29982.699454177221	20.578460773532
5	173979	29984.982437898666	21.718681728567
5	173994	29987.11219123119	23.548450054826
5	174001	29988.448464104047	20.61259341202
5	174023	29991.578165674305	21.545263058234
5	174035	29994.918743470318	21.577047285777
5	174048	29999.844266248618	24.479874278279

