version 2
run First-n2-2-20191016-17:03:16-11904
attr configname First-n2
attr datetime 20191016-17:03:16
attr experiment First-n2
attr inifile omnetpp.ini
attr iterationvars ""
attr iterationvarsf ""
attr measurement ""
attr network org.omnetpp.queueing.Pizza
attr processid 11904
attr repetition 2
attr replication ""
attr resultdir results
attr runnumber 2
attr seedset 2
param **.PS.maxInventoriedPS 2
param **.U1.interArrivalTime exponential(2s)
param **.U2.interArrivalTime exponential(4s)
param **.PS.serviceTimeForInventoryU1 exponential(0.8s)
param **.PS.serviceTimeForInventoryU2 exponential(1.0s)
param **.PS.serviceTimeDirectU1 exponential(1.2s)
param **.PS.serviceTimeDirectU2 exponential(1.4s)
param **.PS.probabilityProducing 0.5
param **.CS.serviceTimeU1 exponential(0.8s)
param **.CS.serviceTimeU2 exponential(1.0s)

vector 0 Pizza.EntryQueueU1 queueLength:vector ETV
attr interpolationmode sample-hold
attr title "queue length, vector"
vector 1 Pizza.CS queueLength:vector ETV
attr interpolationmode sample-hold
attr title "queue length, vector"
vector 2 Pizza.EntryQueueU2 queueLength:vector ETV
attr interpolationmode sample-hold
attr title "queue length, vector"
vector 3 Pizza.sink lifeTime:vector ETV
attr interpolationmode none
attr title "lifetime of arrived jobs, vector"
attr unit s
vector 4 Pizza.sink lifeTimeU2:vector ETV
attr interpolationmode none
attr title "lifetime of arrived jobs, vector"
attr unit s
vector 5 Pizza.sink lifeTimeU1:vector ETV
attr interpolationmode none
attr title "lifetime of arrived jobs, vector"
attr unit s
0	0	0	0
0	7	1.145383979254	1
0	12	4.959248770767	0
0	28	7.048072724609	1
0	30	8.105567922135	0
0	45	9.345943748084	1
0	49	10.926173406891	2
0	52	11.888265965664	1
0	58	11.972333657346	2
0	60	12.107364092655	3
0	63	12.170205568853	2
0	69	12.330653011101	1
0	74	12.53561214186	0
0	78	12.786350378304	1
0	82	13.012566131284	2
0	84	13.525481764445	1
0	88	13.873597528366	2
0	92	14.324247453501	3
0	96	14.924786405957	2
0	102	15.643942422815	3
0	106	16.187282980728	2
0	111	18.859013027215	1
0	116	19.413544154135	0
0	140	25.03238175775	1
0	141	25.032849298669	0
0	163	28.233341954236	1
0	164	28.308862496091	0
0	170	29.362982766109	1
0	173	30.659067913839	0
0	196	36.415165290967	1
0	200	38.679860009486	0
0	240	45.562872285801	1
0	242	46.427122694894	2
0	243	46.549545701071	1
0	248	47.346771556811	0
0	252	47.488317096322	1
0	258	48.325149132862	2
0	260	49.076743861965	3
0	267	54.210245237109	2
0	275	55.641417748134	3
0	277	55.927385180436	2
0	282	56.793925994079	1
0	289	59.868689350715	2
0	290	60.352329586125	1
0	295	60.467383585045	0
0	315	62.878918640457	1
0	318	63.728942189164	2
0	320	64.341390769594	3
0	321	64.360235854367	2
0	326	66.477874077143	1
0	331	67.752555650282	0
0	335	68.851758531352	1
0	341	70.727002625485	2
0	344	72.563262323442	1
0	350	73.36668662754	2
0	351	73.512337240022	1
0	356	74.723632788873	0
0	360	74.904384632864	1
0	362	75.554292095567	2
0	366	76.118517081343	3
0	372	76.53164839553	4
0	374	76.531895579159	5
0	375	77.696482053143	4
0	380	77.85049243734	3
0	385	77.930603375633	2
0	389	78.516942179412	3
0	391	79.184410413717	4
0	394	80.743877113582	3
0	400	81.765767588603	2
0	405	82.023517794666	1
0	409	82.256710250485	2
0	411	82.570509994081	3
0	413	82.670715025419	4
0	415	84.0787739225	5
0	417	84.607012980857	6
0	419	85.423234182274	7
0	425	87.485018628347	8
0	430	89.016095909007	7
0	435	89.797082086152	6
0	440	90.066881678966	5
0	445	90.313626461447	4
0	449	91.107119135734	5
0	452	91.273872895451	4
0	457	91.66460975997	3
0	467	93.546155151396	4
0	469	93.681992770227	5
0	471	93.871428312434	6
0	473	93.960379774847	7
0	474	94.191122684312	6
0	480	94.847462487925	7
0	481	95.272762404411	6
0	485	95.288823447636	7
0	488	95.3118378414	6
0	494	97.179590635689	5
0	500	99.468073152979	6
0	501	99.636989826662	5
0	509	100.611776733748	6
0	510	100.79328986759	5
0	516	101.939162302396	6
0	517	102.065713817977	5
0	524	103.104598723594	4
0	532	104.335670171184	3
0	537	104.344357912116	2
0	541	104.745481487894	3
0	544	105.405712026333	2
0	552	106.993494839062	1
0	557	107.126872970532	0
0	563	108.519319245883	1
0	565	109.214873494623	2
0	566	109.279848690966	1
0	572	110.390902264427	2
0	575	110.901168460571	1
0	579	111.681670574346	2
0	582	113.095864709929	1
0	587	115.096648442652	0
0	605	117.323565192581	1
0	608	118.488167720287	2
0	609	118.77325805462	1
0	614	119.157834838017	0
0	636	122.398631416294	1
0	641	125.450967801232	2
0	642	125.497677783526	1
0	647	125.610370864016	0
0	655	126.293668716514	1
0	656	126.343896751276	0
0	678	130.334226729966	1
0	680	130.422400192802	2
0	681	130.833271478654	1
0	687	131.05230875529	2
0	688	131.290133567254	1
0	694	133.946030095628	0
0	714	138.351577481206	1
0	716	138.673503235775	2
0	717	138.720350783786	1
0	722	138.7215843226	0
0	726	140.730476936444	1
0	728	140.814766668525	2
0	736	141.773396618938	3
0	738	142.374202983702	4
0	740	143.204213741211	5
0	741	143.708058954501	4
0	749	145.562118901245	5
0	751	146.127517492207	6
0	753	146.632411498706	7
0	754	146.857319643025	6
0	762	148.6766120645	5
0	769	149.711234468807	4
0	775	149.756030233607	5
0	778	150.142530400794	6
0	780	150.307638161568	7
0	781	150.772705382858	6
0	787	150.862672655806	7
0	789	151.221823344435	6
0	794	151.294971176077	5
0	800	151.967389803327	6
0	801	152.301237465878	5
0	807	152.757930316856	4
0	812	152.807692472345	3
0	816	152.831183152979	4
0	818	153.107053609292	5
0	822	155.223378363214	6
0	824	156.522543852201	7
0	833	157.866833560549	6
0	838	159.603054301906	5
0	844	160.822644235922	6
0	847	161.093604370645	5
0	851	161.60503086188	6
0	853	162.877411774263	7
0	860	167.438220787974	6
0	865	168.762748301894	5
0	870	171.523361655372	4
0	876	173.454249847102	5
0	880	174.00474414044	4
0	885	174.048723282421	3
0	890	174.53592060988	2
0	894	175.502773819453	3
0	896	176.042162712988	4
0	899	177.124808375424	3
0	905	177.537954217516	4
0	907	177.640594052195	3
0	912	177.652730555161	2
0	919	177.845276861551	1
0	924	178.215234544374	0
0	931	179.885876595691	1
0	934	180.17168531771	2
0	936	180.974602319675	3
0	938	181.244318539263	4
0	939	181.269607638889	3
0	945	181.55627097841	4
0	947	182.621788592975	5
0	949	182.974096489224	4
0	955	185.705841966412	3
0	963	187.293992860245	4
0	964	187.596751870428	3
0	969	187.925980617304	2
0	973	188.043053517363	3
0	978	191.977369621786	2
0	983	192.929486079015	1
0	990	194.116607917699	2
0	992	195.744347747876	3
0	993	195.937596840049	2
0	998	195.945193088951	1
0	1002	196.53598659009	2
0	1004	197.120835243903	3
0	1009	197.737246136929	2
0	1013	198.029933881742	3
0	1019	198.819002697563	2
0	1025	198.876112788502	3
0	1030	199.368301498526	2
0	1036	202.052593874169	3
0	1038	202.514183460207	4
0	1041	203.079642645525	3
0	1045	203.34148641822	4
0	1050	203.895639879475	3
0	1054	204.030238808261	4
0	1057	204.280575066627	3
0	1064	207.224210483228	2
0	1068	208.564766770584	3
0	1072	209.31133211011	4
0	1075	210.708874074172	3
0	1081	213.190424708434	4
0	1083	214.552499199326	5
0	1089	216.033686872178	6
0	1092	216.244329995945	7
0	1094	216.248098860083	8
0	1099	217.337073672606	7
0	1104	217.339062079577	6
0	1111	219.927348199154	7
0	1113	220.21607476758	8
0	1114	220.703594712806	7
0	1120	220.889436837584	8
0	1121	221.266252809494	7
0	1125	222.194139663035	8
0	1128	222.9203162878	7
0	1133	223.155377926846	6
0	1138	224.428132925415	5
0	1142	224.439679819662	6
0	1144	225.558802377185	7
0	1147	226.428543805902	6
0	1153	228.914519432743	5
0	1162	230.296702404359	4
0	1166	230.997120405693	5
0	1168	231.430435488788	6
0	1172	231.823178015342	5
0	1178	231.871728558934	6
0	1181	232.516937506268	5
0	1186	233.190482048075	4
0	1197	235.226966297456	5
0	1199	235.580878516819	6
0	1200	235.960576632231	5
0	1205	236.17442150203	4
0	1211	236.96721126876	3
0	1218	237.253250713449	2
0	1223	239.024307840438	1
0	1227	239.541540548428	2
0	1229	240.158517199213	3
0	1234	241.374328686896	2
0	1240	242.362081104212	3
0	1242	242.399953728027	4
0	1247	244.212597654485	3
0	1254	244.464867927658	2
0	1260	245.110684693482	1
0	1266	246.078443379204	2
0	1267	246.98034032911	1
0	1274	247.375175786154	0
0	1290	249.164138713054	1
0	1291	249.280338649685	0
0	1299	250.135981700019	1
0	1300	250.198526836845	0
0	1317	254.941453674794	1
0	1320	255.336791149572	0
0	1329	256.264958344025	1
0	1336	258.477753584365	0
0	1342	258.950438682798	1
0	1343	259.140791560363	0
0	1349	260.188774431079	1
0	1351	260.695983345544	2
0	1355	261.585275879591	1
0	1360	262.450691448419	0
0	1385	267.895550538331	1
0	1386	268.350348160227	0
0	1390	268.917683643926	1
0	1396	269.792816247033	2
0	1397	269.99511106733	1
0	1404	270.450594597194	0
0	1410	270.725704738412	1
0	1411	271.045719224528	0
0	1433	273.121681934276	1
0	1434	273.484563902319	0
0	1438	275.253586792394	1
0	1443	276.233075983216	0
0	1449	276.476944509486	1
0	1450	278.703657087535	0
0	1469	282.520840587915	1
0	1470	282.76513723626	0
0	1483	284.208672155786	1
0	1485	284.257144214247	2
0	1494	288.030565830874	1
0	1501	288.492316313611	0
0	1558	297.266079173149	1
0	1562	299.788980833839	0
0	1582	302.420522863755	1
0	1584	302.859374444013	2
0	1585	303.386378442895	1
0	1590	303.4464377821	0
0	1598	304.416645576002	1
0	1599	304.449683500057	0
0	1611	306.950926220861	1
0	1612	307.021845400445	0
0	1637	309.313870322569	1
0	1639	310.725341837001	2
0	1648	313.719259974847	1
0	1655	313.830129446796	2
0	1656	313.993768749413	1
0	1661	314.052425129646	0
0	1673	314.570510570419	1
0	1674	314.586429390062	0
0	1696	316.979774919165	1
0	1699	317.252490239579	0
0	1703	317.516675892202	1
0	1705	317.699274720867	2
0	1707	318.817225561285	3
0	1711	319.594975771699	2
0	1718	321.064289919227	1
0	1728	322.43526952799	2
0	1730	322.489901306399	3
0	1731	322.649935454983	2
0	1735	323.14040078777	3
0	1737	323.465739612384	4
0	1743	323.81169774404	5
0	1744	323.887111782577	4
0	1751	324.700717606749	5
0	1752	324.911957095035	4
0	1757	325.198276930463	3
0	1761	325.296445970067	4
0	1765	326.07478850807	5
0	1766	326.311320739555	4
0	1770	326.619125001713	5
0	1773	327.386579234562	4
0	1780	329.497346671814	5
0	1781	329.510567636779	4
0	1787	330.034607846359	3
0	1796	332.234674129236	4
0	1797	332.742414708179	3
0	1804	334.211294033176	2
0	1808	334.456567566387	3
0	1812	335.286808140821	4
0	1814	336.275044451384	5
0	1819	337.807328247415	4
0	1825	339.660461205009	5
0	1826	339.99133096122	4
0	1831	341.753556916032	3
0	1836	344.691671691431	2
0	1842	345.173863603208	3
0	1843	345.255579557066	2
0	1849	345.73882247206	3
0	1852	346.552183109103	4
0	1854	347.658384063366	5
0	1855	348.117416134792	4
0	1860	348.160769778473	3
0	1864	348.440393631517	4
0	1869	350.4545481194	3
0	1874	351.355227750447	2
0	1880	352.964313810756	3
0	1882	354.913180480312	4
0	1883	355.185649678243	3
0	1888	355.748872060714	2
0	1894	356.157488163848	3
0	1896	356.423751415233	4
0	1899	357.58358340496	3
0	1904	358.040788185499	2
0	1908	358.152798102023	3
0	1911	359.728935283431	2
0	1916	359.890353867234	1
0	1923	362.109637732239	0
0	1927	362.525315991144	1
0	1930	363.077553527639	0
0	1973	371.498748150932	1
0	1977	373.573400417437	2
0	1979	374.29116762741	3
0	1983	376.195029115653	2
0	1989	376.436126912918	1
0	1994	377.480360045362	0
0	1998	377.497210937229	1
0	2001	377.520699190239	0
0	2005	378.014630111832	1
0	2008	379.508629163781	0
0	2015	380.856938372349	1
0	2016	381.085271153533	0
0	2022	381.089135785593	1
0	2023	381.093084704022	0
0	2030	381.777262884661	1
0	2032	382.224040902727	2
0	2033	382.643380542052	1
0	2041	383.305553848743	2
0	2042	383.402346809033	1
0	2046	383.933913163319	2
0	2050	385.240472817897	3
0	2051	385.589499377342	2
0	2057	386.31696490151	3
0	2058	386.656635850717	2
0	2064	387.295761260962	3
0	2065	388.904572778779	2
0	2070	390.726084898214	1
0	2075	391.160801884639	0
0	2106	396.472326978235	1
0	2111	397.319700020183	0
0	2117	397.713157518745	1
0	2119	398.211111704771	0
0	2123	398.394446759202	1
0	2126	399.350106422334	0
0	2146	401.782488587756	1
0	2148	401.783425748999	2
0	2150	401.807674552279	3
0	2154	402.862886915173	4
0	2157	403.32168061148	3
0	2164	404.420849986116	2
0	2169	405.030364715531	1
0	2174	405.23746233016	0
0	2180	407.267110670326	1
0	2183	408.323486784755	0
0	2187	409.43098021534	1
0	2189	409.633131587663	2
0	2192	410.650663668286	1
0	2197	410.997618223833	0
0	2232	414.433736192779	1
0	2238	415.955220031638	0
0	2263	419.335071004545	1
0	2266	420.124461789595	0
0	2272	420.458282529181	1
0	2273	420.918354396575	0
0	2277	421.619392384556	1
0	2282	423.546975148917	0
0	2299	427.685261888758	1
0	2303	428.846488038065	2
0	2306	429.079847561003	1
0	2313	431.350235513373	0
0	2339	434.96802455719	1
0	2341	436.146401092013	2
0	2343	437.446446271269	3
0	2345	437.585900112392	4
0	2347	437.982084344734	5
0	2349	438.022793732457	6
0	2352	439.041088488936	5
0	2358	439.5332839749	4
0	2365	442.092666375012	3
0	2370	443.044530213561	2
0	2377	444.94922589535	1
0	2381	446.087186593459	2
0	2385	448.243325209109	3
0	2386	448.263170007161	2
0	2391	449.813234535	1
0	2395	450.729797853195	2
0	2400	451.844151527531	1
0	2407	453.907084876256	0
0	2447	460.26327298395	1
0	2449	460.811830491801	2
0	2451	461.309958570992	1
0	2458	461.883239202801	2
0	2460	463.096243122493	1
0	2468	464.216207954046	2
0	2470	464.552597470769	1
0	2476	464.758109340488	0
0	2502	466.69816849337	1
0	2506	467.757938153418	2
0	2508	468.014322636495	3
0	2510	468.319310053007	4
0	2515	470.226584172911	3
0	2525	471.23486733528	2
0	2531	472.247681891367	3
0	2532	472.85232332627	2
0	2537	473.045111645068	1
0	2543	474.80950709091	0
0	2559	475.686384419273	1
0	2560	475.928987572373	0
0	2564	477.358865703687	1
0	2568	478.006160311947	2
0	2569	478.024941986981	1
0	2573	478.673044619576	2
0	2575	479.508837696898	3
0	2584	482.96366756748	4
0	2586	483.065632582879	5
0	2588	483.086768242435	6
0	2589	483.092909465982	5
0	2596	484.422503047002	4
0	2601	485.049974494712	3
0	2607	486.591239264177	2
0	2613	487.593916476122	3
0	2615	487.598339441052	4
0	2617	488.243315260321	3
0	2623	488.377698590746	4
0	2625	488.753472644893	3
0	2631	488.928781553847	2
0	2637	489.369579066238	3
0	2638	489.406671527663	2
0	2644	490.078072264392	3
0	2647	491.403722852769	2
0	2655	492.704869343658	3
0	2657	492.708720942844	4
0	2661	493.121836558391	5
0	2662	493.551252858855	4
0	2671	494.43578758019	5
0	2672	494.76066121268	4
0	2678	495.179271801064	5
0	2679	495.273691104767	4
0	2687	496.273291243468	3
0	2693	496.798740654489	4
0	2696	497.38763128349	3
0	2701	497.51206560942	2
0	2706	498.596523883837	1
0	2711	498.781517279896	0
0	2715	498.932661315498	1
0	2720	500.134478187543	2
0	2722	501.066005557765	3
0	2724	501.148298279453	4
0	2725	502.45381736785	3
0	2731	502.667624704243	4
0	2734	502.722402930454	3
0	2739	502.925001828377	2
0	2745	503.210985967014	1
0	2750	503.744200635128	0
0	2763	505.652492773342	1
0	2765	506.575405698696	2
0	2768	507.353953350753	1
0	2774	507.737525033561	2
0	2776	508.383672985177	1
0	2781	509.435557287677	0
0	2815	516.213311958555	1
0	2816	516.964307621074	0
0	2830	520.694289122887	1
0	2835	521.773869049167	2
0	2837	522.017089555459	1
0	2843	522.389689941432	2
0	2844	522.783895735406	1
0	2852	523.294601806341	0
0	2856	523.883181957152	1
0	2859	524.36073637336	0
0	2863	524.620398029398	1
0	2865	526.004523287573	2
0	2869	528.181654037736	1
0	2878	530.075614641116	2
0	2879	530.132660264438	1
0	2884	530.722114740368	0
0	2898	532.103678311173	1
0	2900	533.135916317697	0
0	2924	537.018350640479	1
0	2925	537.543505844134	0
0	2946	541.689703295055	1
0	2947	541.820055040227	0
0	2953	542.08485303084	1
0	2957	542.603540274611	0
0	2989	547.615815048562	1
0	2992	549.006438400797	0
0	2998	549.104487092735	1
0	3001	549.259497747017	2
0	3002	549.340774485269	1
0	3007	549.386821371427	0
0	3014	550.079948935441	1
0	3015	550.567902256414	0
0	3021	551.201044857973	1
0	3023	551.720916564161	0
0	3027	552.11724623032	1
0	3030	552.493988518116	0
0	3036	557.495230131458	1
0	3039	558.246471997327	0
0	3043	558.307175914952	1
0	3048	560.314939765261	0
0	3067	562.422382977747	1
0	3069	563.898008620742	2
0	3071	565.905932291636	3
0	3073	566.354417850403	4
0	3078	568.096276116143	5
0	3080	568.29076147583	4
0	3085	568.344359273415	3
0	3090	568.716627382877	2
0	3094	568.990484424861	3
0	3096	569.304156121233	4
0	3099	570.14590894185	3
0	3107	574.674444264753	4
0	3112	575.067336210886	5
0	3115	576.026653953462	6
0	3116	576.049861902103	5
0	3121	577.261900900862	4
0	3125	578.327359408368	5
0	3132	579.145600062418	4
0	3137	579.151770745295	3
0	3142	579.632407174494	2
0	3150	580.715372250589	3
0	3151	583.066982597578	2
0	3156	583.543871735894	1
0	3161	583.960659384029	0
0	3190	589.598187998365	1
0	3197	591.390799969207	0
0	3208	591.968235914788	1
0	3209	593.094303919372	0
0	3213	593.611068666679	1
0	3216	593.997353585907	0
0	3232	597.279343165003	1
0	3234	597.316768146897	2
0	3238	597.743808849325	3
0	3240	598.414387364091	4
0	3241	599.084116648644	3
0	3246	599.25589160983	2
0	3251	599.481990353797	1
0	3255	599.709123860048	2
0	3257	600.168971872275	3
0	3261	601.020534940792	4
0	3262	601.340430310406	3
0	3266	601.541981982842	4
0	3268	602.756540252393	5
0	3270	604.934977677653	6
0	3272	605.199861115376	7
0	3274	605.711379525735	8
0	3278	606.322301605718	7
0	3284	607.31939553548	6
0	3288	607.665097473606	7
0	3291	608.547397674928	6
0	3299	608.911910866604	5
0	3304	608.91797763105	4
0	3310	609.473850581499	5
0	3316	612.051682718772	6
0	3317	612.402234652849	5
0	3323	612.777691527044	6
0	3324	613.138934436428	5
0	3329	614.298819833758	4
0	3335	615.126879653123	5
0	3336	615.295154522117	4
0	3341	617.099754130493	3
0	3345	617.750240235154	4
0	3348	620.038313715584	3
0	3353	621.329442949002	2
0	3358	621.874576027391	1
0	3365	622.10301483696	0
0	3369	622.504863811356	1
0	3374	623.4795759076	2
0	3375	626.228328753017	1
0	3380	626.333416188171	0
0	3428	637.107064500645	1
0	3430	637.332749440441	2
0	3436	639.112600108765	3
0	3438	639.763804229539	4
0	3439	640.118052770835	3
0	3444	640.649952180342	2
0	3449	640.665447054847	1
0	3455	640.945497488419	2
0	3462	645.385881982404	1
0	3467	645.622192961791	0
0	3473	645.703744506574	1
0	3476	646.702156646877	0
0	3495	653.020123648463	1
0	3498	653.68638564909	2
0	3501	654.337874519729	3
0	3502	655.113593176257	2
0	3508	655.282982478844	3
0	3509	655.314514366986	2
0	3514	656.209888687232	1
0	3520	656.477176491387	0
0	3533	657.358927406083	1
0	3536	658.622323926926	2
0	3538	659.359255753967	1
0	3543	659.378672762309	0
0	3547	662.095056688144	1
0	3549	662.25858671863	2
0	3552	662.679509807868	1
0	3561	665.888530333635	0
0	3569	666.401451985807	1
0	3570	666.741581855134	0
0	3576	666.996207521472	1
0	3579	667.913340518762	0
0	3595	668.385543186909	1
0	3599	671.821540261601	0
0	3605	673.031301045249	1
0	3608	673.655350260889	2
0	3611	673.810112960002	3
0	3612	674.451612818425	2
0	3620	675.020417711535	3
0	3622	675.168877936684	4
0	3623	677.538632744836	3
0	3629	679.049943482151	2
0	3636	680.306732734665	1
0	3641	680.456445796748	0
0	3667	686.049005608242	1
0	3669	687.019040242752	2
0	3679	689.266833847888	3
0	3680	689.52250478146	2
0	3686	691.693891506757	1
0	3691	691.792300920577	0
0	3697	692.067007557958	1
0	3699	692.187008566093	0
0	3711	694.53367179992	1
0	3714	694.7001866952	2
0	3715	695.546530711698	1
0	3720	695.959977522117	0
0	3734	698.590324557723	1
0	3735	700.338801461265	0
0	3739	702.093682563261	1
0	3743	703.290366182277	0
0	3750	704.996923368731	1
0	3751	705.504575996788	0
0	3755	705.889933774058	1
0	3757	709.493136491039	2
0	3761	710.284026435698	3
0	3763	711.598709913507	4
0	3764	711.773430448697	3
0	3773	716.981177188565	2
0	3778	719.629495278364	1
0	3785	720.336415487182	2
0	3788	720.657900927361	3
0	3790	720.822882441498	4
0	3792	720.946165080438	5
0	3794	721.069416798525	6
0	3795	721.286127933704	5
0	3803	722.752062359281	4
0	3808	723.008797696687	3
0	3813	723.107281454612	2
0	3817	725.244762430495	3
0	3822	726.107871915819	2
0	3827	726.861643593279	1
0	3833	727.812918798055	0
0	3852	732.631093796426	1
0	3854	733.295826223226	2
0	3861	736.466247782405	1
0	3866	736.577850629927	0
0	3926	743.720593479439	1
0	3929	743.866297904469	0
0	3947	746.954698674759	1
0	3948	747.111430385842	0
0	3962	748.154226725274	1
0	3966	748.556221766718	2
0	3968	748.99663947479	1
0	3976	751.005515001968	2
0	3977	751.562017448691	1
0	3985	752.300412609403	0
0	3991	752.624134353221	1
0	3994	752.854934639064	0
0	3998	753.276046431156	1
0	4001	753.731563964132	0
0	4027	758.046048922137	1
0	4032	759.288481755789	0
0	4059	764.271565748629	1
0	4061	764.462311689667	2
0	4068	765.620596037867	1
0	4076	765.826696685193	0
0	4097	769.587357998054	1
0	4098	769.732079383731	0
0	4104	770.409000215966	1
0	4106	770.925390683506	0
0	4114	771.385188541422	1
0	4119	771.953257935041	0
0	4131	772.406607659874	1
0	4132	773.086833954438	0
0	4136	773.284037583293	1
0	4141	774.61266737312	0
0	4150	775.694966616548	1
0	4151	775.983523546091	0
0	4170	777.456764008232	1
0	4172	778.210532436908	2
0	4174	778.767988040676	3
0	4178	779.463319801736	4
0	4181	780.760091056197	3
0	4188	781.420994631634	2
0	4192	782.488394877529	3
0	4195	783.559848808985	2
0	4201	784.52157891424	1
0	4206	784.55572771907	0
0	4227	787.439646305722	1
0	4229	787.921495094597	2
0	4230	788.374856503928	1
0	4238	789.049920101794	2
0	4239	789.156767391563	1
0	4247	790.286339240587	0
0	4269	792.608588078982	1
0	4271	792.679211529275	2
0	4273	792.817581408818	3
0	4274	792.932763447929	2
0	4283	794.357744509379	1
0	4288	795.336152454258	0
0	4301	798.016989973726	1
0	4302	798.283279896144	0
0	4309	799.17476487334	1
0	4311	799.607496545218	2
0	4316	801.63401971284	1
0	4321	801.734521264292	0
0	4330	803.004945370453	1
0	4332	803.128515406558	2
0	4333	803.460999896466	1
0	4338	803.749623250757	0
0	4344	804.95630442123	1
0	4345	805.541032865378	0
0	4363	808.657099561381	1
0	4371	810.88640198266	0
0	4395	815.750049778354	1
0	4403	816.956557184916	0
0	4416	818.29604686893	1
0	4418	819.404152909423	2
0	4419	819.730758801507	1
0	4424	819.867975756371	0
0	4434	820.452370957391	1
0	4440	822.270905212668	2
0	4442	822.304083726705	3
0	4443	823.681407198267	2
0	4449	823.793355570883	3
0	4452	824.136754501066	2
0	4458	824.574207801458	3
0	4461	825.055123356653	4
0	4463	825.817425926216	5
0	4464	825.903208250473	4
0	4472	827.03168958053	5
0	4473	827.352325928913	4
0	4477	827.403131073889	5
0	4479	828.431044671094	6
0	4484	831.848882184465	7
0	4485	832.054900957102	6
0	4491	832.863865669772	7
0	4492	832.955749110307	6
0	4497	833.919120992415	5
0	4504	835.092438267641	4
0	4510	835.602024671258	3
0	4516	835.710152739404	4
0	4518	835.911744730557	5
0	4519	835.963923768409	4
0	4523	836.139411341632	5
0	4527	837.105951885741	6
0	4530	837.229105784958	5
0	4536	838.649000369434	6
0	4537	838.666028354898	5
0	4542	839.519032036189	4
0	4549	841.599741763829	3
0	4555	842.450019510313	2
0	4563	843.125499709581	3
0	4566	844.270372578889	2
0	4571	844.285790095522	1
0	4576	844.31992512753	0
0	4592	845.883887048008	1
0	4595	846.21425100564	2
0	4597	846.818652103242	3
0	4599	847.252277823203	4
0	4600	847.475021456956	3
0	4606	847.522230725348	4
0	4607	847.59706516542	3
0	4612	847.840480922771	2
0	4618	849.119668965545	3
0	4619	849.122477879754	2
0	4626	851.430309144586	1
0	4633	852.802384627289	2
0	4635	853.022499405499	3
0	4637	853.112783282764	4
0	4640	854.352522065887	5
0	4641	855.244504550361	4
0	4647	855.57744788572	3
0	4653	856.476541304714	4
0	4657	856.9416499165	5
0	4658	856.952484187019	4
0	4662	857.2369651048	5
0	4665	857.698556214528	4
0	4674	860.477494285	5
0	4677	860.98372555109	6
0	4679	861.573698102511	7
0	4680	862.075406595492	6
0	4685	862.432353292163	5
0	4690	863.023556856155	4
0	4695	863.073688024076	3
0	4699	864.104287915672	4
0	4704	864.262500391078	3
0	4710	865.071911584464	4
0	4711	865.103637482287	3
0	4715	865.744123530181	4
0	4717	866.366282358606	5
0	4720	867.306728699942	4
0	4726	869.487946047846	5
0	4727	869.680938836113	4
0	4731	871.645398529247	5
0	4733	872.762144177527	6
0	4739	874.39411889189	5
0	4744	874.446665673887	4
0	4750	874.621525656517	5
0	4752	875.009295408609	6
0	4753	875.262519600157	5
0	4757	875.658616643293	6
0	4761	876.69408753266	7
0	4762	879.143425281487	6
0	4766	880.357623979969	7
0	4768	881.268605963465	8
0	4774	882.991811374027	9
0	4775	883.882078952391	8
0	4780	884.612905853717	7
0	4787	885.230310656067	6
0	4792	886.255778266456	5
0	4796	886.260562011063	6
0	4799	887.118737299543	5
0	4803	887.892385872676	6
0	4806	888.304618681015	5
0	4810	889.424859337559	6
0	4814	891.000055731665	5
0	4819	891.246040523128	4
0	4823	892.134993183399	5
0	4827	892.277144322581	6
0	4829	892.846366374477	7
0	4832	893.447415825317	6
0	4838	894.909237066646	7
0	4839	894.94947503683	6
0	4843	896.489778580594	7
0	4851	900.223511356648	8
0	4853	900.417675300726	9
0	4857	900.785357384544	10
0	4859	900.895435302828	11
0	4860	901.199486195598	10
0	4865	902.159478998321	9
0	4869	903.04792018514	10
0	4872	906.513887085055	9
0	4879	906.844010261647	8
0	4885	908.358836530945	9
0	4887	908.396667550236	10
0	4891	910.44829077077	9
0	4896	910.845792804868	8
0	4903	914.81710881882	7
0	4909	916.690026849999	8
0	4911	916.821246076687	9
0	4912	916.974794016615	8
0	4917	918.318276828608	7
0	4925	919.095236675073	8
0	4926	919.146549808341	7
0	4933	920.919134215117	6
0	4939	921.946220955391	7
0	4943	922.689425367009	8
0	4944	922.733206176463	7
0	4951	925.66055233691	6
0	4956	926.129306810628	5
0	4964	926.813268018634	6
0	4965	926.890184005905	5
0	4969	927.343217909132	6
0	4971	928.821834310905	7
0	4974	929.966793188503	6
0	4978	930.177607055782	7
0	4980	931.194100715466	8
0	4984	932.323237027617	7
0	4991	933.041916771509	6
0	4998	933.525841879985	5
0	5005	935.940741857662	6
0	5006	936.296093404082	5
0	5012	937.539718563948	6
0	5014	938.447064158744	5
0	5019	938.740031065767	4
0	5024	939.289616942374	3
0	5028	940.38469555742	4
0	5030	940.480860521591	5
0	5035	941.331525190356	4
0	5041	941.473788205783	5
0	5046	944.233897724318	4
0	5051	945.002107878891	3
0	5055	945.268996632811	4
0	5058	945.973887558783	3
0	5062	946.185349891075	4
0	5065	946.86925276003	3
0	5069	946.948812249409	4
0	5071	947.356909708463	5
0	5073	947.583051038202	6
0	5078	948.582426149223	5
0	5085	949.358630696401	4
0	5090	950.139951070261	3
0	5095	950.248695874387	2
0	5102	952.013156873089	1
0	5111	952.578209532993	0
0	5143	957.075670074154	1
0	5147	957.874687608932	2
0	5149	958.132512563584	3
0	5151	958.262338817113	4
0	5155	958.505850890604	5
0	5160	959.717105609977	4
0	5168	960.969194883237	3
0	5174	961.479029726532	4
0	5177	961.835160086236	3
0	5185	963.290590905836	2
0	5192	964.139468189865	1
0	5196	964.706940193908	2
0	5198	964.899923833767	3
0	5200	965.092358766264	4
0	5206	967.725121396838	5
0	5208	967.770749330503	6
0	5211	968.439787636831	5
0	5216	968.774597750297	4
0	5223	969.342909994569	3
0	5227	970.387819174142	4
0	5232	971.016426452169	3
0	5236	972.086192842601	4
0	5241	974.788263545162	3
0	5247	976.206047729908	4
0	5249	976.414283243733	5
0	5250	976.653904784346	4
0	5256	977.890691310368	5
0	5263	980.324853236673	4
0	5267	980.877914656325	5
0	5271	981.407476559673	6
0	5272	981.479529997771	5
0	5276	982.0226858542	6
0	5281	982.71992273651	7
0	5282	982.925483687431	6
0	5287	983.0912241347	5
0	5299	987.635584031703	4
0	5304	987.879317513812	3
0	5308	987.936253449967	4
0	5312	989.652000346111	3
0	5317	990.774710010673	2
0	5324	991.610072665783	1
0	5331	992.650294790104	0
0	5335	993.05472554177	1
0	5340	994.480306873554	0
0	5346	994.947380706717	1
0	5349	995.178060396911	0
0	5372	1000.948180669065	1
0	5374	1000.989333920184	2
0	5376	1001.857738051622	3
0	5382	1004.825824516161	4
0	5385	1006.822649549634	3
0	5391	1009.55021599796	2
0	5396	1009.686387735961	1
0	5401	1010.022484525986	0
0	5405	1012.157159960914	1
0	5409	1012.880189655288	2
0	5415	1013.349999377955	1
0	5421	1013.622057641202	0
0	5425	1014.012243442009	1
0	5428	1014.240611640933	0
0	5432	1014.633485167221	1
0	5434	1014.81505670542	2
0	5437	1015.336537826122	1
0	5442	1017.219747762718	0
0	5463	1018.468229973141	1
0	5465	1018.656934942732	2
0	5468	1020.509767144597	3
0	5475	1022.612033832044	4
0	5476	1022.655981347826	3
0	5482	1023.192667855501	4
0	5484	1023.542683041277	5
0	5486	1024.591808843029	6
0	5487	1025.579881067467	5
0	5493	1025.689326070646	6
0	5495	1026.656343491751	5
0	5500	1026.808833661691	4
0	5504	1026.912092025384	5
0	5508	1027.48642562442	6
0	5509	1028.017156958172	5
0	5513	1028.044054129705	6
0	5517	1029.230990977272	7
0	5518	1029.418580589819	6
0	5524	1030.830083607398	7
0	5526	1030.848943098456	8
0	5528	1031.403578798436	9
0	5529	1031.560713514482	8
0	5535	1033.282487893223	7
0	5540	1033.28903738281	6
0	5548	1034.337245310344	7
0	5550	1034.394083314815	8
0	5551	1034.481395294689	7
0	5558	1035.564986488355	6
0	5562	1036.067402146311	7
0	5564	1036.344479160324	8
0	5566	1036.579540236778	9
0	5571	1037.957796306176	10
0	5572	1039.193834736382	9
0	5578	1039.542159723778	8
0	5583	1040.645509166254	7
0	5588	1041.051734053666	6
0	5593	1041.990077248318	5
0	5599	1043.055180409938	6
0	5601	1043.10325412974	7
0	5602	1043.571112241702	6
0	5606	1043.710420370588	7
0	5609	1046.596678047707	6
0	5615	1047.830011280601	7
0	5617	1047.949491216067	8
0	5618	1048.135999071985	7
0	5624	1050.809175808875	8
0	5628	1052.172203234985	9
0	5632	1052.531609652243	10
0	5636	1053.029202288038	9
0	5641	1053.326027702427	8
0	5647	1054.681516760592	9
0	5649	1054.760346619583	10
0	5653	1056.412240230548	11
0	5655	1057.029328611107	12
0	5656	1057.456082815932	11
0	5660	1057.530497113731	12
0	5663	1058.208394427735	11
0	5669	1059.06693065598	12
0	5671	1059.427592741951	13
0	5677	1060.312593478018	14
0	5680	1060.900013647521	13
0	5685	1061.798722757976	12
0	5691	1062.267619599603	11
0	5696	1062.64124003489	10
0	5702	1064.883312612	11
0	5704	1065.296791802832	12
0	5706	1065.411441450711	13
0	5708	1066.672064900484	14
0	5709	1066.711582715456	13
0	5714	1068.292868834188	12
0	5718	1069.094670399489	13
0	5720	1070.11353078894	14
0	5723	1070.811421194225	13
0	5728	1071.370778268301	12
0	5734	1072.265712161044	11
0	5740	1073.027637489465	12
0	5742	1073.67577207817	13
0	5745	1075.016540090119	12
0	5756	1076.760591727898	13
0	5757	1077.124804004082	12
0	5764	1077.186652653337	11
0	5769	1078.312255484461	10
0	5774	1078.461024415328	9
0	5778	1078.652515108763	10
0	5782	1080.335748436399	9
0	5787	1080.372707764601	8
0	5792	1081.777620347783	7
0	5799	1082.657848597541	8
0	5801	1083.899354146821	9
0	5803	1084.242433852685	10
0	5804	1084.280333510151	9
0	5809	1085.668710019716	8
0	5814	1086.287142034577	7
0	5819	1087.384065676559	6
0	5824	1087.501500987232	5
0	5830	1088.177211601337	6
0	5831	1088.995793220646	5
0	5836	1089.560068897948	4
0	5841	1090.35193596074	3
0	5846	1090.666246494229	2
0	5858	1091.197887384368	3
0	5860	1091.438519377559	4
0	5861	1091.914390179695	3
0	5867	1092.388084817775	2
0	5872	1092.966625904255	1
0	5876	1092.975119448229	2
0	5880	1095.22041812839	3
0	5882	1095.652805871266	4
0	5885	1097.37775312713	3
0	5889	1098.190117181827	4
0	5893	1098.742274643908	5
0	5894	1100.30793045897	4
0	5899	1100.485327192463	3
0	5903	1100.912316816419	4
0	5905	1101.609599691127	5
0	5908	1101.75826400552	4
0	5915	1102.368646759555	3
0	5920	1103.421431268387	2
0	5925	1104.263800156423	1
0	5931	1104.789139418918	2
0	5933	1105.066555867266	3
0	5935	1106.088748955791	2
0	5941	1106.579480097373	3
0	5942	1106.642605268313	2
0	5948	1107.402076095261	1
0	5953	1107.557796713403	0
0	6009	1116.440769031128	1
0	6011	1116.713257526349	2
0	6015	1117.882626294119	3
0	6016	1118.071018645273	2
0	6022	1118.33635001405	1
0	6027	1118.362233510205	0
0	6043	1119.525702860353	1
0	6047	1122.005545020723	2
0	6049	1122.16838700454	3
0	6059	1123.441582046975	4
0	6060	1123.641199987179	3
0	6065	1124.16443394302	2
0	6070	1126.422964175299	1
0	6076	1127.587216683343	2
0	6079	1130.076138474426	1
0	6083	1130.437980041115	2
0	6089	1131.915718803601	3
0	6092	1132.590242264413	2
0	6100	1137.040251180769	3
0	6102	1137.282827019472	4
0	6105	1137.80214767741	3
0	6109	1137.825568462785	4
0	6113	1138.225569069866	3
0	6119	1138.728723726082	4
0	6121	1139.615662291463	3
0	6126	1140.289683932228	2
0	6132	1142.052424701504	3
0	6139	1143.297795859372	4
0	6140	1143.492686632137	3
0	6146	1143.83596426347	2
0	6151	1143.880239986907	1
0	6159	1145.219649972602	0
0	6180	1147.100550325721	1
0	6185	1147.778772069363	2
0	6186	1147.795082235159	1
0	6191	1148.466038046589	0
0	6197	1148.723886237972	1
0	6201	1151.508403788294	0
0	6226	1154.263607100505	1
0	6232	1156.083078139283	0
0	6251	1158.774393571199	1
0	6252	1160.205160221371	0
0	6263	1161.623975974675	1
0	6266	1163.989650313565	0
0	6281	1165.399834079039	1
0	6283	1165.691950887551	2
0	6286	1166.968679377658	1
0	6292	1167.639574060424	0
0	6331	1170.421984897301	1
0	6335	1171.360424608558	2
0	6339	1173.378640908299	1
0	6344	1173.674374161282	0
0	6362	1177.688027056084	1
0	6363	1177.966597459481	0
0	6369	1177.976144325611	1
0	6371	1178.609451979486	2
0	6373	1178.903712212346	3
0	6375	1179.211966266153	2
0	6382	1180.200030656848	1
0	6387	1181.747292737792	0
0	6410	1184.653649640535	1
0	6413	1185.672389944077	0
0	6421	1186.350572783787	1
0	6422	1186.870649191417	0
0	6432	1188.906920614521	1
0	6435	1189.634608450987	0
0	6447	1191.847785521899	1
0	6457	1194.123143215485	2
0	6459	1194.426128591976	3
0	6461	1194.57375721818	4
0	6463	1194.609706929183	5
0	6465	1194.747200124339	6
0	6466	1194.964710196908	5
0	6472	1195.145511252879	6
0	6473	1195.362647984433	5
0	6477	1197.746438266807	6
0	6482	1199.859611888587	5
0	6491	1201.147529400829	4
0	6497	1201.76064670691	3
0	6503	1202.155757331746	4
0	6504	1202.817347757512	3
0	6509	1203.107497177684	2
0	6515	1203.716079302598	3
0	6518	1204.741443543837	2
0	6523	1204.812079497554	1
0	6530	1205.424020544783	0
0	6565	1215.205289746667	1
0	6572	1217.57726245598	0
0	6585	1220.291719812376	1
0	6588	1221.084820145451	0
0	6594	1221.464403444192	1
0	6599	1223.142832388371	0
0	6610	1223.786262701861	1
0	6613	1225.245355409892	2
0	6615	1225.371397216875	3
0	6618	1226.261922783122	4
0	6620	1228.294694215522	3
0	6627	1228.437465047634	4
0	6629	1229.541734386977	3
0	6635	1229.697256255667	4
0	6639	1231.949387446282	3
0	6645	1233.606032119636	4
0	6647	1234.196954566502	5
0	6648	1234.319253460815	4
0	6653	1234.596373687184	3
0	6657	1236.651110732534	4
0	6661	1239.161545204521	5
0	6662	1240.058343262988	4
0	6667	1241.106883688304	3
0	6674	1243.034318871271	2
0	6680	1243.823573631623	3
0	6682	1244.010948531235	4
0	6684	1244.345612039201	5
0	6689	1244.683287426768	4
0	6693	1244.856529344697	5
0	6695	1245.204726032497	6
0	6700	1246.848979686661	5
0	6707	1248.722274234779	4
0	6713	1248.848937802131	5
0	6715	1249.468092384388	6
0	6716	1250.92355158648	5
0	6723	1251.306447701915	4
0	6728	1251.349845604708	3
0	6733	1252.121058886561	2
0	6737	1252.5316125075	3
0	6741	1252.938316478457	2
0	6747	1253.542923406814	1
0	6752	1253.67710901243	0
0	6756	1253.683598457431	1
0	6761	1257.247215179193	0
0	6774	1259.821892170611	1
0	6775	1259.872667921577	0
0	6790	1261.013640727705	1
0	6791	1261.898047200998	0
0	6812	1264.420284016967	1
0	6815	1267.257502977715	0
0	6819	1269.775191727091	1
0	6821	1270.382882820081	2
0	6823	1271.191215219182	3
0	6827	1273.789383217914	2
0	6832	1273.801102751792	1
0	6841	1274.714573056444	2
0	6843	1275.205473690018	1
0	6851	1275.92896349034	0
0	6862	1276.6129652898	1
0	6863	1277.028588051912	0
0	6875	1279.771563893149	1
0	6879	1280.459318688408	2
0	6880	1280.635663196897	1
0	6886	1280.654417320381	2
0	6888	1281.107227346824	1
0	6893	1282.323160952662	0
0	6897	1283.303051379659	1
0	6899	1283.994107821654	2
0	6902	1285.963100042974	1
0	6906	1286.727103857594	2
0	6909	1286.938279847478	1
0	6913	1287.869501505965	2
0	6915	1287.98532092848	3
0	6917	1288.102637582294	4
0	6922	1289.809510086021	3
0	6928	1292.554537213318	4
0	6929	1292.620855487869	3
0	6937	1294.604886001044	4
0	6941	1295.941506331718	5
0	6943	1296.075502246767	6
0	6944	1297.160518041291	5
0	6950	1297.418941175291	6
0	6952	1297.683168525826	7
0	6955	1298.028984505661	6
0	6960	1298.432786227923	5
0	6966	1299.946999864887	6
0	6972	1301.108839907591	7
0	6973	1301.159009308586	6
0	6981	1302.542871564331	7
0	6983	1306.697565709235	8
0	6984	1307.08888095339	7
0	6991	1308.714769963621	6
0	6995	1308.846356645282	7
0	6997	1308.943297017454	8
0	7000	1309.813319724074	7
0	7004	1310.141868098407	8
0	7007	1312.803153750194	7
0	7013	1313.648176511675	8
0	7015	1314.177629989097	7
0	7022	1314.570864737398	6
0	7028	1314.849000938613	7
0	7029	1315.446478772477	6
0	7034	1317.079900015825	5
0	7038	1318.607861731689	6
0	7043	1319.213225709964	7
0	7046	1319.295043389186	6
0	7052	1319.308021483197	7
0	7053	1319.368037236209	6
0	7057	1319.854717675206	7
0	7062	1320.098356962475	6
0	7069	1320.29474268796	5
0	7073	1320.985626281069	6
0	7075	1321.09731365545	7
0	7077	1321.728995609116	8
0	7081	1322.891226964515	9
0	7082	1322.923219535141	8
0	7087	1323.043224523257	7
0	7093	1323.865764707004	8
0	7096	1324.358278432931	7
0	7102	1324.586345429075	8
0	7103	1325.373053714702	7
0	7107	1325.553602034235	8
0	7109	1325.591801517392	9
0	7113	1326.476682408153	10
0	7114	1326.582228268617	9
0	7120	1327.43875336168	10
0	7122	1327.842456712823	11
0	7125	1328.034136372941	10
0	7131	1330.423777419064	11
0	7134	1331.612608684272	10
0	7139	1332.69837237099	9
0	7143	1333.401093027607	10
0	7147	1333.547339486041	11
0	7148	1333.712956713745	10
0	7152	1333.716349888925	11
0	7154	1333.833478574863	12
0	7157	1334.984796162161	11
0	7163	1335.968413095583	10
0	7170	1336.392863511605	9
0	7176	1338.906225258593	10
0	7179	1341.141587729806	9
0	7185	1342.197001839478	8
0	7193	1342.384812979006	9
0	7194	1342.63853028366	8
0	7202	1343.510615646268	9
0	7204	1343.695187695262	10
0	7205	1343.896416927961	9
0	7209	1344.62649688439	10
0	7212	1346.081370502934	9
0	7218	1346.909065583746	8
0	7223	1347.022515953009	7
0	7228	1347.331116236455	6
0	7233	1348.009189338311	5
0	7237	1349.205032974695	6
0	7241	1349.489348048967	7
0	7243	1350.313868168047	6
0	7249	1350.635480573332	7
0	7252	1350.86692605345	6
0	7261	1352.866758312196	5
0	7266	1354.119037540834	4
0	7272	1355.340480880005	3
0	7280	1356.535694656116	4
0	7281	1358.495242112471	3
0	7286	1359.572743727273	2
0	7291	1359.994747290294	1
0	7295	1360.074893516061	2
0	7301	1362.731413255108	1
0	7307	1363.811227741054	0
0	7313	1364.415037906885	1
0	7315	1364.777986600411	2
0	7316	1364.931572175704	1
0	7320	1365.709668408727	2
0	7325	1366.944795889468	1
0	7329	1367.617423542563	2
0	7332	1370.109694442571	1
0	7337	1371.908706440806	0
0	7341	1372.136075220496	1
0	7343	1372.268080848402	2
0	7348	1374.535370673041	1
0	7352	1374.628164040069	2
0	7358	1375.418597768043	3
0	7361	1376.308050887765	2
0	7369	1377.635557453725	3
0	7375	1378.792652108069	4
0	7381	1380.028320390644	3
0	7387	1380.031555041488	4
0	7390	1380.828706111767	5
0	7392	1382.119916477643	6
0	7394	1382.990911501431	5
0	7400	1383.326253205357	6
0	7404	1383.546762067392	7
0	7406	1384.831430619721	8
0	7407	1384.921044257824	7
0	7413	1386.013477449045	8
0	7414	1386.464894173514	7
0	7420	1387.766181190298	6
0	7425	1388.522740762682	5
0	7431	1389.515399824353	6
0	7433	1389.627938381306	7
0	7435	1389.930289999629	8
0	7438	1391.058632466294	7
0	7444	1392.058639088599	8
0	7445	1392.164769640413	7
0	7449	1392.669256282729	8
0	7452	1393.601559360756	7
0	7458	1394.46202763169	8
0	7461	1394.868905838841	7
0	7468	1396.204347998168	6
0	7473	1397.22184880372	5
0	7478	1397.65830873925	4
0	7486	1400.58730264848	5
0	7487	1402.624031913351	4
0	7494	1403.863562830366	3
0	7499	1405.865816976108	2
0	7504	1406.338477051993	1
0	7511	1411.222342238596	0
0	7525	1414.777253247118	1
0	7527	1414.832716831399	0
0	7538	1415.094188418631	1
0	7539	1415.467461370948	0
0	7543	1416.020167187008	1
0	7545	1416.244793254417	2
0	7553	1417.829644265793	1
0	7558	1418.58169933758	0
0	7582	1420.434702567176	1
0	7583	1420.608966809431	0
0	7589	1420.614953506905	1
0	7590	1420.959469715689	0
0	7612	1424.59224617655	1
0	7617	1425.474468916008	0
0	7626	1426.21300589214	1
0	7628	1427.30083125001	2
0	7637	1428.150782010069	3
0	7639	1428.252881630444	4
0	7641	1428.569228858106	5
0	7643	1429.819020735876	6
0	7645	1430.203814607678	5
0	7651	1430.287075815816	6
0	7653	1430.374334944768	7
0	7656	1430.574136434903	8
0	7657	1432.243797298355	7
0	7662	1432.267071068402	6
0	7667	1433.068461963496	5
0	7673	1434.585164585835	6
0	7674	1434.76475525838	5
0	7680	1435.808942457356	6
0	7682	1436.566554159431	7
0	7684	1436.687573939684	8
0	7688	1437.572391550405	9
0	7689	1438.319326448511	8
0	7693	1438.509200708066	9
0	7698	1442.531004520229	8
0	7705	1443.819532677608	7
0	7709	1444.062307566833	8
0	7711	1445.823294021626	9
0	7713	1446.041131474222	10
0	7716	1446.889658236835	9
0	7721	1447.720248193054	8
0	7726	1448.674017084745	7
0	7730	1449.458077575285	8
0	7733	1450.091896948837	7
0	7739	1451.94808453028	8
0	7740	1452.236107388988	7
0	7745	1455.632899186645	6
0	7749	1456.855484549805	7
0	7751	1457.87503013081	8
0	7755	1459.003872781799	9
0	7757	1459.555001747091	10
0	7758	1459.674713215725	9
0	7762	1461.525940143386	10
0	7768	1464.104082117755	9
0	7773	1464.784895327734	8
0	7778	1465.203275627396	7
0	7782	1466.187654235758	8
0	7785	1467.543819879055	7
0	7790	1468.182498193548	6
0	7794	1469.984770397454	7
0	7797	1471.337730935755	6
0	7805	1474.495292203343	5
0	7810	1474.496384448255	4
0	7815	1474.561899463931	3
0	7819	1475.011930677873	4
0	7823	1475.614920772258	5
0	7824	1475.829274262508	4
0	7829	1476.813339159181	3
0	7833	1477.404256259905	4
0	7835	1477.519024217866	5
0	7838	1477.725900520843	4
0	7842	1477.846657748955	5
0	7846	1478.226536032477	6
0	7849	1479.192854173152	5
0	7854	1481.297662248013	4
0	7862	1483.270321248492	5
0	7864	1484.01638349378	6
0	7865	1484.953319551202	5
0	7870	1487.878519271333	4
0	7876	1489.541538603864	5
0	7878	1491.156420614904	6
0	7881	1491.611839051302	5
0	7885	1491.946483746803	6
0	7887	1492.583880563839	7
0	7891	1495.557018408713	8
0	7892	1495.682583491781	7
0	7898	1496.437214020377	8
0	7900	1496.445505509951	9
0	7902	1497.198760965176	8
0	7907	1497.221673272198	7
0	7920	1500.714668880309	8
0	7921	1501.021015899823	7
0	7926	1501.037352713059	6
0	7934	1502.407926311387	7
0	7937	1503.726486164767	6
0	7941	1503.732254126603	7
0	7945	1504.644442738264	6
0	7951	1504.723396693302	7
0	7952	1505.632489034963	6
0	7957	1505.96375740952	5
0	7961	1506.319728038887	6
0	7964	1507.031167316293	5
0	7970	1508.223436036821	4
0	7979	1508.847490154953	3
0	7984	1510.636030740786	2
0	7989	1511.404679392609	1
0	7995	1511.788130523585	2
0	7998	1512.505361732248	1
0	8002	1512.657826258242	2
0	8005	1514.20246633643	1
0	8011	1515.067975787176	2
0	8015	1516.155275638581	3
0	8016	1517.612763804591	2
0	8020	1517.859985173891	3
0	8023	1518.100692638523	2
0	8029	1518.72671505393	3
0	8033	1519.29670479129	4
0	8034	1520.005113093463	3
0	8038	1520.116986028076	4
0	8044	1521.291747721882	3
0	8050	1521.344075170769	4
0	8051	1521.598935165639	3
0	8059	1522.470521046384	4
0	8061	1523.424740944797	5
0	8063	1523.691621639227	6
0	8064	1523.839138207742	5
0	8068	1524.16521208585	6
0	8072	1524.354420962465	7
0	8073	1524.431278328973	6
0	8077	1525.751757359946	7
0	8079	1525.765027986869	8
0	8081	1526.050252049605	9
0	8083	1526.091347259421	10
0	8087	1527.4661191079	11
0	8089	1527.520244813132	12
0	8090	1528.898151069921	11
0	8097	1529.445216481184	10
0	8103	1531.211558529489	9
0	8109	1531.573357431174	10
0	8111	1531.977306123994	11
0	8115	1533.602670781998	10
0	8120	1534.389060693571	9
0	8124	1534.493001858685	10
0	8128	1536.140028853212	11
0	8131	1536.767038338374	10
0	8135	1537.289869549516	11
0	8137	1537.449156191535	12
0	8139	1538.427664862915	13
0	8145	1539.823471189538	12
0	8151	1542.445265055494	11
0	8157	1542.544281640746	12
0	8160	1542.857883757476	11
0	8166	1543.46130842997	12
0	8167	1543.631035008045	11
0	8173	1546.140221436162	12
0	8174	1546.851644710552	11
0	8178	1548.197647607295	12
0	8189	1552.034603757451	13
0	8190	1552.280251339524	12
0	8197	1554.48293710777	11
0	8201	1554.567100221516	12
0	8205	1555.774076808268	11
0	8210	1555.830575922708	10
0	8216	1559.441628316203	11
0	8218	1559.950971545466	12
0	8220	1560.179796982925	13
0	8221	1560.272460982096	12
0	8228	1561.883151458736	11
0	8233	1563.190047586938	10
0	8237	1563.31458085791	11
0	8241	1563.587849107101	12
0	8242	1563.771165464698	11
0	8253	1567.828377066276	12
0	8256	1568.520917358169	11
0	8263	1568.81487809207	12
0	8265	1568.882792727685	13
0	8267	1569.354274138269	12
0	8272	1569.474924883759	11
0	8280	1570.08869127025	12
0	8281	1570.819768580858	11
0	8287	1571.140844203287	12
0	8288	1571.6434123062	11
0	8293	1572.620475043374	10
0	8299	1575.077152668185	9
0	8306	1575.527390614012	10
0	8308	1576.090941396975	9
0	8313	1576.09674514036	8
0	8319	1576.203683076261	9
0	8321	1577.192345904339	10
0	8323	1577.278937071068	11
0	8324	1577.60939355229	10
0	8330	1578.58264200114	9
0	8335	1578.660117395081	8
0	8339	1578.796210726255	9
0	8341	1578.874993522295	10
0	8345	1580.240620106099	11
0	8347	1580.626609376238	12
0	8348	1581.149775843422	11
0	8352	1582.452581719872	12
0	8358	1584.268149922254	11
0	8364	1585.257031737989	10
0	8370	1586.18121155893	9
0	8375	1586.452142777854	8
0	8381	1587.241403377787	9
0	8384	1587.905984297065	8
0	8390	1588.196542788725	9
0	8393	1589.901838687445	8
0	8398	1590.571158926783	7
0	8402	1590.971844972896	8
0	8406	1592.646738553666	9
0	8408	1592.994449787736	10
0	8412	1593.877990125422	11
0	8416	1594.871066557191	12
0	8417	1595.1406240707	11
0	8421	1596.052359822063	12
0	8423	1596.267163551565	13
0	8428	1596.964332091004	12
0	8433	1598.384473869973	11
0	8438	1599.025210922703	10
0	8442	1599.158327940512	11
0	8446	1600.306473752207	12
0	8447	1600.554734794538	11
0	8452	1601.110792085191	10
0	8456	1601.469665532506	11
0	8458	1602.159264250618	12
0	8463	1603.492623589233	11
0	8468	1603.756581007804	10
0	8474	1603.993952496686	11
0	8476	1605.120239100294	10
0	8481	1605.446719174837	9
0	8486	1605.641735250581	8
0	8490	1606.368047519986	9
0	8492	1607.843508570236	10
0	8495	1608.127760650697	9
0	8501	1608.767224371058	10
0	8503	1610.06912412517	11
0	8504	1610.091818113437	10
0	8508	1611.295085829252	11
0	8510	1612.290360009636	12
0	8517	1615.334777750978	13
0	8519	1615.491323104937	14
0	8521	1615.609598124942	15
0	8522	1615.679933294174	14
0	8527	1615.714276958725	13
0	8531	1615.89660965773	14
0	8533	1615.971627939573	15
0	8537	1616.572746873855	16
0	8538	1617.542517893704	15
0	8542	1617.871378883476	16
0	8546	1619.022786791625	17
0	8547	1620.991540202306	16
0	8553	1621.87750292558	17
0	8554	1622.213255342292	16
0	8559	1622.702576705812	15
0	8563	1623.839385411081	16
0	8566	1625.497623503733	15
0	8570	1626.103264005031	16
0	8573	1626.792445767335	15
0	8579	1627.610209891705	16
0	8580	1628.159390480105	15
0	8587	1630.231868663814	14
0	8592	1631.713767550604	13
0	8597	1632.053207755888	12
0	8601	1634.038051910376	13
0	8604	1635.60985939291	12
0	8609	1636.171658146295	11
0	8613	1637.031660785045	12
0	8616	1638.007943605518	11
0	8621	1639.587480990074	10
0	8629	1642.717566654192	11
0	8630	1643.031241706553	10
0	8635	1643.239333043047	9
0	8641	1643.706089574702	10
0	8642	1644.32322666829	9
0	8647	1644.851341828511	8
0	8651	1645.525018312922	9
0	8655	1645.717060564184	10
0	8657	1646.444880329626	9
0	8663	1646.874673848481	10
0	8665	1646.964376091905	11
0	8670	1647.513058162071	10
0	8679	1649.214269553383	11
0	8681	1649.976094397537	12
0	8682	1650.589987806075	11
0	8688	1650.92942947575	12
0	8689	1651.000374477691	11
0	8694	1651.255177644739	10
0	8699	1652.650098770051	9
0	8704	1655.242715175093	8
0	8711	1655.991427043486	7
0	8719	1658.203013936764	8
0	8720	1658.565825898134	7
0	8725	1660.026418826787	6
0	8731	1661.568280973169	5
0	8736	1661.759937066991	4
0	8741	1663.421191936898	3
0	8745	1663.667238861228	4
0	8748	1664.673210181084	3
0	8755	1666.245163313559	4
0	8756	1666.428668716719	3
0	8762	1666.479942945864	4
0	8765	1666.539969265961	5
0	8766	1667.454101089925	4
0	8771	1667.682065437947	3
0	8777	1668.225893137682	4
0	8778	1669.405749153539	3
0	8786	1670.116886891792	4
0	8787	1670.212292125927	3
0	8791	1671.404932011917	4
0	8795	1672.559595380671	5
0	8797	1672.733333308663	4
0	8802	1672.769354156301	3
0	8806	1673.343136681643	4
0	8812	1676.263405494471	3
0	8818	1676.924653888406	4
0	8820	1677.037724125861	5
0	8825	1678.758801818091	4
0	8829	1678.893761022316	5
0	8832	1679.61936015172	4
0	8836	1680.556516980717	5
0	8839	1682.673930984644	4
0	8845	1683.281464122146	5
0	8846	1683.859594333942	4
0	8850	1683.87439486657	5
0	8852	1684.133567037659	6
0	8855	1684.580945826142	5
0	8860	1685.216109376289	4
0	8865	1685.798788022605	3
0	8869	1686.846390759037	4
0	8871	1687.0307347975	5
0	8877	1689.125409331879	4
0	8882	1689.297126965049	3
0	8887	1689.625523055941	2
0	8892	1690.560608575245	1
0	8897	1692.064428444704	0
0	8901	1692.952243329546	1
0	8903	1694.282484594684	2
0	8914	1698.457495298688	3
0	8916	1698.904953176472	4
0	8918	1699.507450788271	3
0	8923	1700.200691059242	2
0	8928	1700.444541947268	1
0	8933	1700.774558170195	0
0	8937	1700.857729888132	1
0	8941	1701.988685978455	0
0	8957	1704.252302581228	1
0	8961	1705.816117140176	0
0	8990	1712.414977545557	1
0	8994	1714.180223103346	2
0	8996	1714.197733264321	3
0	8998	1714.432150411726	4
0	8999	1715.15296947796	3
0	9005	1715.329185412133	2
0	9013	1717.138379987322	1
0	9021	1718.054853654948	0
0	9027	1718.6220590548	1
0	9029	1718.880882404848	2
0	9030	1720.643374567626	1
0	9036	1721.58196536709	2
0	9040	1724.455770075931	3
0	9044	1725.159666363443	2
0	9050	1725.190796355802	3
0	9052	1725.287427695155	4
0	9053	1725.37683462246	3
0	9062	1729.784000482853	2
0	9068	1730.453878442484	1
0	9074	1730.624822223301	2
0	9076	1730.79918605923	3
0	9077	1730.977760175299	2
0	9082	1731.360963212453	1
0	9090	1734.559758688181	2
0	9091	1734.724285548084	1
0	9100	1736.570359983347	0
0	9120	1741.951709242546	1
0	9121	1742.108885511769	0
0	9139	1745.434221584411	1
0	9140	1745.606825248952	0
0	9146	1746.170904382308	1
0	9151	1747.643344916162	2
0	9152	1747.800847500392	1
0	9157	1748.014555710928	0
0	9163	1748.468758115059	1
0	9165	1748.591349001256	0
0	9207	1754.82382266479	1
0	9209	1755.420617331703	2
0	9211	1755.739712153662	3
0	9214	1756.007290463122	4
0	9215	1756.434807315713	3
0	9220	1756.581226208381	2
0	9225	1756.754227885322	1
0	9229	1756.879859823533	2
0	9231	1757.199221974261	3
0	9237	1757.827826266554	4
0	9239	1757.950976419642	5
0	9240	1758.166243110422	4
0	9246	1759.114899290401	5
0	9248	1759.163710583114	6
0	9251	1760.705889763434	5
0	9256	1761.207722564136	4
0	9262	1761.396116190424	5
0	9264	1761.504522865738	4
0	9271	1761.980263242426	5
0	9272	1762.827298579718	4
0	9277	1763.025957336414	3
0	9282	1763.440955539247	2
0	9288	1764.694060683751	3
0	9289	1765.006543236352	2
0	9293	1766.763204301116	3
0	9295	1767.494741912062	4
0	9298	1767.910167154711	3
0	9305	1768.20204871431	2
0	9309	1768.261208574751	3
0	9311	1768.837362908602	4
0	9314	1769.893152463293	3
0	9320	1770.762545635078	2
0	9326	1772.134657641082	3
0	9327	1772.631344848409	2
0	9335	1773.579615869157	3
0	9337	1774.015602893564	2
0	9342	1774.034628517735	1
0	9348	1775.233379924608	2
0	9351	1775.929479876456	1
0	9355	1776.546985530429	2
0	9363	1778.767137550484	3
0	9365	1779.288285392086	4
0	9367	1779.353018366005	5
0	9371	1782.721593802226	4
0	9376	1782.820023155901	3
0	9382	1783.227280101459	2
0	9387	1784.341704002772	1
0	9392	1786.42697330091	0
0	9396	1786.548912800981	1
0	9403	1787.722021195599	0
0	9415	1789.57186362141	1
0	9416	1789.686303344417	0
0	9430	1792.089501340114	1
0	9432	1792.231914245552	2
0	9435	1793.035181490298	1
0	9443	1795.721301792591	2
0	9444	1795.922747398723	1
0	9449	1796.096779184057	0
0	9463	1797.703860531816	1
0	9467	1800.756813551881	2
0	9470	1803.082033376411	1
0	9474	1803.791818559066	2
0	9479	1804.774440266831	1
0	9485	1805.543482588023	2
0	9486	1805.695233925735	1
0	9490	1806.244887033703	2
0	9492	1806.408808470556	3
0	9496	1807.476372687432	2
0	9501	1807.643115362606	1
0	9508	1808.901567956681	0
0	9533	1814.15608242548	1
0	9535	1815.798634087208	2
0	9538	1818.217147873395	1
0	9544	1820.704963979206	0
0	9564	1823.990534332202	1
0	9566	1824.271540153009	2
0	9568	1824.483068962633	3
0	9570	1824.548551049233	4
0	9574	1828.143787879683	5
0	9575	1828.443118719358	4
0	9581	1829.473359564562	5
0	9583	1830.14311296263	6
0	9587	1831.269573070361	5
0	9593	1832.160891324737	4
0	9599	1833.024976724974	3
0	9606	1833.287992112571	2
0	9612	1835.120019813769	1
0	9617	1837.09118173753	0
0	9644	1842.555953324113	1
0	9648	1844.345564523603	0
0	9655	1844.82216233847	1
0	9656	1844.941847186082	0
0	9670	1846.254986616429	1
0	9672	1846.911954520954	2
0	9674	1848.032768724522	3
0	9682	1850.139885896556	4
0	9688	1852.397347006497	3
0	9693	1852.983798633604	2
0	9699	1853.1017326285	3
0	9700	1853.817935969488	2
0	9705	1854.440963091153	1
0	9709	1855.272336696271	2
0	9712	1857.198651286635	1
0	9716	1857.345887344555	2
0	9719	1858.868541949256	1
0	9729	1861.33559904132	0
0	9741	1862.508422594204	1
0	9744	1862.770086401589	2
0	9745	1862.957023475401	1
0	9750	1863.073190529956	0
0	9756	1863.356156157786	1
0	9760	1863.966112607031	2
0	9762	1865.698458084027	1
0	9767	1866.402486006308	0
0	9788	1867.335756953841	1
0	9789	1867.349898970766	0
0	9796	1868.26706345163	1
0	9799	1869.462134090213	0
0	9821	1872.600248218871	1
0	9825	1873.35322258751	2
0	9827	1874.02604330485	3
0	9832	1875.274806301854	2
0	9838	1875.801491519381	3
0	9839	1876.082989732135	2
0	9844	1876.565911624262	1
0	9848	1876.572274348265	2
0	9852	1877.433159900112	3
0	9855	1879.076493168787	2
0	9859	1879.649821682962	3
0	9863	1881.467111994113	4
0	9865	1882.346467415545	5
0	9868	1883.674679188169	4
0	9872	1883.807134925361	5
0	9874	1885.777880309313	6
0	9877	1886.80881092946	5
0	9883	1888.654908252472	4
0	9889	1889.500259251773	3
0	9894	1891.121324296444	2
0	9901	1893.309030022576	1
0	9905	1893.491334398036	2
0	9907	1894.737633958542	3
0	9910	1896.806821350948	2
0	9914	1897.083685745359	3
0	9918	1898.668833741243	2
0	9923	1898.746087102226	1
0	9927	1898.87257263946	2
0	9929	1899.680237069245	3
0	9934	1900.966865659537	2
0	9938	1902.524649736278	3
0	9943	1903.460511292746	4
0	9944	1903.743937137154	3
0	9950	1903.79588000268	4
0	9954	1904.460550989742	3
0	9959	1904.658101085761	2
0	9965	1905.132306642822	1
0	9970	1905.299569016735	0
0	9997	1908.747610938688	1
0	9999	1909.731463926958	2
0	10003	1911.032518906133	3
0	10005	1912.078831300571	4
0	10006	1912.15572471937	3
0	10012	1912.451512227961	4
0	10013	1912.766589582229	3
0	10018	1912.780185126334	2
0	10022	1912.893565339495	3
0	10026	1913.45232501107	4
0	10028	1913.467147763367	5
0	10029	1913.82649091336	4
0	10039	1916.72133675428	5
0	10040	1917.091979574823	4
0	10051	1919.700436085155	3
0	10056	1919.794836559268	2
0	10064	1920.946279351783	3
0	10065	1921.103491317051	2
0	10071	1921.423599015916	3
0	10072	1921.828434027798	2
0	10076	1922.727328721882	3
0	10078	1923.350369646978	4
0	10083	1924.945459056724	5
0	10085	1925.143014531645	6
0	10086	1925.18446706366	5
0	10091	1925.451271396804	4
0	10095	1926.730135889507	5
0	10098	1929.402246019366	4
0	10103	1929.642776491487	3
0	10107	1929.776976612557	4
0	10110	1930.597523219278	3
0	10115	1930.869132622764	2
0	10124	1932.125526489291	3
0	10126	1933.128769838569	4
0	10127	1933.170387546371	3
0	10133	1934.058642966999	4
0	10134	1935.386404466381	3
0	10139	1936.277154899067	2
0	10143	1936.375143707084	3
0	10145	1937.924140673037	4
0	10147	1939.906390343043	5
0	10149	1939.913626241091	6
0	10151	1940.137459582954	7
0	10153	1940.453481366794	8
0	10156	1941.096443649197	7
0	10162	1943.57723272517	8
0	10164	1943.582024236372	9
0	10165	1943.58760023552	8
0	10169	1945.31093225507	9
0	10171	1946.105550393117	10
0	10175	1947.520793542591	9
0	10181	1948.273558585546	10
0	10182	1949.002688555427	9
0	10187	1949.790069238893	8
0	10194	1951.18157051875	7
0	10198	1952.45485907732	8
0	10202	1953.257495651569	9
0	10204	1953.45762881051	10
0	10205	1953.504455516231	9
0	10209	1955.067190085752	10
0	10212	1956.1172587171	9
0	10218	1957.294492020095	10
0	10222	1957.798210447878	11
0	10225	1958.298643879257	10
0	10231	1959.027163322571	9
0	10236	1959.632268093897	8
0	10241	1959.738356888041	7
0	10247	1959.921415642044	6
0	10253	1960.047739807929	7
0	10255	1960.158465848211	8
0	10257	1960.467811928523	9
0	10258	1960.49888676333	8
0	10266	1961.312196565337	9
0	10268	1962.523390872086	10
0	10269	1963.415137099307	9
0	10278	1965.165837263619	8
0	10283	1966.308944878896	7
0	10288	1968.622037895875	6
0	10292	1969.641463011144	7
0	10295	1970.054290396732	6
0	10299	1970.197763602518	7
0	10303	1971.836223548218	8
0	10306	1972.299699919807	7
0	10310	1972.781286667041	8
0	10313	1973.370547479707	7
0	10318	1974.462003775126	6
0	10324	1974.654170471854	7
0	10325	1976.602495328664	6
0	10331	1978.054791756685	7
0	10332	1978.593062671519	6
0	10342	1983.721783681469	7
0	10345	1983.987354952539	6
0	10351	1985.093926117398	5
0	10356	1986.037800678251	4
0	10361	1987.719220206251	3
0	10369	1988.216809528472	4
0	10370	1988.276867190552	3
0	10374	1989.143703360674	4
0	10376	1990.160191350059	5
0	10378	1991.352675454061	6
0	10382	1991.371965026003	7
0	10383	1992.1588122248	6
0	10387	1992.718447936436	7
0	10389	1994.071501700251	8
0	10391	1994.412673262627	9
0	10393	1994.788106495272	10
0	10396	1995.344703980154	9
0	10400	1995.420140924427	10
0	10403	1995.865768134614	9
0	10407	1996.399132113752	10
0	10413	1999.545575325959	11
0	10416	2000.025096053505	10
0	10420	2000.076753402235	11
0	10423	2002.73505979005	10
0	10432	2004.653226312444	11
0	10440	2008.146543642602	10
0	10446	2008.204954907739	11
0	10448	2008.295799509264	12
0	10451	2008.388946854393	11
0	10456	2009.646641423074	10
0	10461	2009.93961517722	9
0	10465	2010.588663313182	10
0	10468	2011.397108532322	9
0	10472	2013.893684905815	10
0	10477	2014.777564404359	9
0	10482	2016.48159197077	8
0	10487	2017.124584320719	7
0	10494	2017.977962696052	6
0	10498	2018.093299099615	7
0	10502	2019.452956397596	8
0	10504	2020.303136329567	7
0	10509	2020.713733235594	6
0	10514	2022.362444795026	5
0	10520	2022.603024944739	6
0	10523	2024.116074477972	5
0	10529	2024.169908994696	6
0	10531	2025.431067236961	7
0	10532	2026.241517357096	6
0	10537	2026.38329579989	5
0	10541	2026.680719634451	6
0	10547	2029.089658893562	5
0	10554	2030.472589754889	4
0	10562	2031.51744151506	3
0	10567	2031.764885403685	2
0	10572	2033.022376489429	1
0	10576	2034.69697339929	2
0	10578	2034.808684093138	3
0	10581	2036.32670060304	2
0	10586	2036.558333127894	1
0	10590	2037.208929558943	2
0	10594	2038.112079670607	3
0	10598	2039.528787696163	4
0	10599	2040.803385729006	3
0	10606	2041.358073280148	2
0	10612	2041.414833970996	3
0	10613	2042.170410620441	2
0	10618	2042.545434933176	1
0	10625	2043.523534528805	0
0	10640	2045.609401525207	1
0	10641	2045.705001123667	0
0	10661	2047.147914326446	1
0	10665	2047.503627768942	2
0	10666	2047.613290433132	1
0	10671	2048.713350528116	0
0	10675	2050.100838497987	1
0	10679	2050.329723506053	2
0	10680	2050.335571438627	1
0	10684	2050.468989842923	2
0	10689	2053.870405942127	1
0	10695	2054.032271878515	0
0	10708	2056.74537579141	1
0	10709	2057.262113201833	0
0	10722	2058.764933868421	1
0	10723	2059.093637468548	0
0	10739	2059.965676600421	1
0	10743	2060.997366101755	2
0	10745	2061.184935726789	1
0	10750	2061.219272664893	0
0	10778	2067.541061489154	1
0	10782	2068.654912815695	2
0	10787	2069.551326116975	1
0	10792	2070.288487548666	0
0	10803	2073.248033527382	1
0	10809	2076.438879631362	0
0	10815	2076.476255810882	1
0	10816	2077.128706901987	0
0	10843	2081.116167902049	1
0	10847	2082.415051057746	2
0	10849	2082.619237996164	3
0	10851	2082.85987025471	2
0	10857	2083.168729336778	3
0	10858	2083.416650744161	2
0	10866	2084.413823941341	3
0	10867	2084.460590657385	2
0	10872	2084.604418060718	1
0	10878	2084.910319802675	2
0	10880	2085.222714017044	3
0	10882	2085.64219897769	4
0	10886	2087.128064466858	3
0	10892	2087.501793548003	4
0	10893	2087.548741305377	3
0	10899	2087.743942908764	4
0	10901	2087.756182930329	5
0	10902	2087.799234840143	4
0	10906	2088.164894648992	5
0	10910	2088.760764791465	6
0	10911	2088.836769821336	5
0	10915	2089.230037598446	6
0	10919	2090.728861709076	7
0	10920	2091.325940374094	6
0	10925	2091.912884158808	5
0	10930	2093.473026008916	4
0	10938	2094.990669863847	5
0	10939	2095.374737310068	4
0	10945	2095.885017580755	5
0	10949	2096.031672141398	6
0	10952	2097.250644982386	7
0	10953	2097.567371838223	6
0	10958	2098.077615507972	5
0	10965	2099.243590293332	4
0	10970	2101.141467241688	3
0	10976	2105.679490540256	2
0	10983	2106.616533903897	3
0	10989	2107.037097184136	4
0	10990	2107.405262639356	3
0	10998	2108.153160011339	4
0	10999	2108.777286702626	3
0	11004	2109.3798609714	2
0	11009	2109.443247349294	1
0	11016	2110.922376275704	0
0	11020	2111.627891329374	1
0	11023	2111.750227232156	0
0	11027	2111.898247337196	1
0	11031	2112.50858483345	2
0	11032	2113.229955193544	1
0	11036	2113.373161249467	2
0	11039	2113.749728508953	1
0	11044	2114.291219130635	0
0	11072	2119.654542250191	1
0	11074	2120.527973931649	2
0	11075	2120.872610131403	1
0	11083	2123.114578778928	0
0	11103	2126.970612408641	1
0	11104	2127.016140784602	0
0	11111	2128.106963536584	1
0	11113	2128.225103855912	0
0	11126	2128.882701235933	1
0	11127	2130.429619241842	0
0	11145	2131.634021530132	1
0	11148	2132.582845561945	0
0	11162	2133.9626196071	1
0	11164	2134.133389833007	2
0	11170	2136.357980571544	3
0	11173	2137.656794200518	2
0	11179	2138.028805703289	3
0	11188	2142.947976823304	2
0	11194	2143.242545434085	3
0	11196	2143.498228009464	2
0	11206	2144.61929335675	1
0	11211	2144.999815522799	0
0	11217	2145.246268868291	1
0	11219	2145.696582283174	2
0	11220	2147.971299382084	1
0	11225	2148.462344968284	0
0	11246	2151.237502001836	1
0	11249	2152.05939715908	0
0	11255	2152.509315283986	1
0	11257	2152.693784924205	2
0	11258	2152.738036899361	1
0	11262	2153.280537542357	2
0	11264	2153.436150105076	3
0	11266	2153.448505980438	4
0	11270	2154.182952439048	5
0	11271	2154.20468720895	4
0	11276	2154.444886231543	3
0	11284	2155.441522575492	2
0	11288	2155.783910091396	3
0	11295	2157.303020581761	4
0	11296	2157.613587630143	3
0	11301	2157.99162278652	2
0	11307	2159.326838156652	1
0	11314	2161.522585500328	0
0	11331	2162.768648312541	1
0	11332	2163.520499044289	0
0	11350	2166.328665339858	1
0	11356	2166.89762561281	2
0	11358	2167.757068228662	1
0	11364	2167.927793716204	2
0	11365	2168.015418224802	1
0	11375	2169.027354012117	2
0	11376	2169.622225088736	1
0	11380	2171.32853282247	2
0	11383	2173.498461303273	1
0	11393	2175.143772048562	2
0	11397	2175.358585724719	3
0	11400	2175.479787771588	2
0	11405	2177.88339334889	1
0	11409	2178.059123071265	2
0	11412	2178.981356229296	1
0	11416	2179.047542320499	2
0	11418	2179.10586167746	3
0	11420	2179.141921004095	4
0	11424	2180.770113247694	5
0	11428	2183.501067001366	4
0	11434	2186.382806746282	5
0	11435	2186.577308904541	4
0	11441	2187.630238010126	5
0	11445	2187.870106293385	4
0	11453	2188.511022429116	5
0	11454	2188.561891002373	4
0	11461	2188.958884040984	5
0	11462	2189.315407682077	4
0	11467	2189.527498614904	3
0	11472	2189.790663811107	2
0	11478	2190.776847852006	3
0	11481	2191.029042427919	4
0	11482	2191.568525014227	3
0	11489	2192.13932948314	4
0	11490	2192.242723072552	3
0	11495	2193.318644722502	2
0	11500	2194.685036823529	1
0	11505	2198.20852168909	0
0	11527	2200.177351540663	1
0	11531	2200.27410410978	2
0	11532	2200.297043604143	1
0	11538	2202.152328063499	0
0	11555	2204.552122414236	1
0	11557	2205.323722013858	2
0	11559	2206.085269119708	1
0	11564	2206.104463106056	0
0	11577	2208.376031294833	1
0	11579	2208.42601331303	2
0	11581	2209.301285006983	1
0	11588	2210.292338124009	0
0	11608	2211.843804279192	1
0	11610	2212.639868595848	2
0	11611	2212.848872566998	1
0	11617	2213.92753224527	2
0	11619	2214.185590493676	3
0	11621	2215.338157107655	4
0	11626	2217.133370238343	3
0	11633	2218.664062032106	2
0	11642	2218.857186783319	3
0	11643	2218.997608535783	2
0	11649	2220.964135148002	3
0	11654	2221.860476397768	2
0	11662	2224.386827337667	1
0	11668	2224.730358977124	2
0	11670	2225.368361372902	1
0	11676	2225.647588605728	0
0	11682	2226.229701377619	1
0	11683	2226.684121422691	0
0	11689	2226.884166274882	1
0	11690	2227.816600160028	0
0	11714	2232.630807902031	1
0	11717	2233.409487575209	2
0	11718	2233.599333425828	1
0	11723	2234.234830873617	0
0	11730	2236.072318031848	1
0	11732	2236.630980229756	2
0	11734	2237.125646297757	3
0	11736	2237.747412435569	2
0	11741	2237.839264383383	1
0	11745	2237.844744473622	2
0	11747	2238.743801573509	3
0	11749	2241.1672233177	4
0	11752	2241.80059348148	3
0	11760	2243.999480036877	2
0	11765	2245.110508104446	1
0	11771	2247.07252066868	2
0	11772	2247.182257784917	1
0	11779	2247.805145509347	0
0	11787	2248.554467951175	1
0	11791	2250.218747286826	2
0	11792	2250.546173357317	1
0	11796	2251.403650046241	2
0	11800	2252.464979714693	1
0	11806	2252.972378813214	2
0	11807	2254.944708367857	1
0	11813	2256.418882631368	0
0	11822	2257.242144735645	1
0	11825	2258.016942437721	0
0	11839	2258.917185544735	1
0	11841	2259.322093354345	2
0	11843	2259.467162791773	3
0	11845	2260.383543078988	4
0	11847	2260.811031200497	5
0	11848	2261.483273972914	4
0	11852	2261.709803483734	5
0	11855	2262.394620373774	4
0	11862	2265.951399648021	3
0	11867	2266.224119214275	2
0	11873	2266.900782254614	1
0	11879	2267.024771839708	2
0	11880	2267.334594566407	1
0	11884	2267.652330282252	2
0	11886	2267.821391469013	3
0	11890	2269.12144984565	4
0	11893	2269.63835763168	3
0	11900	2272.062079818131	2
0	11905	2273.277087284643	1
0	11909	2273.799851761205	2
0	11915	2276.673610439897	3
0	11920	2278.381782738262	2
0	11926	2279.825308980717	1
0	11932	2279.883442300535	2
0	11936	2280.767291223101	3
0	11937	2280.840965789334	2
0	11941	2281.221890213573	3
0	11943	2281.452536560599	4
0	11948	2282.944966916769	3
0	11953	2283.751755588512	2
0	11959	2284.260812063235	3
0	11960	2284.928256061672	2
0	11967	2285.654135369037	1
0	11973	2286.975206570266	0
0	11990	2289.123699487387	1
0	11992	2291.046627144444	2
0	11993	2291.393554940783	1
0	12001	2292.870205040276	0
0	12009	2294.450775045554	1
0	12014	2296.24322140374	0
0	12020	2296.873476426696	1
0	12023	2298.063211397871	0
0	12043	2301.969546394733	1
0	12045	2302.126612597399	2
0	12047	2302.745740032865	1
0	12052	2302.788699036939	0
0	12070	2304.209590910188	1
0	12071	2304.384419001944	0
0	12081	2304.763205407317	1
0	12083	2305.157644042728	2
0	12086	2305.641096275269	1
0	12096	2306.020734462375	2
0	12100	2307.030468491083	1
0	12105	2307.049227150889	0
0	12114	2308.070879584388	1
0	12116	2308.838502945226	2
0	12120	2310.356458277047	3
0	12121	2310.982238085025	2
0	12127	2314.293321132721	3
0	12130	2315.022993820457	2
0	12135	2315.297015829496	1
0	12141	2315.877412276043	2
0	12144	2316.295804290173	3
0	12145	2316.310772072408	2
0	12151	2318.855552657405	3
0	12153	2319.013193101203	4
0	12157	2319.639683795739	3
0	12167	2322.025401006926	4
0	12168	2322.189894434081	3
0	12173	2322.702778327709	2
0	12180	2322.879237588503	1
0	12190	2326.150652557708	0
0	12194	2327.335487187444	1
0	12199	2329.333607746935	0
0	12222	2333.25652074242	1
0	12223	2333.402908897717	0
0	12235	2335.977138085008	1
0	12240	2337.145416281563	0
0	12258	2338.566584650653	1
0	12259	2339.468039634825	0
0	12290	2346.070034309679	1
0	12292	2347.902308542533	2
0	12293	2348.469937448748	1
0	12300	2349.091989956632	0
0	12322	2355.080282277867	1
0	12324	2355.185890055101	2
0	12327	2355.56178182701	1
0	12332	2356.229099491389	0
0	12348	2357.995962292903	1
0	12353	2360.389624924239	0
0	12380	2364.879149553479	1
0	12382	2365.015336496004	2
0	12384	2365.370045834016	3
0	12387	2366.290379324288	2
0	12392	2366.578058121558	1
0	12399	2368.525566584939	0
0	12408	2369.637035972804	1
0	12412	2370.300944739326	2
0	12414	2370.779507225478	3
0	12417	2371.679441892488	2
0	12423	2372.220512890246	3
0	12426	2372.707765159587	2
0	12430	2373.158772243606	3
0	12432	2373.680293516627	4
0	12436	2374.322232237544	3
0	12442	2374.538337857994	4
0	12448	2375.794765297362	3
0	12453	2375.914617550351	2
0	12458	2376.002666519116	1
0	12464	2376.377509876987	2
0	12468	2377.106043411804	1
0	12472	2377.589254224202	2
0	12474	2378.766348973735	3
0	12479	2379.318219780275	2
0	12485	2379.679928359646	1
0	12491	2380.026047077451	2
0	12492	2380.28719854842	1
0	12496	2380.302641394829	2
0	12499	2383.039738575405	1
0	12503	2383.599272601158	2
0	12506	2384.53014895141	1
0	12510	2385.113439159635	2
0	12512	2386.470559150258	3
0	12516	2388.238229760028	4
0	12517	2388.375911882143	3
0	12521	2388.743297467094	4
0	12524	2389.224735347318	3
0	12530	2389.767315798827	4
0	12534	2390.644581350705	5
0	12537	2391.128129379111	6
0	12539	2391.169497009206	7
0	12541	2391.26439588694	8
0	12542	2391.944078442943	7
0	12549	2392.808675630858	6
0	12553	2395.955952631683	7
0	12556	2396.664663002099	6
0	12563	2398.172664581441	5
0	12567	2398.65747057007	6
0	12569	2399.972365198693	7
0	12571	2400.607862494072	8
0	12573	2400.755244336224	9
0	12577	2401.090865375368	10
0	12582	2403.742360093293	9
0	12586	2403.907136746009	10
0	12589	2404.129146680786	9
0	12598	2405.32700480026	10
0	12599	2405.621674870848	9
0	12604	2405.984864105221	8
0	12609	2407.303797717929	7
0	12613	2407.661109077573	8
0	12615	2408.270454686351	9
0	12618	2409.532613900616	8
0	12627	2410.515046051483	9
0	12630	2412.001282705543	10
0	12631	2412.051281697876	9
0	12636	2412.267929156985	8
0	12643	2412.767178916428	7
0	12653	2417.274604639988	8
0	12654	2417.757885984097	7
0	12659	2417.82758837138	6
0	12666	2418.708042255191	5
0	12673	2419.889851990582	6
0	12675	2420.079378441817	7
0	12677	2420.429153693336	8
0	12678	2421.055818540119	7
0	12683	2422.646172225315	6
0	12688	2422.732767484221	5
0	12692	2422.802340975583	6
0	12698	2424.010219908915	7
0	12700	2424.839604391717	6
0	12709	2425.759247934137	7
0	12711	2426.054133119075	8
0	12712	2426.234872388094	7
0	12717	2426.238918814446	6
0	12721	2428.790561697589	7
0	12723	2430.133360439318	8
0	12725	2431.379131371163	9
0	12727	2431.840347972535	10
0	12729	2434.79619759342	11
0	12731	2435.000012864096	12
0	12735	2435.375941610054	11
0	12740	2435.419543937229	10
0	12748	2436.039758964815	11
0	12749	2436.288570580434	10
0	12755	2438.285049253951	9
0	12761	2438.587230811333	10
0	12762	2440.100304264248	9
0	12767	2441.00573311449	8
0	12778	2443.76161913171	9
0	12781	2444.087064189288	8
0	12787	2444.244835278442	7
0	12793	2445.235765020875	6
0	12800	2445.813908983273	7
0	12801	2445.902856475046	6
0	12808	2446.212818466339	5
0	12816	2446.949296508653	6
0	12817	2447.621159274652	5
0	12823	2448.490037165135	6
0	12824	2448.539107744953	5
0	12828	2448.618159988387	6
0	12830	2448.672703309965	7
0	12832	2448.933116578198	8
0	12836	2449.662655658865	7
0	12841	2450.018232187566	6
0	12846	2450.794594438208	5
0	12851	2451.490419822296	4
0	12859	2454.226793913882	3
0	12865	2454.378122485039	4
0	12867	2454.713882329008	5
0	12869	2456.064460530484	6
0	12870	2456.508513127643	5
0	12875	2457.603798672302	4
0	12881	2458.734733969165	5
0	12885	2459.035091124379	6
0	12888	2460.638325218468	5
0	12895	2462.835056382497	4
0	12900	2465.112716446145	3
0	12904	2465.301283063517	4
0	12906	2465.930160385973	5
0	12909	2466.234273087674	4
0	12913	2466.633021950828	5
0	12915	2467.250167790243	6
0	12918	2468.123527119458	5
0	12923	2469.059654555559	4
0	12927	2469.29090593006	5
0	12929	2470.413381842112	6
0	12931	2470.528130317217	7
0	12934	2472.178380828967	6
0	12939	2473.338745829115	5
0	12945	2473.588052914557	6
0	12946	2473.631871319104	5
0	12952	2473.948465498963	6
0	12956	2475.811678691425	7
0	12959	2476.332212228368	6
0	12964	2476.570099519384	5
0	12969	2477.97141888386	4
0	12977	2479.188411100272	5
0	12979	2479.255633855714	6
0	12980	2480.565494541554	5
0	12984	2481.310318229149	6
0	12987	2481.802730096434	5
0	12992	2482.799945903538	4
0	12996	2483.91562850387	5
0	12999	2484.642961829589	4
0	13008	2485.314745411156	3
0	13014	2485.589025741021	4
0	13015	2485.705087807965	3
0	13020	2486.427106170814	2
0	13028	2487.263468769633	3
0	13029	2487.285437534675	2
0	13033	2487.287045111798	3
0	13036	2488.158064510721	2
0	13040	2488.29472721087	3
0	13042	2488.41318994733	4
0	13047	2489.549046450251	5
0	13049	2489.777250210482	4
0	13054	2490.894257493202	3
0	13059	2491.014126857662	2
0	13064	2492.923669950162	1
0	13069	2494.215140207626	0
0	13093	2498.303057458526	1
0	13094	2498.401638136883	0
0	13107	2499.208276895913	1
0	13109	2500.577723479528	0
0	13115	2500.617734021449	1
0	13116	2500.860836401419	0
0	13122	2501.326450263083	1
0	13124	2501.431624785336	2
0	13127	2501.739897502525	3
0	13129	2502.791212904551	2
0	13134	2502.828813217731	1
0	13138	2503.478324694879	2
0	13140	2503.535186378255	3
0	13142	2504.468799313158	4
0	13147	2509.474252642449	3
0	13152	2510.355533143842	2
0	13161	2511.75822591996	1
0	13167	2513.103972405642	0
0	13174	2514.486758042778	1
0	13176	2515.527532413243	2
0	13177	2515.660615409362	1
0	13183	2516.88635723471	2
0	13184	2516.980892505916	1
0	13190	2517.659635191986	0
0	13223	2524.501521896452	1
0	13227	2526.111760372983	2
0	13228	2526.278959577116	1
0	13232	2526.498313487034	2
0	13234	2527.064277677642	3
0	13238	2528.339483799005	4
0	13239	2528.514652442776	3
0	13246	2530.920438036916	2
0	13253	2532.457371931846	3
0	13254	2532.960635598415	2
0	13261	2533.630325729578	1
0	13268	2533.994132060016	0
0	13284	2534.943694802689	1
0	13285	2535.212677153517	0
0	13295	2536.061316390504	1
0	13297	2536.660907560629	2
0	13299	2537.693005398462	3
0	13301	2537.899811656853	4
0	13305	2538.419251107406	5
0	13311	2539.154363122184	6
0	13312	2540.944347406277	5
0	13317	2542.555512950134	4
0	13324	2544.024889502802	3
0	13330	2545.150259317517	4
0	13331	2545.510958565471	3
0	13336	2546.253992313709	2
0	13341	2546.758966753903	1
0	13347	2547.489998361646	2
0	13348	2547.509572923822	1
0	13352	2548.03640236918	2
0	13356	2549.375748809034	3
0	13358	2549.433856544823	4
0	13363	2550.765933104089	3
0	13370	2552.393106126579	2
0	13376	2553.35866257868	1
0	13381	2555.636951874114	0
0	13401	2558.970554896343	1
0	13404	2559.348743621708	2
0	13405	2559.405732031577	1
0	13411	2561.278539717144	0
0	13430	2562.57510702747	1
0	13431	2562.722693525847	0
0	13443	2564.021194215269	1
0	13444	2565.533686554089	0
0	13455	2567.892361632488	1
0	13462	2570.920281411903	2
0	13464	2571.855412878203	3
0	13467	2573.426250311066	2
0	13472	2573.455027066176	1
0	13478	2574.305663683151	2
0	13480	2575.380931644855	3
0	13481	2575.734980209991	2
0	13485	2575.845873661077	3
0	13488	2576.012178611389	2
0	13495	2576.4949842858	1
0	13501	2577.272355568759	0
0	13530	2581.956688782298	1
0	13531	2582.078989119569	0
0	13549	2583.590558440557	1
0	13554	2584.790642209014	0
0	13572	2588.769106317143	1
0	13576	2591.40340298701	2
0	13579	2592.723153067567	1
0	13592	2596.219997714842	0
0	13613	2601.343917847889	1
0	13617	2602.294866263245	0
0	13643	2608.911352834163	1
0	13645	2610.465702263073	2
0	13647	2613.617647041081	3
0	13656	2615.846380861646	2
0	13660	2616.071044369331	3
0	13666	2617.091159656115	2
0	13674	2618.335739414896	1
0	13681	2619.279043709852	0
0	13702	2622.460415388227	1
0	13704	2623.746053379367	2
0	13711	2625.924414955612	1
0	13716	2626.160623394283	0
0	13743	2630.330451234588	1
0	13746	2631.988375253397	0
0	13757	2632.94618967466	1
0	13761	2633.23225981822	0
0	13767	2633.561544630546	1
0	13768	2633.600637927496	0
0	13779	2636.240203150289	1
0	13781	2636.439510230859	2
0	13783	2636.75500436587	3
0	13786	2638.071652740673	2
0	13791	2638.327642204286	1
0	13796	2640.655626009373	0
0	13800	2641.183506820915	1
0	13802	2641.450209914368	2
0	13804	2641.569347515737	3
0	13806	2641.904253672855	4
0	13808	2643.984402514959	5
0	13812	2645.247488060132	4
0	13816	2647.047715599542	5
0	13818	2647.243798190588	6
0	13824	2649.550157630453	7
0	13828	2651.75072776354	6
0	13833	2652.103244903198	5
0	13837	2652.455154190333	6
0	13840	2652.931837189142	5
0	13846	2654.064520360866	6
0	13848	2654.176614650173	7
0	13850	2654.434203908685	8
0	13851	2654.604025862905	7
0	13859	2655.858025238685	6
0	13864	2656.264745225866	5
0	13869	2657.601572336742	4
0	13876	2658.938808978069	3
0	13883	2661.187822869229	4
0	13884	2661.283113682106	3
0	13889	2661.352655404094	2
0	13895	2662.433188478245	3
0	13901	2663.708158970156	2
0	13909	2664.615965228973	3
0	13911	2665.00360537693	2
0	13917	2665.079504873204	3
0	13919	2665.330979117107	4
0	13920	2665.343004649551	3
0	13926	2665.901939468714	2
0	13932	2666.479997990176	1
0	13939	2666.909514160133	0
0	13945	2667.30334568509	1
0	13947	2667.32241133029	2
0	13950	2668.105200535678	1
0	13955	2669.07447346621	0
0	13961	2671.168954057332	1
0	13964	2672.526128819709	0
0	13999	2678.187101326477	1
0	14001	2678.273530855954	2
0	14003	2679.579051979754	3
0	14005	2680.535021911228	4
0	14008	2681.493458924078	3
0	14014	2681.776520783212	4
0	14015	2682.384519200486	3
0	14020	2682.590896858549	2
0	14024	2682.655108414696	3
0	14029	2683.810678566099	2
0	14034	2684.294369939528	1
0	14038	2684.661870355411	2
0	14041	2686.825282158099	1
0	14045	2687.155514918478	2
0	14050	2687.728316134437	3
0	14051	2687.835242509703	2
0	14055	2687.990071214797	3
0	14057	2688.015693138113	4
0	14061	2690.257328503245	3
0	14066	2691.991800019262	2
0	14070	2692.369449712907	3
0	14072	2694.441643012421	4
0	14074	2694.445249961673	5
0	14076	2694.636488687464	6
0	14079	2698.020985754794	5
0	14087	2699.83380220655	4
0	14094	2700.054488597723	5
0	14098	2700.505028549665	6
0	14100	2700.716280064294	5
0	14105	2700.769307756499	4
0	14110	2700.798895690413	3
0	14114	2701.018340435789	4
0	14117	2701.39304085247	3
0	14121	2702.230190569581	4
0	14125	2702.722431202517	3
0	14130	2703.183083138932	2
0	14135	2704.463599818705	1
0	14142	2705.86154727381	0
0	14146	2708.973466410502	1
0	14150	2709.91079289532	2
0	14152	2710.111432286193	1
0	14159	2711.188763642355	0
0	14186	2718.987875255964	1
0	14187	2720.222526567673	0
0	14202	2722.426881374166	1
0	14203	2722.79793524365	0
0	14211	2725.070741422861	1
0	14213	2725.926538519493	2
0	14215	2726.503354078491	3
0	14217	2726.637529790654	4
0	14218	2726.996692435796	3
0	14224	2727.794017616088	4
0	14226	2728.068832759085	5
0	14229	2728.807087812025	4
0	14236	2729.209151171485	5
0	14237	2729.216914608168	4
0	14243	2729.515907638227	3
0	14248	2729.583447295383	2
0	14253	2731.318149872358	1
0	14257	2732.355276350694	2
0	14263	2733.324272727891	1
0	14268	2734.216109610046	0
0	14272	2734.602878183435	1
0	14274	2735.26282118256	2
0	14277	2736.197086393839	1
0	14282	2736.643489892002	0
0	14288	2737.518630717735	1
0	14293	2739.599409375104	0
0	14297	2741.755176902868	1
0	14303	2744.0657809889	2
0	14305	2744.208950509959	3
0	14306	2744.285368788729	2
0	14311	2744.644692178256	1
0	14320	2745.374643307082	0
0	14344	2748.514572396988	1
0	14346	2748.770246724205	2
0	14349	2750.033984561282	1
0	14355	2750.625478777598	0
0	14366	2751.732578806678	1
0	14367	2753.503924240382	0
0	14382	2755.588136418418	1
0	14384	2755.739861416376	2
0	14386	2756.019106827986	3
0	14387	2756.238625467335	2
0	14392	2756.259363899334	1
0	14398	2756.30172185161	2
0	14399	2756.314210365481	1
0	14403	2756.887653118847	2
0	14406	2757.378740160413	1
0	14413	2758.263797822115	2
0	14416	2759.521974363727	1
0	14421	2760.318753465624	0
0	14432	2761.257461850213	1
0	14434	2761.321629460019	2
0	14437	2763.994837367098	1
0	14442	2764.44190343163	0
0	14461	2768.086774356028	1
0	14463	2768.096923597495	2
0	14465	2768.193620755763	3
0	14467	2769.108349983449	2
0	14475	2770.628159998948	3
0	14476	2771.116273427788	2
0	14481	2772.150166524763	1
0	14486	2773.18431569697	0
0	14492	2781.201844778854	1
0	14498	2782.274417612388	2
0	14501	2783.033443238515	1
0	14506	2783.375088323926	0
0	14513	2783.937605857563	1
0	14517	2784.414383869033	2
0	14518	2784.455148750948	1
0	14523	2784.483504397553	0
0	14527	2784.66442688167	1
0	14530	2785.05364516341	0
0	14558	2788.129221321675	1
0	14563	2791.306853045632	0
0	14576	2793.356708963438	1
0	14577	2793.823170908386	0
0	14599	2795.549649717344	1
0	14604	2796.135750576083	0
0	14619	2797.977907672988	1
0	14621	2798.63882068428	2
0	14623	2798.867757661899	3
0	14625	2798.976561150051	4
0	14629	2799.082096838336	5
0	14634	2799.827097120209	6
0	14636	2799.860360452369	7
0	14637	2800.635107076712	6
0	14645	2801.257029913881	7
0	14646	2801.762943023423	6
0	14651	2802.36885797981	5
0	14655	2802.478189448536	6
0	14657	2802.487444139156	7
[...]
5	150162	29006.195168995667	22.997896923412
5	150169	29007.348261090409	23.511368648234
5	150174	29007.619529401731	20.249146017963
5	150179	29007.867359809844	20.027693827834
5	150184	29009.663792518885	19.719852008715
5	150190	29011.358442720322	20.737032227267
5	150195	29011.378531779863	20.402884724863
5	150202	29012.990171671085	21.712377480439
5	150207	29013.062574229187	21.588337196753
5	150214	29014.667953779043	20.261758849114
5	150219	29016.525655521388	21.000284138182
5	150234	29019.220376980263	23.438260490564
5	150239	29019.582486833724	23.597772146115
5	150244	29019.74146524866	22.651889116507
5	150256	29021.712873377096	21.940341781675
5	150261	29021.796010818733	20.138632198284
5	150270	29023.708020648764	17.175371457334
5	150281	29026.145549868111	13.638789649174
5	150286	29026.661551987638	12.839551207471
5	150292	29028.970063371092	11.04088116898
5	150297	29030.103778660849	9.609789099898
5	150304	29030.676947549797	7.64988648211
5	150311	29032.545580590596	7.872686762793
5	150321	29038.10554380086	7.239825359558
5	150339	29039.123771495097	0.851166763599
5	150353	29040.462518877888	1.151208311035
5	150358	29041.012091457274	1.217593564549
5	150372	29042.834184565521	1.160245535862
5	150378	29045.365311384215	3.214594582448
5	150400	29049.322195651304	3.373730068277
5	150413	29053.36455148097	6.609136405407
5	150420	29053.576745154989	3.902609783978
5	150427	29054.359700956255	2.535951938525
5	150436	29056.498927257585	2.975594554921
5	150443	29057.492586050801	2.09089932906
5	150449	29058.397266950549	2.600063977546
5	150456	29059.436764317344	2.066755094413
5	150533	29075.815341760002	3.740887481425
5	150541	29077.556023927648	4.477826420399
5	150548	29078.050987166998	4.870530299584
5	150557	29079.986713544886	5.761483840497
5	150565	29081.151380862794	3.416531898415
5	150570	29081.386966131432	1.967006855717
5	150591	29084.163080694182	1.861345607252
5	150596	29084.168751744626	1.556322269322
5	150601	29084.320456440736	1.065689367875
5	150609	29087.923767015184	4.300784690295
5	150641	29095.765385884346	2.003211908164
5	150705	29107.555191745065	1.58499582053
5	150715	29109.450719462481	2.789289440506
5	150728	29111.780066865528	3.703083041967
5	150737	29112.952681663937	3.809586789942
5	150744	29113.852295127528	3.87182033886
5	150753	29117.454228898586	6.219439692484
5	150761	29118.732480498639	6.64141267159
5	150766	29119.402115857387	6.930216491976
5	150771	29120.49281730974	5.07226707039
5	150778	29124.581552737215	6.325331486111
5	150787	29129.08098380207	8.020234038581
5	150794	29130.9521769975	3.219992075648
5	150824	29133.889520917931	1.638809495905
5	150849	29138.29130982028	2.551535244649
5	150858	29139.453078255578	2.777828558686
5	150868	29143.455550505699	5.58431385521
5	150873	29143.617646346277	4.619179653857
5	150878	29145.036564621798	5.958585666366
5	150928	29152.491069077086	0.369545835516
5	150954	29159.169940501883	6.05751753906
5	150959	29159.791926486842	5.917258385286
5	150964	29160.732287915193	6.417312986747
5	150969	29161.273433733897	6.326212279241
5	150975	29162.560759590001	4.57467340766
5	150980	29163.089314349829	4.427448235211
5	151016	29171.059473384929	2.562430850043
5	151040	29178.641163257202	3.443722404993
5	151045	29178.875322999312	1.768989804564
5	151056	29180.410876136933	2.948231372691
5	151061	29180.982810332082	1.439788928605
5	151067	29182.119376761093	2.495393680654
5	151096	29185.749369322069	0.849513163791
5	151101	29185.786941693923	0.589201855155
5	151122	29193.817650160592	5.916262302294
5	151127	29193.837156904401	3.360862989309
5	151132	29195.023199135831	2.21630858026
5	151150	29201.632590872057	5.235347150946
5	151155	29202.644158078867	3.726145571669
5	151162	29203.778066686271	2.89633880062
5	151175	29206.911602167183	4.038563331101
5	151180	29207.821237023801	3.107607879129
5	151187	29209.061202630693	3.443398071752
5	151192	29209.468515649584	2.812170950801
5	151221	29213.53640395191	1.240731816146
5	151240	29218.091677371719	3.19313086138
5	151280	29226.654874626762	3.80041586205
5	151285	29226.753295290062	1.967637866422
5	151326	29233.891775489025	1.801790340228
5	151332	29233.936067489135	1.514317700175
5	151337	29234.067159233726	1.407921781222
5	151386	29245.313289834944	1.79926345883
5	151393	29246.741846284571	1.439876538331
5	151402	29248.015477112035	2.085482363976
5	151409	29251.271772383822	3.761529723641
5	151426	29253.438610990908	1.319045812188
5	151431	29254.529449828628	1.755074839622
5	151438	29255.804044550389	2.62370215693
5	151443	29256.865828785997	1.715904401507
5	151469	29262.805676372876	3.988386727932
5	151477	29263.430260333828	3.203693287634
5	151483	29263.576760225555	2.893130204657
5	151488	29264.840654613729	3.675777209172
5	151497	29267.715084890922	4.75973597168
5	151503	29268.675983282951	3.278668420051
5	151508	29268.697190635374	1.58836009553
5	151547	29273.731375851664	0.711240607845
5	151552	29273.886831395665	0.434827713013
5	151558	29276.205545944334	2.502932816096
5	151588	29282.380308705612	0.834716012657
5	151625	29290.550107759184	7.236468128049
5	151645	29293.019991577028	8.099101390901
5	151650	29293.422044982972	7.596544777046
5	151655	29293.613214003317	7.493766174749
5	151664	29298.115949121676	11.881028620679
5	151673	29301.064735955331	13.314581102157
5	151680	29301.989983361755	11.897747890327
5	151693	29308.278856708248	17.562585973853
5	151698	29308.726466954477	16.919761416981
5	151707	29310.968158135441	17.950802596567
5	151712	29312.174138279406	17.30612139552
5	151719	29313.378815217293	14.921093525174
5	151728	29316.647348810808	17.961247337028
5	151738	29318.679633984143	16.661433938353
5	151746	29320.782422430762	16.572920399195
5	151751	29321.360585512428	14.938937395568
5	151760	29323.246950196239	13.022698180649
5	151765	29323.665397066204	8.710033294497
5	151773	29325.008604398004	8.478809662616
5	151780	29326.288523293972	6.459836769019
5	151785	29327.245507511686	4.83737677674
5	151792	29328.55657525793	4.658525079229
5	151797	29328.912732178465	3.568162135744
5	151806	29330.196334299284	2.718323802014
5	151811	29331.294446346922	2.316341876822
5	151819	29332.653187254854	3.084248082775
5	151846	29336.951865894407	2.831671696756
5	151851	29337.077015419177	1.538648713223
5	151856	29337.162938095346	1.382513679467
5	151869	29337.462583075085	0.122283228402
5	151892	29341.50569546299	2.694442388469
5	151897	29342.226116180408	1.546228808747
5	151914	29346.816177365886	2.436967860413
5	151920	29347.240136258727	1.866662853816
5	151960	29353.396055737414	3.369731098741
5	151965	29353.726942429414	3.552679452921
5	151970	29353.998389256876	2.566285924488
5	151975	29354.765610170523	2.722563474509
5	151980	29357.677482876505	5.367561279948
5	151993	29359.968793992642	6.724841995181
5	152003	29361.070862411933	2.806175841608
5	152010	29364.201532375804	5.609250033354
5	152016	29365.1957955326	5.668776680333
5	152026	29365.977610751185	5.873111819477
5	152036	29368.335534297869	7.976529502818
5	152043	29370.180205736046	6.507768101983
5	152052	29370.491894000367	3.238319822527
5	152057	29371.053552489086	0.869184025236
5	152063	29372.447026502925	2.096205145528
5	152100	29379.724030366941	5.631526066104
5	152115	29382.926541990601	8.015249941784
5	152121	29383.485797010833	6.780762721454
5	152133	29385.09819888744	5.20493234174
5	152142	29386.607015129462	6.395432536449
5	152147	29387.233936383138	2.901504432125
5	152156	29388.458866481732	3.743772560998
5	152165	29391.717698181763	6.108419630741
5	152177	29394.543865084415	8.576321463972
5	152186	29395.79423549533	8.285958322408
5	152195	29398.64816116171	6.710137555023
5	152200	29398.889280460939	3.834235575487
5	152205	29399.091507438834	4.018041475914
5	152220	29400.03546544388	0.22370746717
5	152245	29404.835944940968	2.038289288241
5	152250	29405.093647100978	0.431044489901
5	152269	29409.247208299154	4.11723285788
5	152277	29413.719076064249	8.148324023464
5	152331	29426.025791260667	7.208189662961
5	152338	29427.713181664003	8.214068004075
5	152344	29429.475240512012	7.831407688324
5	152349	29429.748495066171	5.010292482826
5	152355	29430.726306831448	5.908264823139
5	152360	29432.219776981986	6.71535079567
5	152386	29436.861882228645	3.571179879319
5	152391	29437.191370960138	3.718208898014
5	152403	29437.879834343573	2.491234378044
5	152409	29439.071025186606	1.192546541232
5	152432	29443.102610699308	1.142548927099
5	152437	29444.337805650713	2.124445146024
5	152463	29451.224347196877	5.85881486462
5	152472	29452.313843519674	1.49726088552
5	152481	29454.142802502624	2.405421353357
5	152487	29455.515204706549	3.201319918891
5	152494	29456.604264505354	2.992217114261
5	152541	29462.395068644988	1.538044993525
5	152551	29464.724470378786	2.58161429532
5	152556	29464.82773662586	1.118283047282
5	152561	29464.933896916999	0.74041396799
5	152583	29471.669540403275	5.56873375639
5	152588	29472.044601823182	2.415747775214
5	152601	29473.612538986186	0.827144598323
5	152633	29480.247003084257	3.06617096442
5	152664	29486.588841988722	4.418525688283
5	152689	29490.629021380872	2.102183079836
5	152695	29492.217763381535	3.496823853972
5	152708	29494.513095985927	2.10209138962
5	152733	29499.925132015189	2.784459886466
5	152745	29501.148012896035	3.737107945641
5	152750	29503.047126568737	2.558699464408
5	152764	29506.708309870468	5.710063731099
5	152772	29507.103254664595	3.589297652583
5	152779	29507.573064175094	1.923347941394
5	152786	29509.809053716128	3.73346289096
5	152791	29510.125705490181	3.409505376751
5	152798	29512.224773450576	4.669491141002
5	152827	29516.126518038991	2.537715405763
5	152834	29518.890732984263	4.655892843869
5	152839	29519.379690632685	3.973981507998
5	152864	29524.824090899193	4.058841827545
5	152871	29525.02744180406	2.726859460272
5	152876	29525.13752184919	2.437082648806
5	152888	29530.666348354603	3.871936584265
5	152908	29532.424600654318	1.399870206266
5	152919	29535.91804100955	3.865419158676
5	152935	29537.821249575004	5.655599489373
5	152940	29538.142858877803	4.684975191313
5	152950	29539.768572766485	3.26405865127
5	152959	29545.530166245883	8.272355215727
5	152964	29546.827042698414	9.078000367996
5	152969	29547.837047497908	9.624050049042
5	152979	29550.109454692829	10.342185553252
5	152985	29550.878309899969	7.761187390528
5	152990	29551.773126000938	6.657579091619
5	153016	29555.640559020789	1.375281699459
5	153038	29559.042983670273	2.528064778093
5	153043	29559.440311299933	1.342417425823
5	153050	29560.771429793657	2.663412715374
5	153058	29561.981693950019	2.256532692776
5	153086	29569.137845651032	2.869883825512
5	153097	29569.583982446953	1.751573739499
5	153110	29571.77456344183	3.681686200079
5	153120	29572.397286037962	3.058752036983
5	153125	29572.612776127415	3.095482416702
5	153132	29573.951975836367	4.386806731293
5	153139	29574.514799473204	3.83309916968
5	153150	29577.215546847161	5.41272380097
5	153159	29579.576319713293	7.622376939858
5	153165	29580.223252896426	7.017268444099
5	153170	29581.414231785825	7.073164756518
5	153175	29581.688148563962	7.06177983553
5	153183	29582.076690752405	7.429926149183
5	153188	29582.279185200953	5.538559755931
5	153196	29583.319000422012	5.484479984181
5	153201	29584.376052342737	6.263342162278
5	153210	29588.335180059967	6.338583236717
5	153219	29589.329182000307	6.069508085707
5	153226	29593.445645008571	8.735727850261
5	153235	29594.386631529529	7.119525829471
5	153246	29596.997500346627	8.63668485846
5	153258	29598.654146658452	4.752488711909
5	153263	29599.168122989624	3.104135965319
5	153272	29600.214304542611	3.843620780783
5	153277	29603.291326424126	6.058965854648
5	153284	29605.762461354395	8.06423018261
5	153289	29605.962919770622	6.614738378556
5	153304	29610.744905617032	11.133155488276
5	153309	29610.907603152532	4.053515976085
5	153314	29610.953401774133	3.992584489736
5	153370	29619.966210948434	2.06962497682
5	153385	29621.508428309555	1.268923273469
5	153390	29623.53208463236	2.9577265183
5	153414	29625.159170891369	1.337325392695
5	153435	29628.725508711292	1.294819500035
5	153440	29629.680571800726	2.046988415967
5	153466	29633.866736607053	3.372586210857
5	153472	29636.532341539215	4.208619147669
5	153482	29637.63110834297	4.498854968546
5	153494	29639.476751369047	1.970102206929
5	153508	29641.839374340802	3.670628461975
5	153515	29641.988756454652	3.064589605206
5	153522	29642.507660543229	2.674476403098
5	153528	29643.283858311947	1.389263726548
5	153533	29643.403981130196	1.154963873266
5	153554	29648.210445023256	4.560393716855
5	153562	29652.282935697615	7.947270147889
5	153573	29653.919493038469	8.200236255712
5	153592	29658.919609612016	10.984807659056
5	153599	29660.643392330509	12.396149802322
5	153604	29661.226669409791	8.290122345515
5	153609	29661.42781657316	7.562005479524
5	153622	29665.956755808747	11.4526704123
5	153627	29666.538801845861	11.915269628681
5	153634	29667.634244964442	11.285844504203
5	153639	29670.08764574581	12.67627165441
5	153650	29671.330530061591	8.586347680073
5	153655	29671.46912441731	8.427939527081
5	153664	29676.987570865685	13.266680303826
5	153669	29677.294726711307	12.176580088047
5	153674	29680.342634521836	12.766659252594
5	153685	29681.692608381919	10.768213263134
5	153692	29682.4559358751	11.308505828927
5	153701	29684.644173256914	11.279087994154
5	153710	29685.777213013121	10.530826141001
5	153717	29686.961278544705	3.05876710349
5	153725	29687.997687842702	3.583135843988
5	153732	29688.678279996	3.557521767121
5	153737	29689.075961397624	1.716391904752
5	153746	29690.099347393604	1.581406248962
5	153773	29693.027608132969	2.212179871513
5	153780	29695.170428806096	3.773632432451
5	153790	29697.225096273967	5.328776648131
5	153795	29697.479119651192	5.160290469166
5	153807	29701.246761132005	8.627603053363
5	153818	29703.120064655556	10.24195346576
5	153823	29703.746538214965	9.994121699771
5	153828	29704.474143347453	8.305307945096
5	153837	29705.973447713959	6.296743712819
5	153844	29709.168914871413	8.534604976867
5	153853	29712.449830659226	10.476975038788
5	153860	29713.713246515059	11.684363544205
5	153865	29713.778113827531	11.326942628803
5	153870	29714.451397375425	9.775286216271
5	153877	29717.197656339563	8.291590843637
5	153882	29719.478758758447	9.081347798917
5	153891	29721.513851002772	8.955448831722
5	153896	29722.956019861315	7.390381350993
5	153903	29724.662862743	3.747156116374
5	153910	29727.373109886257	3.468943039244
5	153949	29733.858649581537	1.732998222991
5	153959	29735.125169433306	1.87441060365
5	153968	29736.20218273444	1.974963582264
5	153977	29739.697589451884	4.63653238791
5	153982	29740.88529262552	5.1516193941
5	153987	29741.261385735434	5.085349744667
5	153996	29742.560948530491	3.778624629427
5	154010	29744.483345218406	2.128676637244
5	154020	29745.657906813498	1.657940967821
5	154027	29748.389166259593	4.273574504786
5	154035	29750.51540933101	6.174026152337
5	154042	29751.412662305555	6.517048377376
5	154057	29756.87956377231	11.240871509087
5	154067	29758.458611479023	12.338734910114
5	154072	29758.572496033955	9.459976169689
5	154077	29760.384328021095	9.418562870328
5	154086	29763.469732399131	11.302685010832
5	154094	29764.040557867329	11.597144375846
5	154101	29765.344590129176	10.74612329625
5	154106	29766.802502216665	11.887379966797
5	154111	29768.447057672734	4.534743146184
5	154128	29770.574515667733	1.489894043171
5	154159	29777.179379167432	4.190996843575
5	154177	29782.100649240331	3.838059521642
5	154182	29782.147869074977	1.14710616205
5	154189	29784.944687806987	3.806863715253
5	154218	29787.561560506737	1.811224455372
5	154223	29787.567462685571	0.64315630747
5	154237	29790.26445815496	2.890262526676
5	154243	29790.764865101675	2.166933943439
5	154248	29791.042524376415	1.768442929228
5	154253	29791.275669631889	1.953166624568
5	154277	29794.257643143587	1.575324079918
5	154333	29810.592871362873	7.731112326516
5	154338	29811.880110561534	8.795758464396
5	154343	29812.571378929797	7.270068856911
5	154348	29814.22711126883	6.280784144297
5	154359	29816.197427160316	6.571795152367
5	154364	29816.238014234713	1.842278043938
5	154381	29818.142469128921	1.135498609226
5	154390	29819.577693284835	2.381729644292
5	154397	29820.888545384437	2.591228408666
5	154407	29822.086955604302	2.127313189197
5	154414	29823.198828228317	2.153306288344
5	154419	29823.27816700438	0.669114886119
5	154447	29827.336753311149	0.864406692606
5	154462	29828.86705005113	0.986542205508
5	154469	29829.509311449754	1.027433088185
5	154484	29831.716724342977	2.487764599894
5	154489	29832.767050635752	1.66553002163
5	154494	29833.004157483173	1.661682930099
5	154500	29834.215453350212	2.568929057127
5	154535	29839.683723465303	2.317914842743
5	154568	29843.337184934347	2.05512767071
5	154573	29843.457708401679	1.212803994533
5	154584	29846.339934558094	4.074471356219
5	154589	29849.742670379163	4.683260948267
5	154596	29850.455936990706	5.035750121165
5	154615	29853.696417097616	3.290628004025
5	154620	29853.961734445802	3.317537770208
5	154628	29855.546155234617	4.861279847125
5	154633	29857.220374582891	6.387831569029
5	154640	29859.861127946435	4.749100017239
5	154658	29863.520642211473	2.774398731677
5	154664	29864.354667643635	3.175733507445
5	154682	29867.197587604921	2.358159403109
5	154693	29868.345092746523	3.500586369586
5	154699	29868.532798612995	2.808094835428
5	154704	29868.571703621235	1.174740540002
5	154727	29873.290167688026	2.636184190695
5	154734	29873.480909936824	1.723962446204
5	154743	29876.654567456634	4.80222720183
5	154750	29876.968289332334	5.069036419576
5	154755	29879.33474359182	6.315179220716
5	154764	29880.446219709299	7.050039066997
5	154771	29883.20217757369	8.48488538332
5	154776	29883.654848141677	7.881330667887
5	154785	29887.020188600496	10.10848133176
5	154791	29888.394822228262	8.033163112279
5	154804	29891.292916977418	9.34588512501
5	154809	29891.693184160513	4.832838989771
5	154816	29892.719651267029	4.202372331853
5	154821	29893.363102559911	4.793501774477
5	154834	29901.067487295752	11.015356998093
5	154871	29909.365372030053	5.052203050664
5	154877	29910.290908499895	3.485783817724
5	154883	29911.698320152186	3.736628411699
5	154909	29918.170748850034	3.735579238495
5	154916	29918.835519396161	1.867244905396
5	154933	29923.979724073514	6.217532607576
5	154940	29924.085805673648	5.718037928499
5	154950	29926.253842631954	6.429565753845
5	154955	29926.284053255984	6.236526186673
5	154979	29929.276979296974	2.573424016438
5	154986	29930.254353519516	2.848699854264
5	154995	29931.748274932886	3.35746519937
5	155002	29932.880878276224	2.997689881857
5	155009	29934.409698776741	3.245322002283
5	155018	29936.311528558857	4.831103239487
5	155027	29937.57911655871	2.660053615716
5	155032	29937.844419322201	2.128585437719
5	155040	29938.731603452216	1.579430845507
5	155047	29939.287354532136	0.693678753918
5	155056	29942.08312074754	2.899238199406
5	155063	29943.644998191424	4.26370288083
5	155099	29947.882577839949	3.283159024931
5	155104	29949.597278821771	3.819784453466
5	155113	29953.734405644833	7.939283719592
5	155119	29954.207368002703	7.49692908032
5	155124	29954.354482496488	7.435849520444
5	155129	29954.557697546482	1.367502219043
5	155156	29958.343309535811	2.790442587003
5	155162	29959.422140432142	3.036759835187
5	155173	29961.704692942844	4.550769474025
5	155180	29962.049032979763	4.683714460844
5	155187	29962.259480516142	4.368719451734
5	155194	29963.902195295625	2.628719496719
5	155199	29965.771920453853	3.780609415616
5	155212	29967.632033222685	5.501045283432
5	155217	29968.581012403908	5.551745022552
5	155228	29972.182878009924	4.682954993064
5	155265	29978.306515675314	3.281136111178
5	155278	29978.975986987155	0.437170645444
5	155303	29981.717916183039	0.375303517871
5	155320	29985.32291994666	2.717470417642
5	155351	29989.947322106624	2.088802592143
5	155360	29992.15960997866	2.775803029298
5	155365	29992.182372170239	2.55840480108
5	155373	29994.370597454088	3.165057815079
5	155386	29997.358224234512	4.688760432556
5	155393	29998.565606782042	2.687881226161

