version 2
run Second-n4-3-20191016-17:04:13-13840
attr configname Second-n4
attr datetime 20191016-17:04:13
attr experiment Second-n4
attr inifile omnetpp.ini
attr iterationvars ""
attr iterationvarsf ""
attr measurement ""
attr network org.omnetpp.queueing.Pizza
attr processid 13840
attr repetition 3
attr replication ""
attr resultdir results
attr runnumber 3
attr seedset 3
param **.PS.maxInventoriedPS 4
param **.U1.interArrivalTime exponential(3s)
param **.U2.interArrivalTime exponential(5s)
param **.PS.serviceTimeForInventoryU1 exponential(1.0s)
param **.PS.serviceTimeForInventoryU2 exponential(1.2s)
param **.PS.serviceTimeDirectU1 exponential(1.4s)
param **.PS.serviceTimeDirectU2 exponential(1.4s)
param **.PS.probabilityProducing 0.7
param **.CS.serviceTimeU1 exponential(1.1s)
param **.CS.serviceTimeU2 exponential(1.4s)

vector 0 Pizza.EntryQueueU1 queueLength:vector ETV
attr interpolationmode sample-hold
attr title "queue length, vector"
vector 1 Pizza.CS queueLength:vector ETV
attr interpolationmode sample-hold
attr title "queue length, vector"
vector 2 Pizza.EntryQueueU2 queueLength:vector ETV
attr interpolationmode sample-hold
attr title "queue length, vector"
vector 3 Pizza.sink lifeTime:vector ETV
attr interpolationmode none
attr title "lifetime of arrived jobs, vector"
attr unit s
vector 4 Pizza.sink lifeTimeU2:vector ETV
attr interpolationmode none
attr title "lifetime of arrived jobs, vector"
attr unit s
vector 5 Pizza.sink lifeTimeU1:vector ETV
attr interpolationmode none
attr title "lifetime of arrived jobs, vector"
attr unit s
0	0	0	0
0	5	2.400847172678	1
0	9	3.432143397568	2
0	11	4.111238126736	1
0	16	4.156865278345	0
0	41	10.135435936346	1
0	44	11.843733224555	0
0	111	34.470448833398	1
0	112	34.615586838437	0
0	134	38.607302240266	1
0	136	40.013114762174	2
0	137	40.087114220826	1
0	145	41.659596826631	0
0	158	41.831943654478	1
0	160	42.389565074691	0
0	167	43.181795971522	1
0	168	43.681751317448	0
0	174	44.32243626958	1
0	175	44.895080392453	0
0	194	46.528813482682	1
0	200	48.148004580924	0
0	241	58.252620521076	1
0	242	58.833579857312	0
0	287	76.38772553303	1
0	290	78.061158786815	0
0	309	87.124935047323	1
0	312	87.520144231829	0
0	319	88.188139867708	1
0	320	89.917557204543	0
0	332	90.28717700947	1
0	334	91.449102172002	0
0	362	95.159333515627	1
0	366	96.485144934056	0
0	422	121.484833559245	1
0	423	121.79154370232	0
0	436	122.819514323711	1
0	440	124.09128013027	0
0	446	124.451538495014	1
0	449	126.424714514116	0
0	457	128.10108895405	1
0	460	133.162159699653	0
0	466	133.237861990582	1
0	467	133.285317846305	0
0	480	136.837903965916	1
0	482	136.915482053846	2
0	484	137.205449556773	3
0	485	137.540717563902	2
0	491	139.501324812028	1
0	498	140.516114988327	0
0	525	146.691899990359	1
0	526	148.816481074258	0
0	536	150.863136161654	1
0	538	151.312733577293	2
0	540	151.452428021646	3
0	542	151.519458771927	4
0	544	151.691207171727	5
0	546	152.44574489098	6
0	548	152.65296094993	5
0	553	153.452982458609	4
0	559	154.165830147566	3
0	564	154.67141884317	2
0	569	155.006248595965	1
0	574	155.723275850421	0
0	578	156.518717184765	1
0	580	156.711627163574	2
0	582	158.055572973314	3
0	585	159.607000870667	2
0	590	160.206192830951	1
0	595	160.627774182153	0
0	615	164.524318583018	1
0	616	164.683620976648	0
0	622	165.037554324309	1
0	626	165.740618508999	0
0	734	188.240686131167	1
0	735	188.482599371838	0
0	760	199.014083196024	1
0	761	200.635501128366	0
0	787	206.752463573806	1
0	788	207.132723124119	0
0	832	223.422462475125	1
0	835	225.509662177396	0
0	856	230.571324565653	1
0	858	231.141992653817	2
0	859	231.192466870906	1
0	864	231.341159779436	0
0	951	258.666468310075	1
0	952	262.61524580509	0
0	999	273.883550982569	1
0	1001	274.587712608701	0
0	1008	275.348162754509	1
0	1011	277.668667178343	2
0	1012	277.671582193403	1
0	1018	278.558364204376	0
0	1027	281.466504929452	1
0	1028	283.050879099029	0
0	1049	288.86173712838	1
0	1051	289.530596534388	0
0	1133	325.032287807611	1
0	1135	325.35833559725	2
0	1136	325.866050671925	1
0	1142	326.38719752966	0
0	1148	326.395357399213	1
0	1150	328.803403681149	0
0	1157	330.170454029298	1
0	1158	331.496231138929	0
0	1200	338.797536546732	1
0	1203	339.300416359196	2
0	1205	339.958780160173	1
0	1212	341.126571578643	2
0	1213	341.332920659996	1
0	1218	341.417114093307	0
0	1261	356.508366359524	1
0	1265	356.815477918471	2
0	1274	359.44118691185	1
0	1279	359.510477003131	0
0	1295	364.541287369813	1
0	1299	365.878344983107	2
0	1302	367.252945532807	1
0	1307	367.799382914869	0
0	1318	368.783059626876	1
0	1320	369.242112586603	2
0	1326	373.001325619792	3
0	1329	374.00502149826	4
0	1330	374.656879301649	3
0	1338	377.611710805631	2
0	1344	379.113148076274	1
0	1351	379.554748732442	2
0	1353	379.957082791373	3
0	1355	380.175178806099	4
0	1357	380.802422006962	3
0	1362	380.926618062331	2
0	1369	381.337260845664	1
0	1374	382.539353059872	0
0	1385	383.170040747949	1
0	1386	383.376216346982	0
0	1399	384.229760882507	1
0	1402	384.785647510939	0
0	1406	386.032914553328	1
0	1408	386.753479509313	2
0	1413	388.817426415715	1
0	1420	390.357120634055	0
0	1431	392.419087980914	1
0	1432	392.836058130259	0
0	1456	393.672817253632	1
0	1457	394.378714106561	0
0	1485	399.245505448547	1
0	1487	399.580791792947	2
0	1488	399.62838425274	1
0	1493	403.115410948795	0
0	1502	405.023334414871	1
0	1504	405.520108969507	2
0	1509	406.481508540741	1
0	1514	406.654041768166	0
0	1570	426.1285388648	1
0	1573	427.15488948285	0
0	1590	430.832132672444	1
0	1592	432.073370030713	0
0	1620	444.444045552398	1
0	1622	445.18990368486	2
0	1625	446.736249861405	1
0	1631	446.73674249979	2
0	1632	446.744661180005	1
0	1641	449.915628781565	0
0	1664	459.21311319418	1
0	1665	459.763164222826	0
0	1680	463.869413471427	1
0	1681	464.272571034797	0
0	1692	465.778175354528	1
0	1695	468.305921352888	0
0	1717	470.972805874678	1
0	1719	470.97677609475	2
0	1722	473.325976461425	3
0	1725	474.314730751325	2
0	1734	474.942201759919	3
0	1735	474.987916942083	2
0	1740	476.011299199229	1
0	1746	476.505347281035	2
0	1747	476.782087773971	1
0	1752	477.236121280594	0
0	1779	481.956898446343	1
0	1780	482.231770151924	0
0	1786	482.873173785419	1
0	1787	483.264875514507	0
0	1810	489.411299605711	1
0	1812	491.508097735671	0
0	1851	501.971970603197	1
0	1853	502.730207678392	0
0	1867	504.89207784688	1
0	1869	505.106811620375	0
0	1884	508.212424093021	1
0	1888	508.940941013602	0
0	1894	509.029741723048	1
0	1899	509.432194021731	2
0	1903	511.710541197317	3
0	1905	511.909941122396	4
0	1907	512.900027954155	5
0	1908	513.176978500104	4
0	1914	513.239804872453	5
0	1915	513.840584814746	4
0	1921	513.894594039407	5
0	1923	514.971390046436	4
0	1928	515.770503394002	3
0	1933	515.877845785238	2
0	1938	516.260111292435	1
0	1944	516.636814563434	2
0	1947	517.488600770872	1
0	1953	518.202082017483	2
0	1958	522.332098782559	1
0	1966	524.152699890096	2
0	1967	524.346080959399	1
0	1973	524.395111474047	2
0	1974	524.822489272276	1
0	1979	525.601952324705	0
0	1985	525.668630052114	1
0	1986	525.693591272843	0
0	2026	530.251896653311	1
0	2027	530.254606227471	0
0	2103	551.757779452975	1
0	2104	551.863652158952	0
0	2224	587.349100163023	1
0	2225	589.116954310571	0
0	2240	591.417035010018	1
0	2243	593.354887799522	0
0	2309	608.220016746607	1
0	2312	609.625894786941	0
0	2413	636.621185120881	1
0	2416	638.506360775252	2
0	2417	638.57770445046	1
0	2423	639.405254998353	0
0	2429	639.979778940955	1
0	2430	640.084242728867	0
0	2438	640.999989870256	1
0	2441	642.473053942255	0
0	2471	651.760230813744	1
0	2472	651.855294367382	0
0	2550	672.476587554094	1
0	2552	674.101633739575	0
0	2575	678.0708481217	1
0	2576	678.076690443012	0
0	2608	687.997436379049	1
0	2609	688.23459129689	0
0	2631	691.073821774216	1
0	2633	691.967655913844	2
0	2636	695.224375793072	3
0	2638	696.076021328064	4
0	2639	697.44027872785	3
0	2645	697.657207349842	4
0	2651	700.270905582592	3
0	2658	700.555061235731	4
0	2659	701.212119611009	3
0	2666	707.01319871491	2
0	2673	709.250504404965	1
0	2678	709.336813903126	0
0	2724	715.617849848447	1
0	2731	719.344196037853	0
0	2740	720.889039582978	1
0	2747	722.663849683421	2
0	2748	725.006453809959	1
0	2753	725.27330373584	0
0	2760	725.558889190011	1
0	2763	725.907100890048	0
0	2808	736.592670186808	1
0	2811	738.252981568402	0
0	2828	740.736445349116	1
0	2829	741.81831729327	0
0	2865	752.264957062601	1
0	2877	759.702198320106	2
0	2879	760.281795557095	3
0	2881	760.466243751604	4
0	2885	761.659733774225	5
0	2886	762.048396268345	4
0	2892	762.151475561629	5
0	2895	764.46771032168	6
0	2896	764.880282078236	5
0	2901	765.016204415358	4
0	2907	765.018444913225	5
0	2909	765.516617913187	4
0	2914	767.019751977136	3
0	2921	768.426293241523	4
0	2922	768.659063958847	3
0	2927	769.079126702557	2
0	2931	769.087705404617	3
0	2937	769.973755710879	2
0	2942	770.092556293981	1
0	2947	771.009498473177	0
0	2951	771.664804547039	1
0	2959	774.86121361488	2
0	2963	776.132913287287	1
0	2968	776.897363669475	0
0	3012	783.202835972729	1
0	3016	785.161972035841	2
0	3018	787.351249529956	3
0	3023	791.294088940307	2
0	3032	792.967747719954	3
0	3034	793.323948878795	2
0	3039	793.421386182946	1
0	3045	795.051146197392	0
0	3051	795.053835557901	1
0	3052	795.883705108365	0
0	3058	796.366201353341	1
0	3061	797.063759941128	0
0	3081	800.181816735068	1
0	3085	802.122444113758	0
0	3105	803.529275647987	1
0	3106	803.793379808718	0
0	3144	813.750623201007	1
0	3149	815.244472888984	0
0	3162	817.358491184341	1
0	3166	820.622760195478	0
0	3178	821.393353233105	1
0	3181	823.238351649452	2
0	3182	823.783204525727	1
0	3187	823.899210359729	0
0	3193	824.677370094505	1
0	3197	826.532018128702	0
0	3265	841.402452118883	1
0	3266	841.597231992693	0
0	3333	856.728881760255	1
0	3335	857.396262008378	0
0	3367	861.600602209662	1
0	3370	862.63490732594	2
0	3371	862.775402406763	1
0	3377	863.856173485923	2
0	3378	864.05046273116	1
0	3383	864.14086645692	0
0	3427	878.46219538296	1
0	3430	878.801911535172	0
0	3441	881.017802403484	1
0	3446	884.046520876792	2
0	3447	886.736036003289	1
0	3453	886.778151024796	0
0	3465	887.538400256272	1
0	3466	887.779310239495	0
0	3497	895.985369478524	1
0	3498	896.032814775097	0
0	3521	903.298003823798	1
0	3522	903.96614465905	0
0	3529	904.469218505317	1
0	3531	905.285413144463	0
0	3554	919.884162377047	1
0	3558	921.388413666728	0
0	3580	925.609102154619	1
0	3582	926.308183986627	2
0	3583	926.456716168191	1
0	3590	927.29036732402	0
0	3668	958.291096790023	1
0	3670	959.059101390373	0
0	3681	959.277632381569	1
0	3689	960.409853078388	2
0	3691	961.227665155667	1
0	3698	961.499317974493	2
0	3699	961.846392545493	1
0	3704	961.873907657446	0
0	3711	963.120915552977	1
0	3714	964.755556932601	2
0	3715	964.78743699491	1
0	3720	964.791615016536	0
0	3759	975.622536821974	1
0	3762	976.269405267791	2
0	3763	978.428635785551	1
0	3768	978.48398205625	0
0	3778	978.682943027609	1
0	3782	979.081172142474	0
0	3793	980.432619357134	1
0	3794	980.67902189816	0
0	3811	983.380346906919	1
0	3813	983.594921503457	2
0	3815	984.24162041944	3
0	3817	984.359981066541	4
0	3822	984.813719430277	5
0	3826	986.602634422105	6
0	3827	987.710630189665	5
0	3834	988.98728484519	4
0	3839	989.342024451784	3
0	3845	989.870404488745	4
0	3846	990.242144164717	3
0	3852	990.89356580117	4
0	3857	992.745643462408	5
0	3859	993.091198057464	4
0	3864	993.110323273092	3
0	3872	996.63780304946	2
0	3879	997.331454258215	3
0	3881	998.38100839105	4
0	3885	998.827462828644	5
0	3887	999.060434674905	6
0	3888	1000.238472603047	5
0	3894	1001.322133897081	6
0	3896	1001.572348483797	7
0	3898	1001.710792123533	8
0	3902	1003.416006517042	9
0	3903	1004.674449717643	8
0	3911	1006.38351069794	9
0	3912	1006.469770191933	8
0	3919	1008.097766311431	7
0	3924	1008.307424891245	6
0	3929	1008.42335853622	5
0	3935	1008.839694844173	4
0	3940	1009.136403757261	3
0	3950	1010.131603243359	4
0	3951	1010.36244799423	3
0	3958	1011.37423383275	4
0	3959	1011.807598278986	3
0	3964	1012.338960724529	2
0	3969	1012.519904673316	1
0	3974	1013.402805003619	0
0	3996	1016.233914801933	1
0	3998	1016.629542566099	2
0	3999	1017.028724800969	1
0	4004	1018.279383332296	0
0	4012	1021.244975964118	1
0	4015	1022.507319153165	2
0	4016	1022.717320206597	1
0	4023	1023.559596298147	0
0	4030	1025.194324103796	1
0	4031	1026.786606940178	0
0	4118	1047.395749971689	1
0	4119	1047.578409821699	0
0	4148	1056.984186571158	1
0	4153	1060.0558453168	0
0	4170	1061.072408987303	1
0	4171	1062.241386484976	0
0	4177	1062.51900770687	1
0	4180	1062.712549610857	0
0	4193	1064.179765771683	1
0	4196	1064.542606773372	0
0	4220	1071.772592899767	1
0	4221	1072.073313096225	0
0	4237	1073.962072399262	1
0	4238	1074.036131308843	0
0	4249	1076.328260220418	1
0	4250	1076.345055207293	0
0	4298	1087.896895103474	1
0	4300	1088.097870372501	2
0	4302	1088.324763996838	3
0	4305	1088.823872145458	2
0	4310	1088.996366454364	1
0	4316	1089.911983016469	0
0	4327	1091.379019359361	1
0	4331	1091.793078354282	2
0	4333	1092.103238477924	3
0	4335	1093.017866446323	4
0	4336	1094.819189723774	3
0	4341	1095.041455888278	2
0	4347	1095.406486056968	1
0	4353	1096.95475716097	0
0	4363	1098.480956486117	1
0	4367	1098.813078621593	2
0	4371	1100.063950688339	3
0	4375	1101.467065091976	2
0	4380	1101.52638887907	1
0	4386	1101.845707267953	0
0	4393	1102.329235209063	1
0	4394	1102.853546719249	0
0	4400	1103.179854500829	1
0	4401	1103.430328155661	0
0	4439	1116.806095088551	1
0	4440	1117.180708191123	0
0	4463	1121.824431182693	1
0	4465	1122.446373840554	2
0	4468	1122.643833043585	1
0	4474	1122.957433947414	0
0	4480	1123.013692485125	1
0	4481	1123.856486434894	0
0	4487	1124.386690427119	1
0	4489	1125.121579813408	0
0	4499	1127.871617176442	1
0	4503	1129.456877689424	2
0	4504	1130.7346485551	1
0	4509	1131.011606221621	0
0	4520	1132.951744626479	1
0	4525	1134.210294361669	2
0	4528	1135.93132393932	1
0	4536	1136.145971215008	0
0	4559	1137.834093960071	1
0	4561	1137.984352857023	2
0	4562	1138.255611677754	1
0	4568	1138.892590018946	0
0	4607	1152.74819961703	1
0	4608	1153.140012735887	0
0	4685	1176.038059724237	1
0	4688	1176.717441091966	0
0	4714	1183.33431991635	1
0	4715	1183.489912089691	0
0	4766	1196.066681121372	1
0	4767	1197.142626831356	0
0	4783	1199.97157238352	1
0	4787	1203.919807854034	0
0	4800	1206.068827327725	1
0	4801	1206.183881755423	0
0	4820	1208.515236318272	1
0	4821	1208.572559259448	0
0	4890	1234.354506668663	1
0	4891	1234.614755336754	0
0	4904	1235.783128779659	1
0	4907	1238.092101987885	0
0	4952	1252.172802499102	1
0	4955	1253.445205903055	0
0	4961	1254.280937857805	1
0	4962	1255.089439168316	0
0	4971	1256.558191166424	1
0	4974	1258.293746076168	0
0	4991	1261.73694518468	1
0	4993	1262.050688003953	2
0	4995	1262.250545816849	3
0	4999	1263.701512417023	4
0	5000	1263.853114684582	3
0	5005	1264.029068832119	2
0	5010	1264.446918253959	1
0	5018	1264.798369431087	2
0	5020	1264.839340015781	3
0	5021	1265.95058917753	2
0	5026	1266.02264998936	1
0	5034	1271.171713630767	2
0	5039	1271.741012981592	1
0	5044	1272.92789416837	0
0	5067	1278.284060681494	1
0	5068	1278.621877871802	0
0	5089	1281.383865084047	1
0	5090	1281.503893650342	0
0	5126	1291.33593161982	1
0	5132	1292.632375395775	0
0	5144	1295.339501786765	1
0	5145	1296.55558504404	0
0	5158	1299.200561157171	1
0	5159	1299.39166657327	0
0	5172	1300.770151166787	1
0	5173	1301.262766090378	0
0	5192	1306.038324643885	1
0	5194	1306.049165961588	2
0	5202	1307.73443790636	3
0	5206	1309.171732221862	2
0	5211	1309.538019110448	1
0	5218	1310.528950481375	0
0	5239	1313.127179373967	1
0	5242	1315.451303552351	0
0	5276	1322.767982071247	1
0	5278	1322.964935702381	2
0	5279	1323.200856740813	1
0	5286	1324.797153731257	2
0	5288	1324.973550171132	3
0	5289	1325.246590269807	2
0	5295	1328.005742604033	1
0	5302	1329.614667874221	0
0	5395	1373.636541400478	1
0	5401	1374.1362504875	2
0	5402	1374.452560081453	1
0	5408	1374.499379696559	2
0	5411	1375.464371177363	3
0	5413	1375.538728185906	4
0	5414	1375.944366396862	3
0	5419	1376.455502934512	2
0	5425	1376.488599231102	3
0	5427	1376.925345594565	2
0	5432	1377.489659837841	1
0	5439	1378.619152242118	2
0	5440	1378.988512565299	1
0	5446	1379.293162859161	0
0	5452	1379.933210245216	1
0	5454	1380.610986053654	0
0	5460	1380.916456879937	1
0	5461	1381.377341148164	0
0	5474	1384.809796348857	1
0	5476	1384.904964942661	2
0	5478	1385.120794224253	1
0	5485	1385.777486245307	2
0	5486	1386.654603837413	1
0	5491	1387.231162921493	0
0	5503	1387.68302602802	1
0	5508	1388.990470053624	2
0	5509	1389.885255243392	1
0	5517	1390.919016147799	0
0	5547	1398.2114573613	1
0	5551	1401.036748528972	0
0	5567	1406.368400312779	1
0	5571	1407.710978613186	2
0	5573	1407.991378941872	3
0	5577	1409.045614082653	4
0	5579	1410.121499684454	5
0	5581	1410.589153864533	6
0	5582	1412.455275710009	5
0	5594	1416.756859236867	6
0	5596	1416.75856323636	7
0	5597	1416.965165078369	6
0	5602	1419.056555032808	5
0	5609	1420.171315143494	4
0	5614	1420.212014472235	3
0	5620	1420.333807297355	4
0	5621	1420.6017424867	3
0	5628	1421.378576222048	4
0	5631	1421.692263107545	5
0	5633	1421.89109557184	4
0	5639	1421.904764603412	5
0	5640	1422.010040965351	4
0	5648	1423.334980587971	5
0	5649	1423.510674980175	4
0	5654	1424.461119883556	3
0	5664	1425.458812526694	2
0	5669	1426.028880683802	1
0	5674	1427.078841875146	0
0	5680	1427.18377421954	1
0	5681	1428.444637137588	0
0	5708	1433.404717477862	1
0	5709	1433.534863956593	0
0	5715	1433.540982587859	1
0	5716	1433.886168146533	0
0	5738	1439.583363987377	1
0	5743	1442.66617520472	0
0	5755	1443.949321790446	1
0	5756	1444.547443582342	0
0	5765	1446.025514617675	1
0	5769	1448.780870526263	0
0	5775	1448.816485876774	1
0	5776	1448.851493602928	0
0	5807	1459.869441173145	1
0	5811	1462.354067601563	0
0	5837	1470.519234946945	1
0	5839	1470.566235169832	2
0	5842	1473.724203711961	1
0	5849	1475.420433592793	2
0	5850	1475.637673711516	1
0	5855	1475.667497116679	0
0	5895	1483.904033664115	1
0	5897	1484.068136300431	2
0	5899	1484.298816506614	3
0	5902	1484.603740568975	2
0	5908	1485.73139889549	1
0	5913	1485.860837841483	0
0	5939	1490.58079202788	1
0	5941	1490.850173782267	2
0	5943	1492.728626942592	3
0	5945	1493.441435883841	4
0	5946	1494.355830255191	3
0	5953	1496.088734600493	2
0	5958	1496.434239984927	1
0	5965	1496.93683208517	2
0	5966	1497.255418911145	1
0	5971	1497.351215782493	0
0	5985	1503.184032538815	1
0	5994	1508.694104115837	2
0	5996	1508.896156017817	3
0	5997	1510.300624110871	2
0	6005	1510.854703903974	1
0	6014	1512.750362069742	0
0	6037	1519.402921145456	1
0	6039	1519.922345101603	2
0	6040	1520.143329877906	1
0	6045	1520.717041765428	0
0	6051	1521.004601479303	1
0	6052	1521.160038999076	0
0	6064	1521.512371061707	1
0	6065	1521.750913162499	0
0	6082	1524.254542015936	1
0	6087	1525.707595793105	0
0	6100	1528.959294834751	1
0	6102	1529.179683330323	2
0	6110	1533.561358176664	1
0	6115	1533.9446244039	0
0	6146	1539.331715629025	1
0	6147	1542.069610547215	0
0	6153	1542.510194359926	1
0	6155	1542.820286912236	2
0	6157	1543.4374166103	3
0	6159	1543.804410661504	2
0	6167	1544.529268071998	1
0	6177	1548.523708411232	0
0	6194	1550.279702624438	1
0	6195	1550.33773221022	0
0	6232	1559.657855312526	1
0	6234	1560.00669786453	2
0	6235	1561.765714554142	1
0	6241	1563.081873582306	2
0	6244	1563.66294565051	1
0	6250	1563.889413590592	0
0	6259	1565.784659962335	1
0	6261	1567.054002103202	2
0	6268	1569.623726927238	1
0	6273	1569.745606604487	0
0	6284	1571.100377068619	1
0	6288	1572.172902714715	0
0	6296	1572.8956430165	1
0	6297	1572.975536779552	0
0	6325	1581.380276456636	1
0	6329	1582.269374308054	2
0	6335	1585.104128541723	1
0	6341	1585.615857525294	2
0	6345	1588.463762845304	1
0	6350	1588.9680481453	0
0	6356	1589.194286899994	1
0	6357	1589.506934680313	0
0	6363	1589.584582086421	1
0	6365	1590.350309473974	2
0	6369	1591.16870998432	3
0	6371	1591.691476813973	4
0	6373	1592.170971652542	3
0	6378	1592.37259810776	2
0	6386	1593.487805496357	3
0	6389	1596.468329352154	2
0	6395	1597.045018463476	1
0	6400	1597.339871308308	0
0	6419	1598.548321122207	1
0	6420	1601.334230786611	0
0	6451	1608.697481600329	1
0	6453	1608.720780851027	2
0	6454	1608.849446824133	1
0	6460	1610.279015596131	2
0	6461	1610.343227113595	1
0	6468	1611.208386014044	0
0	6544	1626.728886234926	1
0	6546	1626.952253115349	2
0	6547	1627.208501884696	1
0	6552	1627.481463343924	0
0	6575	1633.060976915522	1
0	6577	1633.924569505764	2
0	6579	1634.7775012418	3
0	6580	1636.052881208133	2
0	6585	1637.621692885862	1
0	6593	1640.378943974197	0
0	6605	1642.922478537306	1
0	6607	1643.599277436642	2
0	6614	1647.551103441005	1
0	6620	1649.711631122517	0
0	6632	1651.952126538103	1
0	6633	1653.417046250666	0
0	6685	1664.884052602117	1
0	6687	1665.437297435593	0
0	6713	1672.654768371299	1
0	6715	1673.735058045801	0
0	6749	1681.356460875266	1
0	6751	1681.928021864076	2
0	6753	1684.687311822107	1
0	6758	1685.218741955066	0
0	6773	1687.27956652703	1
0	6774	1687.474180682453	0
0	6789	1689.419335072131	1
0	6791	1689.659629712508	2
0	6792	1689.794066404149	1
0	6798	1689.875554279903	2
0	6800	1690.080719727977	3
0	6802	1691.573073492562	2
0	6809	1691.980915386837	3
0	6811	1693.371941268164	2
0	6816	1693.532181775329	1
0	6821	1693.941935461265	0
0	6835	1698.76829347993	1
0	6839	1700.049320982633	0
0	6854	1702.048436416848	1
0	6855	1702.636681547946	0
0	6908	1716.792343321401	1
0	6909	1716.949315335346	0
0	6915	1717.383344757068	1
0	6918	1719.276281000041	0
0	6949	1728.6130031427	1
0	6950	1728.951843050524	0
0	6977	1734.896721713785	1
0	6981	1735.81364145786	0
0	6987	1737.806689927781	1
0	6989	1739.283026198041	0
0	7026	1743.911021875725	1
0	7028	1744.321894560566	2
0	7029	1745.28960927191	1
0	7035	1745.325057409457	2
0	7036	1745.576093964401	1
0	7041	1745.762649216946	0
0	7048	1746.834654341083	1
0	7049	1747.475835664097	0
0	7059	1748.567383154206	1
0	7061	1750.702474599317	0
0	7067	1750.947619678604	1
0	7070	1751.509750481194	0
0	7100	1756.797551891864	1
0	7101	1756.996432037996	0
0	7110	1758.206760905165	1
0	7113	1759.399051140786	0
0	7137	1772.021957597825	1
0	7138	1772.129525863424	0
0	7152	1773.423996305648	1
0	7155	1774.154047850488	2
0	7158	1774.598560905977	1
0	7163	1774.922469028743	0
0	7189	1777.67515093398	1
0	7195	1779.887212341015	0
0	7201	1779.980935702356	1
0	7203	1780.495938925261	0
0	7236	1789.251989583611	1
0	7238	1789.814089998419	2
0	7243	1791.847337100154	1
0	7248	1791.919706324004	0
0	7254	1792.186302542104	1
0	7257	1792.677250165982	2
0	7259	1793.307460357216	1
0	7264	1793.668033020441	0
0	7297	1807.901258209407	1
0	7300	1808.816553028427	0
0	7326	1812.461137921586	1
0	7327	1812.667645941882	0
0	7355	1823.063692848424	1
0	7361	1824.663080355976	2
0	7364	1825.478190654147	3
0	7365	1826.271315606897	2
0	7370	1827.154741842441	1
0	7375	1827.857135683852	0
0	7432	1837.677935026073	1
0	7433	1838.472325017224	0
0	7458	1846.491386579838	1
0	7459	1847.800737108123	0
0	7470	1848.409311838778	1
0	7473	1849.970685696145	0
0	7495	1854.774004648364	1
0	7498	1855.363957724986	2
0	7500	1855.951299579492	1
0	7506	1856.399562960815	2
0	7507	1856.561998439989	1
0	7512	1857.436159623937	0
0	7533	1859.995059057587	1
0	7534	1861.589979291481	0
0	7607	1882.686110752136	1
0	7608	1883.224776927416	0
0	7621	1885.763184692041	1
0	7622	1885.8206656387	0
0	7647	1895.217454944366	1
0	7649	1895.557721323672	2
0	7650	1896.415359238038	1
0	7655	1896.648337367197	0
0	7664	1898.307261808474	1
0	7669	1899.363061661352	0
0	7675	1899.596533669956	1
0	7678	1902.416680646585	0
0	7686	1903.016295724334	1
0	7693	1906.440779119131	0
0	7709	1909.588482487335	1
0	7711	1910.381367383857	2
0	7712	1910.685042581256	1
0	7717	1910.868958379556	0
0	7723	1910.881842287442	1
0	7725	1911.304169831293	0
0	7743	1913.922125749942	1
0	7745	1914.645886168742	0
0	7751	1914.737901632177	1
0	7753	1915.307662663224	2
0	7754	1916.57817785342	1
0	7759	1916.775042617968	0
0	7770	1917.542071790988	1
0	7771	1917.942569160259	0
0	7797	1923.877727963866	1
0	7799	1924.009473473504	2
0	7800	1924.014177928356	1
0	7808	1928.987419858124	0
0	7848	1937.283737710084	1
0	7850	1938.292399129118	2
0	7853	1939.346833374633	1
0	7860	1941.339589933323	2
0	7863	1941.906844428242	1
0	7869	1943.790980099939	0
0	7875	1944.237295024414	1
0	7877	1944.698464381929	2
0	7878	1945.71346212159	1
0	7883	1945.919299559908	0
0	7887	1948.506303586658	1
0	7890	1949.908203698066	0
0	7935	1959.657892430543	1
0	7938	1960.130182592046	2
0	7941	1962.466479757465	3
0	7942	1962.926673632016	2
0	7950	1963.194018843035	3
0	7953	1964.646302594388	2
0	7958	1964.888690076095	1
0	7964	1965.105864478139	0
0	7970	1965.418312039162	1
0	7973	1966.395854529488	0
0	7989	1968.536855483098	1
0	7990	1968.879793545424	0
0	7997	1971.449605113903	1
0	8000	1971.783048367826	2
0	8001	1971.828044834182	1
0	8008	1973.623524741308	2
0	8012	1973.921563972107	1
0	8017	1974.545329148412	0
0	8038	1977.212868789609	1
0	8040	1977.500278445714	2
0	8042	1978.197181931559	3
0	8044	1980.124619439153	4
0	8049	1982.503513336998	3
0	8054	1983.350268795226	2
0	8060	1983.560260574339	3
0	8062	1983.740450366425	4
0	8064	1983.95839538547	5
0	8065	1984.235960026435	4
0	8070	1984.485044999186	3
0	8076	1986.425373711038	4
0	8078	1986.744216573818	5
0	8081	1987.065253287573	4
0	8087	1989.682447751567	3
0	8094	1992.993819830038	2
0	8100	1994.766301014863	1
0	8105	1995.547235269016	0
0	8111	1997.548411427778	1
0	8114	1999.218188157006	0
0	8118	1999.868918782467	1
0	8120	2000.721773249711	2
0	8123	2004.332038031421	1
0	8127	2004.763996842028	2
0	8131	2006.309611249559	1
0	8136	2007.622371935878	0
0	8151	2009.838370285495	1
0	8152	2009.886110600002	0
0	8170	2017.415062876417	1
0	8174	2018.478323408966	2
0	8176	2020.693445486089	3
0	8181	2022.324650094736	2
0	8186	2022.871478600468	1
0	8191	2023.169321757742	0
0	8202	2025.029607629875	1
0	8205	2026.249533124856	0
0	8217	2027.022932253859	1
0	8220	2027.86522183768	0
0	8226	2027.880797263754	1
0	8227	2028.311960002692	0
0	8231	2030.35081120526	1
0	8236	2031.24108403961	0
0	8246	2035.659228663642	1
0	8247	2035.660134919351	0
0	8257	2037.799510074523	1
0	8258	2038.048552078615	0
0	8284	2046.564173096425	1
0	8290	2048.038963282581	2
0	8292	2049.072297444217	1
0	8297	2050.026452754203	0
0	8311	2051.322108826781	1
0	8315	2052.977192815056	0
0	8349	2058.946121354252	1
0	8352	2059.67786905909	0
0	8387	2063.533753161961	1
0	8390	2063.996554045568	2
0	8391	2064.3916499442	1
0	8397	2064.936442822783	0
0	8423	2074.768246049007	1
0	8425	2076.077322455034	2
0	8426	2076.845472850597	1
0	8432	2077.102574135999	2
0	8433	2078.608118254687	1
0	8438	2078.734713072095	0
0	8469	2087.557818228315	1
0	8472	2088.587337946723	0
0	8487	2092.148483394059	1
0	8489	2094.409325435039	0
0	8496	2095.633955333565	1
0	8497	2096.786438929334	0
0	8518	2099.187615986735	1
0	8519	2100.733080151437	0
0	8592	2125.998938581338	1
0	8597	2127.236478050907	0
0	8613	2128.337223157088	1
0	8619	2130.499338207736	0
0	8649	2139.75051826395	1
0	8650	2142.119430555042	0
0	8661	2143.869459916737	1
0	8662	2144.450424935799	0
0	8672	2146.647058104876	1
0	8676	2148.320797398997	0
0	8685	2149.403291626954	1
0	8687	2152.992365095911	2
0	8690	2153.502555550148	1
0	8696	2154.771457308998	2
0	8698	2154.998874623822	3
0	8700	2156.673665306959	4
0	8705	2159.398270966855	5
0	8706	2159.545093647725	4
0	8712	2160.563549842424	3
0	8720	2161.963240382329	4
0	8724	2162.790852309212	3
0	8731	2164.808250041713	4
0	8732	2165.261716020351	3
0	8738	2168.397759961125	2
0	8744	2168.855098322178	3
0	8748	2169.064307957646	4
0	8749	2170.470615500906	3
0	8755	2170.91780854862	2
0	8760	2171.328081594832	1
0	8767	2174.114981844446	2
0	8773	2175.091433223308	3
0	8774	2176.828186509338	2
0	8782	2178.425789960285	3
0	8785	2179.378340303749	2
0	8790	2180.283695620554	1
0	8797	2182.074540542971	2
0	8798	2182.548998037458	1
0	8803	2183.924723779523	0
0	8807	2184.959946077274	1
0	8810	2186.670982458686	0
0	8814	2186.736072265542	1
0	8820	2190.637684694882	0
0	8836	2193.797954278421	1
0	8840	2197.377794702471	0
0	8846	2197.487717733619	1
0	8848	2198.354918452785	2
0	8852	2200.984938858635	1
0	8858	2201.385856835007	0
0	8874	2202.804890546114	1
0	8875	2202.819788841875	0
0	8886	2203.349649237212	1
0	8888	2203.746645494951	2
0	8895	2206.866679342514	3
0	8896	2210.299640857718	2
0	8902	2210.336882355025	3
0	8903	2210.513634108673	2
0	8914	2213.514493177451	3
0	8915	2214.881046771382	2
0	8920	2215.080182659892	1
0	8927	2216.243646248338	2
0	8930	2217.348177225792	1
0	8936	2218.53488555063	0
0	8955	2221.232995933363	1
0	8956	2221.343193465074	0
0	8981	2225.785850864427	1
0	8984	2229.654951680045	0
0	8993	2231.012627036516	1
0	9001	2233.648100073656	0
0	9029	2241.314679251331	1
0	9030	2243.287169468359	0
0	9054	2247.587508423332	1
0	9057	2248.858904094856	0
0	9066	2250.216537160641	1
0	9067	2250.989145404045	0
0	9083	2255.54048333519	1
0	9086	2255.898428901393	0
0	9104	2262.000541101816	1
0	9106	2262.060832866427	2
0	9108	2263.794430007628	3
0	9111	2266.690738587794	2
0	9117	2267.004381789979	3
0	9119	2267.006852785165	4
0	9120	2267.432770723718	3
0	9125	2267.474317163494	2
0	9132	2267.646041520149	1
0	9138	2268.0178182738	2
0	9140	2268.051638258945	1
0	9145	2268.607374595281	0
0	9167	2272.055055098024	1
0	9170	2274.134548004446	2
0	9171	2274.255136735715	1
0	9177	2276.176865676543	0
0	9196	2279.701271468015	1
0	9198	2280.616075769371	2
0	9200	2283.135882738713	3
0	9204	2283.627097209725	4
0	9211	2288.908470566898	3
0	9217	2289.269319276479	2
0	9226	2291.831679097592	3
0	9228	2292.197960805898	4
0	9229	2292.578470148258	3
0	9234	2293.984604839937	2
0	9240	2294.238303990301	1
0	9245	2295.615086598209	0
0	9262	2299.794422461879	1
0	9263	2300.111697006171	0
0	9270	2302.416307997557	1
0	9271	2302.809187777783	0
0	9277	2303.048666088124	1
0	9278	2303.063398669307	0
0	9285	2303.329567779865	1
0	9286	2303.779526722709	0
0	9303	2305.183670991138	1
0	9304	2306.02753156273	0
0	9315	2306.471909391583	1
0	9316	2306.586403396502	0
0	9328	2308.831421144517	1
0	9329	2309.795201653422	0
0	9352	2318.447890944976	1
0	9354	2320.142807585371	2
0	9361	2322.747055993981	3
0	9362	2323.860811334524	2
0	9371	2324.580956248269	3
0	9372	2324.583924408192	2
0	9378	2324.653138069649	3
0	9379	2326.021833935896	2
0	9384	2326.130181891262	1
0	9393	2328.766671045888	2
0	9395	2328.905690703986	1
0	9401	2329.205339298908	2
0	9404	2331.755329212607	1
0	9409	2332.783080581408	0
0	9438	2341.219490286459	1
0	9439	2341.297480017364	0
0	9457	2345.355750314495	1
0	9458	2345.37110172747	0
0	9464	2346.042155715767	1
0	9466	2346.134688227486	0
0	9544	2363.44578655432	1
0	9547	2364.575269723006	0
0	9555	2366.320618611469	1
0	9560	2368.501473925205	0
0	9579	2371.55196561716	1
0	9581	2372.993242535759	0
0	9588	2374.83539566386	1
0	9590	2375.357045522981	2
0	9592	2375.428597355294	3
0	9593	2377.176270333668	2
0	9598	2377.524394007341	1
0	9603	2378.376278710823	0
0	9607	2379.142260201088	1
0	9609	2379.907219249892	2
0	9611	2380.089916312305	3
0	9614	2380.974355538187	2
0	9618	2381.01556404142	3
0	9625	2383.797127327603	4
0	9627	2385.268722279325	5
0	9629	2385.696745108475	6
0	9630	2385.950472221962	5
0	9636	2387.280284289234	6
0	9637	2387.589730990394	5
0	9643	2388.131000908184	4
0	9648	2388.496634057422	3
0	9655	2389.311694482247	2
0	9660	2389.631610450292	1
0	9666	2391.655922004486	0
0	9678	2393.946686053207	1
0	9680	2394.423648600785	0
0	9702	2398.473379490592	1
0	9703	2400.96111199404	0
0	9739	2414.763186152934	1
0	9741	2415.652208676817	2
0	9745	2417.537727125632	1
0	9750	2418.121054025806	0
0	9805	2426.384155220599	1
0	9808	2429.057432790337	0
0	9830	2431.356132581072	1
0	9831	2431.50329312447	0
0	9856	2437.582467361632	1
0	9857	2438.119828097943	0
0	9863	2438.376867079674	1
0	9864	2438.902202795775	0
0	9903	2444.573159965842	1
0	9905	2444.646623454924	0
0	9950	2452.300087133479	1
0	9952	2452.624919444252	0
0	9960	2452.960741358883	1
0	9961	2454.813939774593	0
0	9968	2456.770348418259	1
0	9970	2459.208761021467	0
0	9999	2462.835952790502	1
0	10000	2463.93020748395	0
0	10007	2464.300369799947	1
0	10009	2464.418517402916	2
0	10011	2464.427866227021	3
0	10012	2465.298821952245	2
0	10021	2468.670197915115	1
0	10027	2468.837858499796	2
0	10028	2469.157793101999	1
0	10034	2470.847083330746	0
0	10063	2475.503923515602	1
0	10065	2475.969450702815	2
0	10066	2476.355613768556	1
0	10071	2476.399322877925	0
0	10091	2477.754822704903	1
0	10094	2477.849261268729	2
0	10096	2478.336732626985	1
0	10102	2478.512364140613	2
0	10103	2478.962421237521	1
0	10112	2481.427194156963	2
0	10113	2482.237359823242	1
0	10119	2482.470404816451	0
0	10143	2487.6855395587	1
0	10144	2487.999165512162	0
0	10150	2489.116681132379	1
0	10154	2490.265427112658	2
0	10155	2490.399211220494	1
0	10163	2491.471547055935	2
0	10165	2491.662204181184	3
0	10168	2493.905136010474	2
0	10173	2494.401551007591	1
0	10179	2495.873248451015	2
0	10181	2496.043673253052	3
0	10184	2496.378903905576	2
0	10192	2497.866373240402	1
0	10198	2499.728497436533	0
0	10204	2499.811723090175	1
0	10205	2500.397465981757	0
0	10237	2508.752951531384	1
0	10238	2510.138109998822	0
0	10252	2511.364252950525	1
0	10253	2512.874550172461	0
0	10306	2529.25413198788	1
0	10310	2529.855546912626	2
0	10311	2530.520111492616	1
0	10317	2533.410407237061	0
0	10329	2534.236482097062	1
0	10331	2536.333916871264	2
0	10340	2538.483869019901	3
0	10341	2539.176688349022	2
0	10348	2539.608519675307	3
0	10349	2540.764214296423	2
0	10358	2541.477824716354	1
0	10363	2541.722145180961	0
0	10392	2548.555124871604	1
0	10395	2549.458475743641	0
0	10447	2567.391859992619	1
0	10449	2569.333631555012	0
0	10464	2572.533138269184	1
0	10465	2572.612082620142	0
0	10542	2597.498878722254	1
0	10543	2600.392456204097	0
0	10588	2615.220068143157	1
0	10589	2616.794912120702	0
0	10628	2629.539922526328	1
0	10630	2630.910710204278	2
0	10631	2631.197046115775	1
0	10636	2631.238662245081	0
0	10667	2636.572123020547	1
0	10668	2637.738024386078	0
0	10718	2658.043750453061	1
0	10719	2658.637472578188	0
0	10773	2677.310594137376	1
0	10775	2677.363876010005	2
0	10776	2677.727748436834	1
0	10783	2677.978346380743	2
0	10784	2678.49586142045	1
0	10792	2679.32139288074	0
0	10837	2687.480532553784	1
0	10839	2689.691426292498	0
0	10877	2704.173171161879	1
0	10878	2704.306656995581	0
0	10893	2706.660999022572	1
0	10895	2708.301828997912	2
0	10897	2710.687509461221	1
0	10904	2711.319898138405	2
0	10905	2712.378464445937	1
0	10914	2713.665344482211	2
0	10915	2714.532801295615	1
0	10920	2714.768568488993	0
0	10952	2724.75691693561	1
0	10954	2724.789804159777	2
0	10955	2725.022845086335	1
0	10960	2725.457200457658	0
0	10972	2728.625034841924	1
0	10973	2729.149826070254	0
0	10984	2729.683471115732	1
0	10985	2730.632567981668	0
0	11005	2733.983916673863	1
0	11006	2734.004841403729	0
0	11018	2736.112506528488	1
0	11020	2737.702909165219	2
0	11021	2737.841056597103	1
0	11026	2737.917610276501	0
0	11078	2750.56775397569	1
0	11079	2751.798562587547	0
0	11085	2752.11863566244	1
0	11086	2753.193645257452	0
0	11104	2760.045691774208	1
0	11107	2760.349989346924	0
0	11141	2767.111428832809	1
0	11142	2767.212422184307	0
0	11164	2771.416703918254	1
0	11166	2771.682732524865	2
0	11169	2774.812359381135	1
0	11174	2775.997365885494	0
0	11180	2776.460431665929	1
0	11182	2777.179541398352	2
0	11184	2777.754428716677	1
0	11195	2779.386302300126	0
0	11204	2780.732090395995	1
0	11207	2781.521653133466	2
0	11208	2782.000961943102	1
0	11213	2782.149193379645	0
0	11225	2785.292314528358	1
0	11228	2787.279043389443	2
0	11229	2787.978462674404	1
0	11234	2789.217980904814	0
0	11240	2789.311909864317	1
0	11241	2789.571252608022	0
0	11252	2792.265927758933	1
0	11256	2793.075563017993	2
0	11261	2794.805975127605	1
0	11267	2795.22007476508	0
0	11293	2797.636336760103	1
0	11296	2797.98704454501	2
0	11297	2798.002045263681	1
0	11303	2799.633008024562	0
0	11337	2809.469288870212	1
0	11339	2809.925171021287	2
0	11340	2810.3664531339	1
0	11345	2811.266981941895	0
0	11352	2812.141847277189	1
0	11354	2813.272916842642	2
0	11359	2815.034362303651	3
0	11361	2815.977658960165	2
0	11368	2818.065405197524	1
0	11373	2818.265556343519	0
0	11398	2820.381775054596	1
0	11400	2821.372931963475	2
0	11403	2821.714487145816	1
0	11408	2822.895981100449	0
0	11493	2846.160843666106	1
0	11495	2849.437106293155	0
0	11505	2849.851228994335	1
0	11506	2850.539436282398	0
0	11512	2850.701039293023	1
0	11513	2852.436286662643	0
0	11519	2852.506655212159	1
0	11520	2854.739764525774	0
0	11544	2857.996840626682	1
0	11547	2858.624927311254	2
0	11548	2858.75736433676	1
0	11554	2858.880353254256	2
0	11555	2859.034639734654	1
0	11560	2859.442755921167	0
0	11588	2866.211732662755	1
0	11590	2867.932104391704	0
0	11655	2879.988017741323	1
0	11656	2880.116790557532	0
0	11698	2892.833429738187	1
0	11699	2893.253883584867	0
0	11709	2895.813180163518	1
0	11710	2895.895439064421	0
0	11743	2903.820340511682	1
0	11744	2904.494684801738	0
0	11783	2908.015582228475	1
0	11784	2908.574531202288	0
0	11812	2913.496315668535	1
0	11815	2914.495211343431	0
0	11822	2916.249729794541	1
0	11824	2917.537833632034	0
0	11838	2921.594360414316	1
0	11839	2921.60753155847	0
0	11881	2931.520827008637	1
0	11883	2932.49529461961	2
0	11885	2934.155927880934	3
0	11889	2936.119610631115	4
0	11890	2936.182502791765	3
0	11895	2936.222484947294	2
0	11900	2936.698088706747	1
0	11912	2938.883663213619	0
0	11940	2947.045502212124	1
0	11941	2947.205155707126	0
0	11947	2947.304363664954	1
0	11949	2949.254907342733	0
0	11959	2950.789296022808	1
0	11963	2951.533674529758	0
0	11976	2952.779206800606	1
0	11978	2953.135270715602	2
0	11981	2954.679683422304	3
0	11982	2957.526627020746	2
0	11990	2959.978938426924	1
0	11996	2960.661410055169	0
0	12034	2970.302680696113	1
0	12035	2970.415466303747	0
0	12166	2998.628301084612	1
0	12167	2999.121721208736	0
0	12191	3008.124136604029	1
0	12192	3008.366198807726	0
0	12223	3014.185033194486	1
0	12224	3014.521621162501	0
0	12299	3032.120083099583	1
0	12301	3033.969634429405	0
0	12307	3035.229573752908	1
0	12308	3035.436099567108	0
0	12368	3051.958719048721	1
0	12369	3052.543578386376	0
0	12450	3074.83918563696	1
0	12453	3074.89382554557	0
0	12461	3075.338835016062	1
0	12463	3076.165466549814	0
0	12488	3081.841674922945	1
0	12489	3082.214672761652	0
0	12516	3091.524869124827	1
0	12520	3091.912212306504	2
0	12521	3092.251992851501	1
0	12526	3092.724857208739	0
0	12553	3104.536463165146	1
0	12554	3104.583019945843	0
0	12561	3105.989104443365	1
0	12564	3106.964293292953	0
0	12607	3125.855736874002	1
0	12608	3125.963468822159	0
0	12622	3128.498291126005	1
0	12624	3128.918433947533	2
0	12627	3129.542562887283	1
0	12632	3130.448037147674	0
0	12643	3132.329736174145	1
0	12645	3132.44591021722	2
0	12648	3133.83321265578	1
0	12655	3134.08176390381	2
0	12657	3134.232249139294	1
0	12663	3134.251037495273	2
0	12664	3134.347532015127	1
0	12669	3134.783130048834	0
0	12685	3137.064218923386	1
0	12686	3137.74111856744	0
0	12692	3137.845629210542	1
0	12695	3137.981809561579	0
0	12699	3138.121363037094	1
0	12701	3142.357999366165	2
0	12705	3146.979242926959	3
0	12707	3147.193125358361	4
0	12709	3147.214651020035	5
0	12711	3147.814206619665	6
0	12715	3148.417223084527	5
0	12721	3151.406074456532	6
0	12722	3151.686354449128	5
0	12733	3157.42557548507	4
0	12738	3157.530619965616	3
0	12748	3159.230256797932	2
0	12753	3159.697885610315	1
0	12761	3160.50584370525	0
0	12773	3162.009586410543	1
0	12774	3164.535430226199	0
0	12797	3169.742479941627	1
0	12801	3170.965529094321	2
0	12802	3171.032225844615	1
0	12808	3171.460649077447	0
0	12815	3171.56687731632	1
0	12817	3172.860249130461	0
0	12865	3177.47679059587	1
0	12870	3180.105669235964	0
0	12878	3181.075183577949	1
0	12880	3181.240594135791	2
0	12882	3181.358207919379	3
0	12884	3181.438093626785	4
0	12887	3182.106610005962	3
0	12893	3183.743396326792	2
0	12904	3184.827741240253	1
0	12910	3185.749152366178	0
0	12928	3188.364858910481	1
0	12931	3189.540151350126	0
0	12942	3189.992995685031	1
0	12947	3191.594091213072	2
0	12949	3192.280476323989	3
0	12951	3193.300540882954	4
0	12956	3195.956744766644	3
0	12961	3196.04230736101	2
0	12966	3196.30878627938	1
0	12972	3196.529535239229	2
0	12974	3196.765202166557	1
0	12981	3197.850111327248	0
0	13096	3229.214418397487	1
0	13097	3229.754646979297	0
0	13135	3238.505787574778	1
0	13137	3238.861901247476	2
0	13141	3239.062441382958	1
0	13146	3239.384404866173	0
0	13173	3244.786940481071	1
0	13174	3245.587215717297	0
0	13185	3247.407631434152	1
0	13187	3250.874552085401	0
0	13200	3252.364087285711	1
0	13201	3252.461044570544	0
0	13216	3255.024254648414	1
0	13218	3255.2837424185	0
0	13260	3267.476007299766	1
0	13263	3270.022921710853	0
0	13274	3273.162231717725	1
0	13275	3273.698679968295	0
0	13288	3276.181638864657	1
0	13289	3276.24987340409	0
0	13295	3277.246377241884	1
0	13298	3280.024191333906	0
0	13304	3280.424115071269	1
0	13305	3281.074937789273	0
0	13324	3285.880972014097	1
0	13328	3286.740697003398	0
0	13341	3287.853371563998	1
0	13342	3289.238982799185	0
0	13360	3290.971462652032	1
0	13362	3291.377957263179	0
0	13403	3299.459992689963	1
0	13404	3299.562225881726	0
0	13419	3303.217139569831	1
0	13421	3303.278195958293	2
0	13422	3303.831789537352	1
0	13428	3305.88873897676	0
0	13435	3306.825613840144	1
0	13436	3307.048650582054	0
0	13508	3328.987350725482	1
0	13509	3329.209901585672	0
0	13525	3332.878967258506	1
0	13527	3332.887330667296	2
0	13529	3333.493637177429	1
0	13535	3333.544789313545	2
0	13537	3335.114508758394	1
0	13542	3335.31766985189	0
0	13567	3339.043814224247	1
0	13571	3339.562614448547	2
0	13572	3341.997190859226	1
0	13578	3342.173515323493	2
0	13580	3342.336705573295	3
0	13582	3342.905347451388	2
0	13588	3343.520098547119	3
0	13590	3343.703846267229	2
0	13597	3344.543084613188	1
0	13603	3345.424177219546	0
0	13611	3346.561024462312	1
0	13613	3346.856140083738	2
0	13616	3348.67837335447	1
0	13622	3349.363205530076	0
0	13634	3350.6285588526	1
0	13640	3353.990573797413	0
0	13647	3354.313638332385	1
0	13650	3355.64760157159	2
0	13651	3355.801593899328	1
0	13656	3356.527139913307	0
0	13662	3357.273428529079	1
0	13665	3357.334437174331	0
0	13680	3360.95890849675	1
0	13681	3361.133588157113	0
0	13687	3361.33637783551	1
0	13690	3361.951677569257	0
0	13717	3365.738628123484	1
0	13720	3366.388833923072	0
0	13732	3368.833492974174	1
0	13736	3369.786010167222	2
0	13737	3370.914982047509	1
0	13744	3371.203427085317	0
0	13758	3374.315829371965	1
0	13759	3374.318349609269	0
0	13778	3379.60370347086	1
0	13779	3379.696503418664	0
0	13791	3380.579763725169	1
0	13793	3380.733262314201	2
0	13796	3381.300841061833	1
0	13801	3381.627967154987	0
0	13824	3385.429481065954	1
0	13826	3385.870661261859	0
0	13838	3386.667655916219	1
0	13839	3387.414598887368	0
0	13846	3387.840634809995	1
0	13847	3389.099249271007	0
0	13875	3398.928258976263	1
0	13877	3399.581343216178	2
0	13879	3401.894487475518	1
0	13887	3403.843803699589	0
0	13893	3405.186731192765	1
0	13894	3405.214274585016	0
0	13941	3415.664329289156	1
0	13943	3416.155769762951	2
0	13944	3416.958167600707	1
0	13951	3417.49586546032	0
0	13958	3417.972645253424	1
0	13959	3418.773800294921	0
0	13988	3424.025167640432	1
0	13989	3424.364302289499	0
0	13996	3425.302404309458	1
0	13999	3426.17485901928	0
0	14049	3436.788903387751	1
0	14053	3438.406352899315	2
0	14054	3438.526991263695	1
0	14059	3438.861902496966	0
0	14086	3442.606227459123	1
0	14090	3446.968178521802	2
0	14091	3447.047321824981	1
0	14097	3447.493716865556	0
0	14103	3448.683098324025	1
0	14104	3449.590199834778	0
0	14123	3452.355058922484	1
0	14125	3452.46771808676	2
0	14126	3452.719281865327	1
0	14131	3453.259684449586	0
0	14163	3460.445679068408	1
0	14164	3461.839535888056	0
0	14219	3473.05020366869	1
0	14220	3476.232265920847	0
0	14243	3483.203987501497	1
0	14244	3484.438001875305	0
0	14257	3484.813664492707	1
0	14259	3485.935005221962	0
0	14378	3511.210184789647	1
0	14380	3511.235562446727	2
0	14381	3512.13753509131	1
0	14387	3512.540004711537	2
0	14388	3512.948814035494	1
0	14393	3514.423795246901	0
0	14414	3518.071093911707	1
0	14416	3519.181699481037	2
0	14420	3521.692707347867	1
0	14425	3522.072999345986	0
0	14440	3524.242854953555	1
0	14446	3526.159424246049	0
0	14452	3526.322224614291	1
0	14454	3528.209357745268	0
0	14465	3529.75805002712	1
0	14466	3530.037123987821	0
0	14489	3533.193003565925	1
0	14490	3533.617155420338	0
0	14507	3539.196327837716	1
0	14509	3539.925808991854	2
0	14510	3540.702679710262	1
0	14516	3543.540878754863	0
0	14565	3556.785698659014	1
0	14567	3557.66811856106	0
0	14607	3569.725682877136	1
0	14608	3570.392249564225	0
0	14705	3588.784903839596	1
0	14706	3589.454747076826	0
0	14713	3590.596709306145	1
0	14714	3591.188572206162	0
0	14721	3592.341704230127	1
0	14722	3593.379503313785	0
0	14729	3594.160974334298	1
0	14731	3595.225995369004	0
0	14795	3627.014896063458	1
0	14797	3627.048282267333	2
0	14798	3627.170750042372	1
0	14803	3627.389794581302	0
0	14843	3639.687450351518	1
0	14847	3643.057788059487	2
0	14848	3643.555808147155	1
0	14853	3643.763276803461	0
0	14859	3643.874243170345	1
0	14861	3644.885830620834	0
0	14914	3660.345536438757	1
0	14915	3665.005888398056	0
0	14937	3670.953536039532	1
0	14938	3671.420691482621	0
0	14977	3684.963216026146	1
0	14979	3685.240230975658	2
0	14980	3685.927791754488	1
0	14988	3687.380952267473	2
0	14991	3688.674447479375	1
0	14996	3689.348751590325	0
0	15029	3695.25654987468	1
0	15030	3695.537765017813	0
0	15034	3696.913487643519	1
0	15041	3699.177070118073	0
0	15047	3699.669034049678	1
0	15048	3700.55802211518	0
0	15060	3702.082705842158	1
0	15061	3702.174137025048	0
0	15077	3706.542965358458	1
0	15078	3706.560341403027	0
0	15089	3714.185390433695	1
0	15097	3719.128208714373	0
0	15103	3719.34695833204	1
0	15106	3720.435720292699	2
0	15108	3721.23212094613	1
0	15113	3721.269848024627	0
0	15171	3737.729606920138	1
0	15177	3740.764787997626	2
0	15178	3741.128115022553	1
0	15185	3743.351281940765	2
0	15189	3744.265817284577	3
0	15191	3744.356872041916	4
0	15192	3744.373750695352	3
0	15201	3747.121375558825	4
0	15202	3747.420521430298	3
0	15209	3751.336496592468	4
0	15210	3751.382917844385	3
0	15215	3751.578163096281	2
0	15221	3751.970814542686	1
0	15227	3752.013125897082	2
0	15228	3752.618945588952	1
0	15233	3753.404087561011	0
0	15239	3753.548645394013	1
0	15245	3754.735172193308	2
0	15246	3754.7812060295	1
0	15256	3757.422364573705	0
0	15267	3758.18305300747	1
0	15269	3760.351102433092	0
0	15295	3764.233948599597	1
0	15299	3764.56387927529	2
0	15301	3764.71963568662	3
0	15303	3765.922242063167	2
0	15315	3767.274290841218	1
0	15321	3768.7475924348	0
0	15352	3784.772318925581	1
0	15355	3784.981775082941	0
0	15366	3786.314746443699	1
0	15370	3787.314492880424	0
0	15384	3789.155040810496	1
0	15386	3789.297457681494	2
0	15390	3789.870241236594	3
0	15393	3791.729055544807	2
0	15398	3794.130213142508	1
0	15404	3794.418663219779	0
0	15459	3806.125056968545	1
0	15462	3809.166402318562	0
0	15476	3810.368211860436	1
0	15477	3810.385699367955	0
0	15486	3810.963940699844	1
0	15487	3811.216417288908	0
0	15508	3815.969194890559	1
0	15511	3816.479780977512	0
0	15531	3821.820412745768	1
0	15534	3822.6729108136	0
0	15588	3841.699212699535	1
0	15592	3842.229922146104	2
0	15594	3842.236700446427	3
0	15595	3842.275257812295	2
0	15600	3842.330955100382	1
0	15607	3845.285673123386	0
0	15626	3850.65485674737	1
0	15627	3850.793319368894	0
0	15671	3859.856197907552	1
0	15673	3860.053793331675	2
0	15674	3860.106475199089	1
0	15679	3860.50779676856	0
0	15696	3864.647408057383	1
0	15697	3866.046060988052	0
0	15707	3867.37184977091	1
0	15710	3868.835838119546	0
0	15716	3868.886056200097	1
0	15717	3869.052678526035	0
0	15723	3869.859874768709	1
0	15724	3870.480006999445	0
0	15737	3871.624985189695	1
0	15738	3872.057866925427	0
0	15782	3887.925066343043	1
0	15783	3889.304720473903	0
0	15829	3898.427766427275	1
0	15830	3898.736766469539	0
0	15856	3908.260533776381	1
0	15857	3908.396143367523	0
0	15885	3913.535682781163	1
0	15887	3914.470649271	2
0	15888	3916.129713928057	1
0	15897	3916.712349564236	2
0	15898	3916.738066177336	1
0	15904	3916.75918304789	2
0	15907	3918.073467040197	3
0	15909	3918.304992511905	4
0	15910	3918.49895671751	3
0	15915	3918.559841486234	2
0	15920	3919.017710488313	1
0	15925	3919.085974876715	0
0	15938	3919.895595596459	1
0	15940	3920.279336263379	2
0	15947	3921.379869732723	1
0	15952	3921.806514048588	0
0	15975	3924.729167760969	1
0	15979	3926.300799828133	2
0	15981	3926.665676619879	3
0	15985	3927.679899684978	4
0	15988	3928.612558944119	3
0	15994	3928.981197065748	4
0	15996	3929.973174363337	3
0	16001	3930.348683527648	2
0	16008	3930.597541438324	3
0	16010	3930.699156974675	2
0	16015	3931.282045484358	1
0	16021	3932.0480756619	0
0	16044	3936.543189501117	1
0	16046	3936.853994652133	2
0	16052	3939.882136173716	3
0	16054	3940.002771632477	4
0	16056	3940.14057463844	5
0	16057	3940.352967095661	4
0	16063	3940.441144753368	5
0	16065	3941.482057668628	6
0	16066	3942.5139056003	5
0	16074	3943.981890014369	6
0	16076	3944.830040398653	5
0	16082	3944.837785404859	6
0	16084	3945.364888061385	7
0	16085	3946.587468466595	6
0	16092	3949.066955477002	5
0	16098	3949.433383982293	6
0	16102	3951.963041008837	5
0	16107	3952.469574733552	4
0	16113	3953.513937738526	3
0	16118	3953.864769521174	2
0	16124	3954.560395573731	3
0	16129	3954.969177802884	4
0	16130	3955.469620870301	3
0	16138	3956.618984409317	4
0	16140	3956.921307095514	3
0	16145	3957.174144543388	2
0	16149	3957.201735903528	3
0	16153	3959.193858439972	2
0	16161	3959.785591593449	1
0	16168	3960.454057027504	0
0	16214	3967.458738129364	1
0	16219	3968.384403260162	2
0	16221	3969.213622235211	3
0	16222	3969.753329704315	2
0	16228	3970.874008999779	1
0	16233	3970.991852617459	0
0	16271	3978.305297624961	1
0	16274	3978.510981589564	2
0	16276	3978.783309965374	1
0	16281	3978.970655360413	0
0	16303	3982.78105331552	1
0	16304	3983.154476393429	0
0	16312	3983.663803665856	1
0	16317	3984.250221594871	2
0	16318	3985.683032706134	1
0	16324	3987.43148774065	0
0	16330	3987.469674387802	1
0	16331	3987.668782648716	0
0	16339	3988.666038354727	1
0	16340	3989.138077673758	0
0	16347	3990.209209573901	1
0	16351	3991.623871925169	0
0	16362	3993.163623733381	1
0	16365	3994.805964992108	0
0	16392	3999.718758783648	1
0	16394	3999.851792456974	2
0	16397	4001.835801838677	1
0	16402	4001.953972909379	0
0	16417	4007.362232299724	1
0	16418	4008.177948508804	0
0	16449	4018.256092902264	1
0	16450	4019.608397459315	0
0	16464	4021.021998536555	1
0	16472	4023.292303674815	2
0	16473	4023.425692609989	1
0	16479	4024.989717964358	2
0	16480	4025.333670122237	1
0	16486	4026.436434205731	2
0	16487	4026.623886187928	1
0	16493	4027.217330305199	0
0	16504	4028.248357160187	1
0	16506	4029.040058322939	0
0	16550	4036.978224740891	1
0	16551	4037.268119359478	0
0	16567	4040.732326678594	1
0	16568	4041.630426717641	0
0	16574	4041.638268825673	1
0	16575	4042.662131748113	0
0	16596	4046.302494641105	1
0	16600	4046.976409868982	2
0	16601	4047.371746372302	1
0	16606	4047.523257919001	0
0	16617	4049.655676128535	1
0	16619	4049.959872716704	2
0	16620	4050.39783126013	1
0	16625	4050.603304858814	0
0	16650	4053.913525193545	1
0	16652	4054.605961210329	0
0	16678	4058.848309261632	1
0	16681	4059.217777696067	0
0	16700	4062.230311562685	1
0	16701	4062.7099061548	0
0	16757	4082.13643570303	1
0	16758	4082.789472694837	0
0	16773	4085.836687078859	1
0	16776	4086.025718041621	2
0	16777	4087.363573433939	1
0	16782	4087.611595769079	0
0	16802	4092.568672712283	1
0	16805	4093.278625839219	0
0	16811	4093.825646618805	1
0	16813	4094.088130417645	2
0	16818	4095.82079669711	3
0	16820	4096.139831479403	4
0	16824	4099.119316265515	3
0	16829	4099.203409425989	2
0	16834	4099.40696814164	1
0	16844	4102.67739770668	0
0	16860	4105.914050736597	1
0	16861	4106.538884379571	0
0	16932	4120.722719312545	1
0	16938	4121.973884576322	0
0	16960	4124.552678870817	1
0	16961	4125.633323076111	0
0	16975	4128.026951670155	1
0	16981	4130.116022098509	2
0	16984	4131.159823120135	1
0	16989	4131.343556928642	0
0	16995	4131.489262808636	1
0	16996	4133.330348535177	0
0	17017	4138.626509017803	1
0	17021	4144.217892820999	2
0	17022	4144.583506950672	1
0	17030	4145.063344421149	0
0	17039	4146.401347434496	1
0	17045	4148.217681307521	2
0	17047	4149.447322275258	3
0	17049	4149.930039101578	4
0	17050	4149.936446386897	3
0	17056	4151.31504483128	2
0	17063	4153.195002973929	3
0	17068	4158.696247351097	2
0	17073	4159.281124756612	1
0	17080	4160.438528207595	0
0	17086	4160.596799243003	1
0	17088	4161.328409035668	2
0	17091	4162.990810383986	1
0	17097	4163.185096928042	2
0	17099	4163.212924265912	3
0	17100	4163.352666433782	2
0	17106	4164.443384722997	3
0	17111	4167.281442140097	2
0	17116	4167.678191262829	1
0	17121	4168.562672866395	0
0	17141	4175.888391311094	1
0	17142	4175.937730990557	0
0	17173	4180.446565815739	1
0	17174	4180.83310922466	0
0	17189	4183.019062664361	1
0	17190	4183.563728637361	0
0	17196	4184.226455644663	1
0	17197	4185.112296354575	0
0	17212	4187.678167346614	1
0	17214	4188.784451658066	0
0	17295	4209.507089643473	1
0	17296	4212.506324184485	0
0	17312	4217.302959071033	1
0	17314	4218.332527594117	2
0	17315	4218.49543998455	1
0	17321	4218.597252237014	2
0	17323	4219.250935147808	3
0	17324	4219.393091029721	2
0	17333	4223.007518707014	1
0	17338	4223.191494370386	0
0	17359	4224.343588624425	1
0	17364	4224.926935162215	0
0	17387	4230.033738599241	1
0	17388	4230.563860711936	0
0	17413	4241.145027794502	1
0	17414	4241.287096422207	0
0	17444	4245.907172824029	1
0	17445	4247.068860907845	0
0	17466	4249.094998497294	1
0	17468	4249.441557076605	0
0	17494	4259.502969240894	1
0	17496	4260.056631808017	2
0	17497	4260.390142048439	1
0	17503	4260.956480649749	0
0	17526	4265.731333761683	1
0	17527	4266.565762716055	0
0	17540	4268.01939900816	1
0	17545	4268.791297276902	0
0	17551	4269.121762035386	1
0	17553	4271.831385834949	0
0	17580	4277.498785438456	1
0	17581	4278.006960457876	0
0	17597	4287.385726033598	1
0	17601	4287.54947451006	2
0	17602	4287.788541873265	1
0	17607	4287.973756756119	0
0	17657	4294.338984776826	1
0	17661	4295.37183250266	2
0	17663	4295.451119061526	3
0	17665	4295.452240918684	4
0	17668	4295.708888031099	3
0	17675	4296.356135508586	4
0	17677	4298.583958322882	3
0	17682	4299.206195049322	2
0	17689	4301.017340577596	3
0	17692	4303.309280932502	2
0	17698	4303.452751138038	3
0	17702	4304.683546936017	2
0	17707	4304.745544605524	1
0	17713	4306.268884966435	0
0	17755	4317.1986911069	1
0	17756	4317.717730358938	0
0	17787	4324.995986130042	1
0	17788	4325.6846052173	0
0	17805	4330.285545532079	1
0	17806	4331.438291645983	0
0	17852	4340.229041977091	1
0	17853	4340.80683781761	0
0	17886	4352.184929701043	1
0	17889	4353.40447768416	0
0	17900	4355.612383421517	1
0	17902	4355.75429408001	2
0	17904	4356.764258071985	1
0	17912	4358.053884375377	2
0	17913	4358.077643466689	1
0	17920	4359.630190046447	0
0	17944	4363.720995689743	1
0	17946	4364.29235357971	2
0	17950	4365.076965981893	3
0	17951	4365.473661168819	2
0	17956	4365.786681679346	1
0	17962	4366.212217182241	0
0	17968	4366.312521038149	1
0	17969	4366.448493936479	0
0	17975	4367.995955441601	1
0	17977	4368.065316969466	2
0	17978	4369.13949010382	1
0	17986	4369.84293950848	0
0	18001	4371.756067670935	1
0	18002	4371.855543799504	0
0	18013	4373.103678820818	1
0	18014	4373.878683726682	0
0	18030	4375.69986642383	1
0	18033	4377.30739378398	0
0	18057	4380.60090943791	1
0	18059	4384.856052925125	2
0	18061	4385.403920211911	3
0	18064	4387.643948503153	2
0	18070	4388.136698682604	1
0	18075	4388.485789024086	0
0	18090	4393.333012918548	1
0	18094	4394.757619614213	0
0	18101	4396.932881958395	1
0	18103	4397.231391711651	0
0	18124	4401.182884133855	1
0	18127	4403.803779889039	2
0	18128	4404.397632959042	1
0	18133	4405.154026251522	0
0	18164	4415.773332437965	1
0	18165	4416.559991585582	0
0	18189	4429.808437280186	1
0	18190	4430.365961299522	0
0	18228	4439.566950001175	1
0	18231	4441.157267847669	0
0	18242	4441.638832161853	1
0	18244	4442.26585748844	2
0	18246	4442.421231373842	3
0	18249	4443.498173656812	2
0	18255	4444.280209544349	1
0	18261	4444.653641899821	0
0	18305	4455.894312079976	1
0	18306	4457.372861140434	0
0	18312	4457.686653254838	1
0	18313	4457.775092736644	0
0	18327	4462.792417157214	1
0	18328	4464.005044185478	0
0	18337	4464.351631732653	1
0	18338	4464.362991813557	0
0	18347	4464.568018499407	1
0	18353	4465.632275402954	2
0	18355	4466.754932711165	1
0	18361	4466.81804023806	2
0	18363	4467.335060038669	1
0	18368	4467.557437004482	0
0	18400	4474.559881981572	1
0	18409	4476.305855929065	2
0	18410	4476.372241652957	1
0	18415	4476.921464982312	0
0	18446	4480.337564737791	1
0	18448	4480.420954116755	2
0	18451	4481.650744801425	1
0	18456	4481.818727713149	0
0	18487	4485.601858004371	1
0	18491	4486.129421893827	2
0	18494	4487.065476334608	1
0	18499	4487.18302368758	0
0	18505	4487.242955854615	1
0	18509	4488.626400131099	2
0	18510	4488.668173578379	1
0	18515	4488.899948929749	0
0	18524	4489.49099060952	1
0	18526	4489.587224736264	2
0	18530	4490.295339736468	3
0	18531	4490.425738354821	2
0	18537	4492.136738227746	1
0	18542	4492.633021697482	0
0	18553	4492.82726450084	1
0	18555	4493.243737409597	0
0	18566	4494.600437608104	1
0	18569	4496.221531444987	0
0	18575	4496.357615885096	1
0	18576	4496.482734758626	0
0	18607	4504.215203644879	1
0	18608	4505.125903084818	0
0	18623	4506.046986334416	1
0	18627	4508.210224587641	0
0	18637	4509.339174705728	1
0	18638	4509.47472822207	0
0	18647	4511.924684775913	1
0	18648	4513.025983233499	0
0	18672	4518.88154435344	1
0	18673	4519.678801881736	0
0	18684	4521.309478145565	1
0	18688	4521.67184202603	2
0	18691	4522.980927127636	1
0	18696	4523.679598498198	0
0	18716	4528.983292121189	1
0	18720	4529.777163258599	2
0	18722	4531.301398423528	3
0	18724	4533.878093982344	4
0	18726	4534.485835623518	5
0	18727	4534.64538789075	4
0	18733	4535.212940639477	5
0	18735	4535.783592019302	6
0	18736	4535.934168797276	5
0	18741	4536.03427031513	4
0	18748	4538.26901423254	3
0	18754	4540.092263314156	4
0	18756	4540.567938887103	5
0	18757	4541.156022663208	4
0	18762	4541.239262953383	3
0	18768	4542.075228102663	2
0	18773	4542.167441571264	1
0	18779	4542.353127007391	2
0	18780	4542.867076813184	1
0	18789	4545.225376777293	0
0	18805	4548.408486674496	1
0	18806	4548.671199421891	0
0	18813	4549.437632924949	1
0	18814	4549.44100580972	0
0	18837	4553.121298501362	1
0	18839	4553.225366575262	2
0	18842	4555.025567002019	1
0	18847	4555.555650402613	0
0	18922	4577.214206628248	1
0	18927	4580.60711874018	0
0	18947	4582.373022671903	1
0	18948	4582.785040288225	0
0	18954	4582.855385259698	1
0	18955	4583.302530323978	0
0	18987	4589.144941277976	1
0	18990	4589.413328022655	0
0	19009	4593.990594612016	1
0	19014	4595.30293495084	0
0	19038	4599.126968795414	1
0	19041	4599.683720281087	0
0	19080	4607.976823245577	1
0	19082	4608.317133831473	2
0	19087	4610.029678456846	3
0	19088	4610.262912195743	2
0	19093	4610.37246595092	1
0	19098	4610.739322121346	0
0	19112	4612.584714097557	1
0	19114	4612.899252369259	2
0	19122	4614.829034225901	1
0	19127	4614.967524275639	0
0	19140	4617.534416537237	1
0	19142	4618.628491270775	2
0	19148	4621.383544889134	3
0	19150	4621.982627061224	2
0	19155	4622.992743256358	1
0	19164	4624.128543474537	0
0	19183	4628.200595080806	1
0	19185	4628.431017147072	2
0	19198	4632.556501066425	1
0	19205	4633.006187184701	2
0	19208	4634.905475535977	1
0	19213	4634.94823243906	0
0	19226	4636.664506567025	1
0	19229	4638.986102027248	0
0	19235	4639.125589450566	1
0	19237	4639.520824357056	2
0	19239	4640.293143998984	1
0	19246	4641.809484643605	0
0	19259	4643.224146875617	1
0	19260	4644.264360124549	0
0	19272	4644.685031485743	1
0	19273	4645.309011039717	0
0	19309	4652.583987230894	1
0	19310	4652.972646012345	0
0	19335	4661.581595206436	1
0	19337	4661.944521759385	2
0	19339	4662.199810033599	3
0	19340	4662.259372173574	2
0	19346	4663.29148144465	1
0	19352	4664.315154851807	2
0	19353	4665.627421421919	1
0	19358	4665.794195778584	0
0	19372	4668.069817597333	1
0	19375	4669.313705473343	0
0	19395	4671.254697988796	1
0	19397	4671.840822510864	0
0	19404	4672.880430857142	1
0	19407	4673.16913190643	2
0	19409	4674.431310020608	1
0	19417	4675.556139553258	0
0	19436	4677.051238324623	1
0	19437	4677.771028788064	0
0	19452	4682.801961182383	1
0	19459	4684.99962185883	2
0	19461	4685.301164888311	3
0	19463	4685.460964777537	4
0	19464	4686.364137335447	3
0	19473	4687.779023173495	4
0	19474	4689.152946783425	3
0	19479	4690.166133332527	2
0	19484	4690.632175104822	1
0	19490	4691.832340954327	0
0	19587	4721.921843955688	1
0	19589	4723.231079813432	2
0	19590	4723.769602654175	1
0	19595	4725.468384213201	0
0	19611	4727.322082612303	1
0	19612	4727.634593404941	0
0	19618	4727.859244096471	1
0	19620	4728.571268149419	2
0	19621	4728.659108147001	1
0	19629	4728.994624070156	2
0	19630	4729.305328964649	1
0	19636	4729.362240105063	2
0	19638	4730.501373541071	1
0	19643	4732.717117857112	0
0	19662	4736.1940173972	1
0	19664	4739.618854574422	2
0	19666	4739.863000787973	3
0	19667	4740.931350809637	2
0	19672	4741.875408395425	1
0	19679	4743.737119095563	0
0	19700	4747.764052858672	1
0	19701	4748.666710659707	0
0	19714	4751.436081023305	1
0	19716	4752.703617135176	0
0	19737	4757.452473002908	1
0	19748	4760.320137836872	0
0	19768	4765.878187476091	1
0	19771	4767.357466883951	0
0	19790	4772.281031310668	1
0	19791	4772.361316062853	0
0	19797	4772.983063360204	1
0	19798	4773.084063860346	0
0	19820	4778.225871287546	1
0	19827	4781.17955124759	0
0	19833	4781.394596299124	1
0	19834	4781.53201248156	0
0	19859	4786.575032218478	1
0	19864	4788.260792213488	2
0	19868	4789.688415901199	1
0	19873	4789.779078430576	0
0	19885	4792.278774421622	1
0	19892	4794.764149055334	0
0	19908	4798.046634111449	1
0	19909	4798.268210935402	0
0	19917	4799.859239278475	1
0	19919	4800.531072617273	0
0	19934	4801.185021782529	1
0	19939	4802.075554548917	0
0	19954	4803.4897233599	1
0	19961	4806.685194412285	0
0	19978	4808.137889024157	1
0	19979	4808.239505340981	0
0	19986	4808.946102600008	1
0	19987	4810.622452100581	0
0	20048	4832.035198843218	1
0	20050	4833.48327617764	0
0	20092	4848.1347314328	1
0	20093	4848.280158493301	0
0	20099	4848.564340441798	1
0	20100	4849.087811180354	0
0	20132	4854.994913696994	1
0	20133	4855.489736030774	0
0	20149	4857.87972287071	1
0	20151	4858.34058810608	2
0	20154	4859.586352051662	1
0	20159	4860.775238652038	0
0	20167	4861.007095254614	1
0	20172	4861.275211244874	0
0	20224	4869.188137824948	1
0	20226	4869.311636236549	2
0	20227	4869.603952692462	1
0	20232	4870.298271446695	0
0	20307	4895.860405722304	1
0	20309	4896.838903688707	2
0	20310	4896.93483594849	1
0	20315	4896.991024860012	0
0	20353	4910.630928956566	1
0	20354	4911.115878499402	0
0	20360	4911.611241403882	1
0	20361	4911.718802243293	0
0	20394	4925.791871580059	1
0	20395	4926.609350094585	0
0	20401	4927.579844868156	1
0	20404	4928.759170366822	0
0	20410	4929.065010861225	1
0	20411	4930.317814924494	0
0	20433	4936.427017591013	1
0	20435	4936.556284293092	2
0	20436	4936.678667470777	1
0	20441	4936.905638366986	0
0	20452	4937.912105686962	1
0	20455	4939.586986360292	0
0	20459	4940.34456259011	1
0	20463	4941.260365703634	0
0	20481	4944.23574330269	1
0	20482	4947.681700260201	0
0	20497	4953.145748835679	1
0	20498	4953.19434993574	0
0	20511	4953.799960748996	1
0	20514	4954.712184388277	2
0	20518	4957.352950029082	1
0	20523	4958.738232662034	0
0	20530	4959.858405283644	1
0	20533	4961.488683043164	0
0	20548	4962.8922826397	1
0	20549	4963.132822145759	0
0	20580	4966.583224878375	1
0	20581	4967.193757905953	0
0	20587	4967.194549449744	1
0	20589	4967.749702736905	0
0	20595	4968.027173884095	1
0	20596	4968.602334580595	0
0	20603	4969.296789910775	1
0	20605	4969.503761806948	2
0	20610	4970.604333653007	3
0	20612	4970.79720497488	4
0	20613	4971.217976190381	3
0	20618	4971.451621534055	2
0	20624	4971.713943310064	1
0	20631	4972.476674882343	0
0	20638	4972.754501330726	1
0	20639	4972.78087772443	0
0	20643	4972.888175338695	1
0	20645	4972.945516771633	2
0	20648	4973.106221704644	1
0	20656	4973.88258079148	0
0	20675	4976.167682524465	1
0	20679	4977.094529594977	2
0	20680	4977.539170450898	1
0	20685	4977.542793250719	0
0	20717	4983.521209008148	1
0	20720	4983.869409029063	2
0	20721	4983.904326399373	1
0	20728	4984.254480600426	0
0	20734	4984.411422330552	1
0	20735	4984.493635368173	0
0	20763	4989.711375848893	1
0	20764	4989.955435566628	0
0	20770	4990.059692054677	1
0	20772	4990.519176630939	0
0	20778	4990.671380012939	1
0	20781	4992.696900757573	0
0	20812	5002.495682851379	1
0	20813	5003.865933868573	0
0	20822	5005.670825067589	1
0	20823	5006.529643070139	0
0	20834	5007.754100902838	1
0	20836	5007.866476178938	2
0	20840	5009.485028109868	3
0	20841	5011.504765379937	2
0	20847	5012.031364838385	3
0	20848	5012.351534577549	2
0	20854	5012.865843590434	1
0	20860	5013.101711785273	2
0	20863	5013.936712541008	3
0	20865	5014.434856067988	2
0	20870	5014.797520611433	1
0	20875	5016.661534709223	0
0	20884	5018.403240309788	1
0	20885	5019.066788641527	0
0	20892	5019.577232701154	1
0	20894	5019.730369817283	0
0	20907	5022.705068403289	1
0	20910	5025.039759312357	0
0	20924	5027.007087072942	1
0	20925	5027.612965601029	0
0	21029	5063.304726461652	1
0	21031	5065.311215499495	2
0	21034	5067.607774390599	1
0	21039	5067.815346895994	0
0	21095	5080.866662089404	1
0	21096	5080.995199106737	0
0	21102	5081.275924268486	1
0	21103	5081.729734572874	0
0	21136	5086.712730319978	1
0	21139	5087.699400267345	0
0	21154	5088.987763673295	1
0	21156	5089.857292164903	0
0	21206	5101.752907044325	1
0	21208	5101.867657455534	2
0	21211	5102.991584259449	3
0	21212	5103.016698699689	2
0	21224	5104.197454825971	3
0	21227	5105.350643571864	2
0	21232	5105.491283233349	1
0	21238	5105.715725684116	2
0	21239	5106.179990122317	1
0	21251	5108.962806193832	0
0	21277	5113.633339821598	1
0	21280	5115.288532141657	0
0	21321	5124.954432179545	1
0	21327	5128.003456668585	0
0	21346	5130.778998327267	1
0	21348	5131.198941890794	0
0	21360	5133.632881734212	1
0	21366	5137.186249968477	0
0	21378	5138.146450524622	1
0	21380	5139.161562359853	2
0	21381	5139.773522521357	1
0	21388	5140.484539489027	2
0	21389	5140.59919719848	1
0	21394	5140.649960405485	0
0	21417	5143.199854989678	1
0	21420	5143.505385651107	2
0	21423	5145.439751158399	1
0	21428	5145.751153092595	0
0	21434	5146.562553889671	1
0	21435	5146.81569664809	0
0	21463	5153.359419540681	1
0	21467	5154.846950929558	2
0	21468	5155.167974541283	1
0	21473	5155.325420939402	0
0	21479	5155.410907392116	1
0	21481	5156.708744042923	0
0	21488	5156.988034870789	1
0	21489	5157.03288328913	0
0	21497	5158.196804703484	1
0	21498	5158.431547072183	0
0	21528	5171.927184366307	1
0	21532	5174.559454217092	2
0	21533	5174.752782568993	1
0	21544	5177.909794902407	0
0	21595	5188.202274329841	1
0	21596	5188.335040912544	0
0	21602	5188.621400386396	1
0	21604	5189.185985335582	0
0	21610	5190.940621323891	1
0	21612	5192.822017317261	2
0	21613	5193.02564374678	1
0	21622	5195.536801160949	2
0	21626	5196.120251736974	3
0	21627	5196.879276463748	2
0	21632	5197.189941063099	1
0	21638	5197.211877298686	2
0	21640	5197.812979046036	3
0	21641	5199.337885542616	2
0	21647	5199.650508492769	3
0	21648	5199.718950193846	2
0	21652	5199.921788453136	3
0	21655	5201.264032255339	2
0	21659	5201.482058801526	3
0	21664	5202.403198480329	2
0	21671	5203.71725979979	1
0	21679	5204.623439060171	0
0	21692	5206.065087215414	1
0	21693	5206.21573689935	0
0	21718	5210.592329282623	1
0	21720	5210.957852689374	2
0	21725	5213.157103070074	1
0	21730	5213.31509152813	0
0	21745	5215.713270382578	1
0	21746	5216.562017473913	0
0	21780	5226.491189432873	1
0	21781	5226.902700008477	0
0	21843	5253.486303267572	1
0	21844	5253.549756099337	0
0	21850	5255.144364944574	1
0	21851	5255.185670758299	0
0	21867	5258.2735221454	1
0	21869	5263.853522811681	0
0	21884	5267.040104530755	1
0	21885	5268.088367357643	0
0	21938	5288.536856290968	1
0	21939	5290.607744208399	0
0	21945	5291.365875450433	1
0	21947	5291.448013358926	2
0	21949	5291.694532062754	3
0	21950	5292.046291653471	2
0	21957	5293.000459091535	3
0	21958	5293.193587723969	2
0	21963	5293.635385346517	1
0	21969	5294.583600623309	0
0	21980	5297.226015844988	1
0	21982	5298.362510452909	2
0	21986	5298.847101905347	3
0	21992	5300.181006325864	2
0	21997	5302.432183639327	1
0	22003	5306.093815797305	0
0	22024	5310.889448126325	1
0	22025	5310.987030402284	0
0	22033	5313.137422483952	1
0	22035	5314.33485832204	0
0	22097	5327.515311049564	1
0	22100	5329.178081231161	0
0	22128	5335.953336746665	1
0	22130	5336.368321807515	0
0	22161	5343.501213270492	1
0	22163	5343.608137882689	2
0	22164	5343.907865162003	1
0	22170	5345.613546985207	0
0	22186	5347.717928127366	1
0	22189	5349.008870324501	0
0	22215	5354.41555576354	1
0	22217	5355.957326182969	2
0	22218	5356.138635395162	1
0	22223	5356.272922927927	0
0	22235	5357.266926982138	1
0	22236	5357.807591151168	0
0	22249	5359.663096172754	1
0	22250	5359.806967768267	0
0	22260	5361.485436308379	1
0	22261	5362.111267240367	0
0	22284	5364.117654399158	1
0	22287	5364.252304647144	0
0	22312	5368.718826592792	1
0	22314	5369.772928629532	0
0	22346	5389.054946658641	1
0	22351	5389.510678603345	2
0	22353	5389.635505115186	1
0	22358	5390.294408032071	0
0	22376	5392.378631040055	1
0	22380	5392.49762250252	2
0	22382	5394.362049976733	1
0	22388	5395.102340384831	2
0	22391	5395.779874286733	1
0	22404	5399.114765153781	2
0	22406	5399.338412562685	3
0	22407	5399.726556131791	2
0	22413	5400.047601912196	1
0	22418	5400.327067983619	0
0	22440	5401.249655902808	1
0	22444	5403.223987968516	2
0	22445	5403.228080775984	1
0	22450	5403.318008200158	0
0	22466	5406.844824221202	1
0	22467	5407.750839134633	0
0	22473	5408.402182188177	1
0	22476	5411.002988530668	2
0	22477	5412.073967047064	1
0	22483	5413.018617996612	0
0	22489	5413.200370442316	1
0	22490	5413.504584532738	0
0	22530	5425.976102972282	1
0	22532	5426.286730516693	2
0	22534	5427.903974780093	3
0	22535	5429.012194167112	2
0	22544	5431.750073974727	1
0	22554	5432.742890681768	0
0	22564	5434.407290655551	1
0	22565	5435.006049688046	0
0	22577	5436.757115979161	1
0	22578	5437.922051616375	0
0	22596	5439.988188091133	1
0	22597	5441.420515918654	0
0	22617	5444.117613150848	1
0	22618	5444.161497365179	0
0	22639	5449.529689206955	1
0	22641	5451.455272792057	0
0	22656	5454.271238607716	1
0	22657	5454.442442592731	0
0	22680	5459.400552856615	1
0	22682	5460.014000137809	0
0	22702	5468.40270605289	1
0	22703	5468.822065564526	0
0	22710	5469.825456708083	1
0	22712	5470.118098554836	2
0	22713	5470.644603639761	1
0	22720	5471.445545463434	2
0	22722	5473.602477383208	1
0	22728	5474.08262343587	0
0	22744	5477.163930576869	1
0	22746	5477.296798531802	2
0	22747	5477.607354705021	1
0	22753	5477.729950753406	2
0	22754	5478.66006804093	1
0	22759	5479.257679883607	0
0	22794	5487.269842027303	1
0	22796	5487.866365735662	2
0	22800	5488.526261045074	3
0	22802	5488.948618949861	4
0	22803	5490.993526863307	3
0	22809	5491.600607913496	2
0	22814	5492.037419957119	1
0	22820	5492.73123493489	2
0	22821	5492.776619401987	1
0	22828	5493.706196420087	0
0	22846	5494.703385629547	1
0	22847	5495.135585537173	0
0	22860	5497.462822982875	1
0	22862	5498.500625463921	2
0	22865	5501.181171229228	1
0	22873	5503.501960908654	0
0	22901	5506.759512553237	1
0	22902	5507.807763441241	0
0	22909	5508.271212064835	1
0	22916	5510.29080681241	0
0	22923	5511.255605079238	1
0	22926	5511.781756932384	0
0	22943	5513.308940943537	1
0	22949	5514.532557809453	2
0	22950	5515.353187621143	1
0	22957	5518.444529112541	0
0	22966	5519.918724433491	1
0	22969	5521.745302613551	0
0	22975	5522.332164232433	1
0	22978	5523.195381109582	0
0	22991	5523.749501874756	1
0	22992	5524.338072818727	0
0	22999	5524.567216532029	1
0	23001	5524.650945652301	2
0	23002	5524.750736160873	1
0	23011	5526.395696855423	0
0	23039	5531.538149459032	1
0	23041	5532.787240920034	2
0	23043	5533.287091345122	3
0	23044	5533.874596377255	2
0	23050	5534.450663491753	3
0	23051	5535.910424057982	2
0	23059	5537.287102933587	1
0	23065	5537.611848454731	2
0	23067	5538.126964387388	3
0	23070	5538.296631548246	2
0	23075	5538.350313180357	1
0	23080	5538.902615999532	0
0	23097	5545.760139044249	1
0	23098	5546.338857127151	0
0	23157	5569.388674232367	1
0	23158	5569.619837705305	0
0	23170	5575.649337832263	1
0	23172	5575.96876249171	2
0	23174	5576.799414183636	3
0	23180	5577.502271663483	4
0	23181	5578.760518691159	3
0	23186	5579.175921928078	2
0	23193	5579.50201865251	1
0	23201	5580.575116287824	2
0	23202	5580.814765822073	1
0	23207	5581.106383303055	0
0	23230	5589.053256321422	1
0	23232	5589.424393407622	2
0	23240	5591.884525137871	3
0	23244	5592.012917684002	4
0	23245	5592.231603724635	3
0	23250	5592.546873659284	2
0	23259	5594.155482275426	3
0	23262	5594.766051651404	4
0	23263	5594.966623806997	3
0	23270	5596.217575726426	2
0	23276	5596.968124707015	1
0	23282	5597.088383234347	0
0	23308	5605.647769202552	1
0	23311	5608.031918177156	2
0	23312	5608.163510644914	1
0	23317	5608.168185619457	0
0	23363	5637.603118788637	1
0	23366	5638.309868279972	2
0	23368	5638.583001549227	3
0	23370	5638.690792664952	4
0	23371	5638.768142887305	3
0	23376	5638.834489844286	2
0	23384	5641.463390585414	1
0	23390	5641.633413073331	2
0	23392	5642.887282995773	1
0	23400	5647.631208950568	2
0	23401	5647.973755739024	1
0	23406	5648.18869488642	0
0	23412	5648.630655477515	1
0	23413	5649.332061790784	0
0	23430	5653.070622777192	1
0	23432	5653.723558906723	0
0	23451	5659.924747298056	1
0	23452	5660.413139434958	0
0	23477	5667.871678460041	1
0	23478	5668.590315276752	0
0	23565	5692.479851229546	1
0	23567	5694.694076500372	0
0	23575	5695.503885429622	1
0	23577	5695.689191451507	2
0	23579	5695.784725388685	3
0	23581	5696.144176604823	4
0	23582	5696.712682265524	3
0	23594	5697.847511956462	2
0	23600	5697.926686572114	3
0	23602	5698.111487435157	2
0	23607	5698.223631974505	1
0	23612	5698.702594327714	0
0	23618	5700.293500281195	1
0	23619	5700.439531818981	0
0	23623	5701.827777704793	1
0	23628	5704.624203396258	0
0	23640	5705.681119798228	1
0	23641	5706.133680470363	0
0	23668	5709.388867648146	1
0	23671	5709.925139930449	0
0	23707	5736.411033142139	1
0	23711	5737.509452664672	2
0	23713	5737.566791525259	3
0	23714	5737.988670859957	2
0	23719	5738.475203789727	1
0	23727	5739.214411167489	0
0	23780	5756.35861169068	1
0	23782	5757.108129459625	2
0	23783	5757.415982922662	1
0	23789	5758.606141485826	0
0	23798	5761.846128226369	1
0	23799	5761.919585068326	0
0	23809	5762.640004308321	1
0	23811	5763.566286722571	2
0	23812	5763.882262536492	1
0	23817	5764.727464587617	0
0	23833	5768.652940420676	1
0	23834	5770.044741265886	0
0	23848	5771.419450159581	1
0	23851	5771.6490117439	2
0	23853	5772.01491145092	3
0	23855	5773.189077567312	4
0	23858	5774.746697839855	5
0	23859	5776.25794224429	4
0	23865	5776.955855113134	3
0	23870	5777.912068134001	2
0	23875	5778.284494015804	1
0	23880	5778.300280829267	0
0	23898	5782.702533734059	1
0	23902	5783.678802814416	0
0	23916	5786.321970405875	1
0	23918	5786.912964375118	2
0	23921	5787.779615606992	1
0	23926	5788.184491673747	0
0	23932	5789.589477441005	1
0	23933	5790.074365905899	0
0	23949	5795.474374095511	1
0	23950	5795.934116784928	0
0	23954	5796.314948891487	1
0	23956	5800.233137428776	2
0	23961	5800.993542674225	3
0	23963	5801.587338724133	2
0	23969	5801.633749494616	1
0	23975	5802.556898029874	2
0	23976	5802.718788208859	1
0	23982	5803.600385548452	0
0	24000	5807.299141965675	1
0	24001	5807.323463466241	0
0	24005	5807.930777471903	1
0	24007	5808.206976579987	2
0	24012	5810.533584866768	1
0	24017	5810.563455042492	0
0	24043	5817.337076137605	1
0	24044	5818.164425606915	0
0	24055	5819.391736300559	1
0	24056	5819.577501083594	0
0	24099	5832.935605117499	1
0	24100	5835.822531866909	0
0	24178	5851.844589472959	1
0	24179	5852.238026776689	0
0	24185	5852.538435331874	1
0	24186	5854.7253085505	0
0	24200	5856.693765199154	1
0	24201	5856.935788875187	0
0	24207	5857.53980875909	1
0	24208	5857.919386409472	0
0	24212	5858.091260334718	1
0	24214	5858.305042670321	2
0	24216	5858.531153559996	3
0	24218	5858.916603311112	4
0	24223	5864.307173916212	3
0	24228	5864.50500736077	2
0	24235	5864.865576032878	3
0	24237	5865.279776406772	4
0	24240	5865.36390282651	5
0	24242	5866.557394097779	4
0	24249	5866.970028072041	3
0	24258	5867.876649585086	2
0	24263	5867.99505676094	1
0	24268	5868.870652902342	0
0	24276	5869.89912382801	1
0	24277	5869.949964437142	0
0	24315	5884.491819608699	1
0	24316	5884.881957151726	0
0	24346	5889.625175740385	1
0	24350	5892.924573547899	2
0	24351	5894.61175882051	1
0	24358	5895.994837618974	2
0	24361	5896.465094616503	3
0	24362	5897.181721875614	2
0	24368	5897.439448305727	3
0	24371	5898.000000457685	4
0	24373	5898.67218014618	5
0	24374	5899.53850774523	4
0	24382	5901.096368691967	3
0	24388	5903.202693324455	2
0	24393	5903.209976155741	1
0	24398	5903.810988869538	0
0	24429	5908.209172026358	1
0	24432	5908.950469346809	2
0	24434	5909.251045073588	1
0	24440	5910.060409564758	2
0	24446	5912.799558273818	1
0	24452	5913.162916784616	0
0	24459	5915.325162171661	1
0	24463	5917.200982150618	2
0	24465	5919.434590292306	3
0	24467	5920.954817219872	4
0	24469	5921.772697917599	5
0	24470	5922.224859410697	4
0	24475	5922.372766934981	3
0	24480	5923.185563000243	2
0	24487	5925.136804108966	1
0	24492	5925.505684722925	0
0	24522	5929.740037395464	1
0	24523	5929.788767319701	0
0	24530	5930.787189147342	1
0	24531	5931.421792829229	0
0	24537	5931.791417056768	1
0	24541	5933.565329156984	2
0	24542	5933.952289538241	1
0	24547	5934.543109199789	0
0	24558	5935.057532671129	1
0	24559	5935.175049661434	0
0	24565	5935.200667939523	1
0	24566	5935.921961011849	0
0	24578	5938.450271153585	1
0	24581	5939.034320885397	0
0	24596	5941.660988770428	1
0	24600	5942.400442466248	2
0	24604	5942.914130812678	3
0	24605	5943.16065142554	2
0	24610	5943.329409581469	1
0	24615	5943.362883062984	0
0	24671	5956.147305259101	1
0	24674	5958.479125861947	0
0	24734	5976.013770662317	1
0	24736	5976.418547632319	0
0	24772	5992.759353979885	1
0	24773	5992.849307562945	0
0	24794	5995.647076562085	1
0	24797	5996.593550914025	0
0	24806	5999.437757783624	1
0	24808	6000.065930035609	2
0	24810	6000.460084811245	3
0	24814	6001.082033313051	4
0	24816	6001.140311501709	5
0	24820	6002.567162706828	6
0	24822	6002.697706512751	7
0	24825	6002.835040629766	8
0	24826	6002.867894790689	7
0	24831	6003.435664662311	6
0	24836	6003.867039755539	5
0	24841	6003.905181092833	4
0	24847	6005.136599214195	5
0	24849	6005.369375068537	4
0	24853	6005.384696417935	5
0	24856	6005.911998213235	4
0	24861	6006.516715717257	3
0	24865	6006.779479846707	4
0	24869	6007.550377336302	3
0	24874	6007.573976578234	2
0	24880	6008.09080722638	3
0	24882	6008.669164921886	4
0	24884	6009.136914284937	5
0	24892	6011.808385678172	6
0	24894	6012.792700706001	7
0	24895	6013.130573619801	6
0	24901	6013.525331113816	5
0	24906	6013.559706966338	4
0	24910	6013.711962066763	5
0	24914	6015.509377731371	6
0	24917	6018.159810924417	5
0	24923	6020.077474380341	4
0	24931	6021.703503915623	3
0	24937	6022.112275699514	4
0	24938	6022.183636954568	3
0	24943	6022.199871898509	2
0	24948	6023.25992954199	1
0	24954	6023.972288023786	2
0	24956	6024.856174730629	1
0	24961	6025.288775016574	0
0	24982	6029.84694274074	1
0	24986	6032.513440876415	2
0	24988	6033.319626083499	1
0	24993	6034.445557506744	0
0	24999	6034.585272067247	1
0	25002	6035.925873525212	0
0	25016	6038.108483293592	1
0	25018	6038.729172093739	2
0	25020	6040.319060841728	1
0	25025	6040.699181688755	0
0	25066	6047.707526534158	1
0	25067	6047.825459386565	0
0	25075	6049.452470621844	1
0	25077	6052.424018632932	2
0	25081	6053.400452805319	3
0	25083	6055.32690351455	4
0	25084	6056.209737134804	3
0	25089	6056.50638527912	2
0	25096	6057.433821843605	3
0	25100	6058.579857516916	2
0	25108	6060.531801679885	3
0	25110	6061.061870687281	4
0	25112	6061.417060511299	5
0	25113	6063.687121780667	4
0	25120	6064.241765974576	3
0	25128	6066.064095441303	2
0	25133	6066.42961151089	1
0	25139	6066.684582689766	2
0	25146	6067.82101536089	3
0	25148	6068.029184051659	4
0	25150	6069.073803007289	3
0	25156	6070.168678434295	4
0	25158	6070.293746291147	5
0	25162	6070.447857487139	6
0	25164	6070.693387156862	5
0	25169	6071.193326091402	4
0	25176	6072.146349345598	3
0	25183	6073.077890274173	2
0	25188	6075.757780419961	1
0	25195	6077.178921222213	2
0	25196	6077.388813605371	1
0	25207	6078.691233001155	0
0	25228	6080.848156527769	1
0	25229	6082.751023309849	0
0	25258	6088.760442938851	1
0	25260	6089.031884499841	2
0	25265	6091.253975376446	3
[...]
5	118793	28625.433136424604	6.669494790077
5	118798	28627.460833567868	7.414492807357
5	118811	28633.118546992663	11.843272545869
5	118819	28634.439123734239	10.641433532692
5	118824	28634.546717681705	9.318801490843
5	118837	28637.580554684644	4.951259076525
5	118844	28638.535521260259	3.938691764462
5	118851	28641.564920675904	5.580382225247
5	118856	28642.750908160718	6.211015148745
5	118863	28643.927794441381	6.763667543398
5	118881	28647.178990717337	1.221486386651
5	118896	28648.80860338611	1.400316647827
5	118928	28655.396261562597	4.891428346774
5	118939	28658.536331277397	6.031273380734
5	118944	28659.108499885861	2.960046124061
5	118951	28660.216736968864	3.382928502042
5	118984	28663.134239251447	1.172634088775
5	118989	28663.529580097956	1.043426922621
5	119053	28675.894514591546	2.981706861835
5	119070	28680.357687980267	3.94996173505
5	119076	28680.808466659752	2.87797051937
5	119096	28687.290775797326	2.909993839488
5	119116	28692.219715496023	3.726181995515
5	119122	28692.972808999011	3.66614862835
5	119127	28693.483127893548	1.776490501704
5	119154	28701.475840549825	5.66367602109
5	119159	28702.740394082252	2.644535486592
5	119165	28703.716321841328	2.637449769575
5	119196	28714.508394246794	0.462977422249
5	119226	28719.759957355099	2.198730049469
5	119234	28721.149304497965	3.548839017213
5	119239	28721.573257425949	1.369485973297
5	119259	28726.993856769266	0.292000678627
5	119280	28731.37463352687	1.695388609726
5	119298	28737.391722586923	1.905418768749
5	119323	28741.199023109153	3.3861507127
5	119330	28742.142507514722	3.679472862984
5	119335	28742.583334906059	4.110294796448
5	119344	28744.635755962233	5.694878907271
5	119352	28745.575959848291	5.007089731623
5	119361	28747.233153281587	5.461203267899
5	119367	28748.125666060164	5.050975672269
5	119377	28751.484956156244	6.30346810345
5	119383	28752.681673217887	6.625245696813
5	119388	28753.412170649382	1.934502786742
5	119401	28754.949975270988	1.009322148082
5	119418	28757.5674014318	0.610185989177
5	119422	28757.693261239961	0.46343913883
5	119429	28758.398835728461	0.151838414738
5	119447	28763.263346347026	0.305979916584
5	119459	28774.147499422781	2.241804691371
5	119463	28774.642185251464	1.106847808581
5	119470	28776.065260863272	0.114657282364
5	119477	28776.267500612084	0.061686394985
5	119495	28780.872058127583	1.191260840173
5	119503	28781.744803526704	0.583982021192
5	119510	28787.856504123654	0.414337300985
5	119522	28792.737072752673	2.270622369435
5	119527	28793.141426183512	2.113567456975
5	119539	28797.103713923887	1.58500820699
5	119544	28797.576396227296	0.9135172323
5	119570	28803.845012498666	2.222805422409
5	119582	28805.880215504164	0.33579942965
5	119596	28809.215005321267	1.701664112985
5	119608	28821.865791784093	0.917842350232
5	119626	28827.583385687068	4.364501405943
5	119646	28834.128795219799	5.096386420359
5	119660	28837.347278668758	0.198538633221
5	119678	28839.551845991058	1.215368205926
5	119701	28846.887322686398	6.662249848627
5	119709	28847.976250785549	7.382466682281
5	119714	28847.987480067366	3.79024414431
5	119721	28850.063938211144	3.164109822138
5	119734	28855.013583100707	0.432680289888
5	119761	28859.170949492708	1.742367383536
5	119768	28859.673209498437	1.369047341922
5	119779	28861.122386761453	2.076497670384
5	119784	28861.446822677412	2.250078818568
5	119789	28861.708971388569	1.414749951188
5	119816	28866.360375238488	1.075995237406
5	119835	28873.483051192747	1.724803500558
5	119844	28879.105924237958	0.729431240928
5	119856	28882.372266683051	2.926592677221
5	119862	28883.718704139061	2.525535163217
5	119887	28900.675273982966	0.758982611094
5	119894	28902.003338584433	1.241526608227
5	119903	28904.182129902667	1.024794974091
5	119911	28906.612369512409	0.243993088314
5	119922	28910.603466499857	1.052271551559
5	119938	28911.957779509019	0.906634293545
5	119943	28912.268523311791	1.066180426967
5	119974	28917.934520947517	0.122061038857
5	119983	28920.885382667264	1.48693700125
5	119997	28923.101290154297	0.375177112575
5	120013	28925.880702831209	0.267820553756
5	120046	28938.27446879502	5.662866204137
5	120051	28938.504676351834	5.414467269683
5	120056	28938.904097514296	4.797121525331
5	120064	28939.809067833975	4.335815689881
5	120070	28941.120917299738	1.885225738414
5	120081	28943.4564201583	0.333818294139
5	120093	28949.271930764406	0.536994539742
5	120102	28951.790758909386	0.016353520388
5	120115	28954.769126044462	1.111155831331
5	120120	28957.172189619094	3.077567825092
5	120124	28957.17786745787	2.696114513824
5	120135	28958.725474126471	0.577089479138
5	120143	28959.153753062549	0.832213704113
5	120158	28964.585016922965	1.344663337666
5	120167	28967.309247136664	1.111649298312
5	120174	28968.874211925406	1.361661045198
5	120197	28973.316983804349	1.845463378036
5	120204	28974.305463287307	0.540578194253
5	120214	28977.068829206147	2.162676702432
5	120218	28977.409083237301	0.996304795606
5	120227	28982.000676164448	0.056653759241
5	120249	28992.673618548534	4.869127096448
5	120255	28993.338283437889	1.853821424857
5	120296	29004.824523400979	2.21086040694
5	120307	29007.482278382492	2.304019163653
5	120315	29010.826442888369	0.0036368594
5	120328	29013.613386505822	1.11678939523
5	120340	29015.54187932346	2.641491332167
5	120350	29017.079337621146	3.344330120237
5	120356	29017.670673701939	3.933682677729
5	120428	29038.514638253969	3.252263848964
5	120435	29039.053056915199	2.493877940895
5	120444	29040.956881193711	3.926946544501
5	120450	29041.129086523422	2.256580205687
5	120455	29041.180821531348	1.196742421912
5	120471	29043.805658585289	1.426079261637
5	120479	29047.495926266229	2.241055076604
5	120498	29052.998438658626	2.83051753354
5	120503	29053.447035200799	1.511556516779
5	120509	29053.577021890288	0.800126408714
5	120523	29054.394695910268	0.319772764669
5	120528	29055.642928814997	1.339825359614
5	120553	29060.041972586399	3.973025598148
5	120558	29061.999520739828	5.013695886303
5	120576	29066.129821717095	3.928439681124
5	120581	29066.236539286999	3.335863654728
5	120589	29066.984865236788	3.141206161511
5	120595	29067.498852168598	0.525631393882
5	120612	29073.004762149637	0.946978407435
5	120617	29073.28403130381	0.38879056505
5	120630	29074.997672083388	2.000445513094
5	120644	29076.936453141756	3.615424743726
5	120649	29077.319474883296	2.474031082941
5	120654	29077.938037420472	2.209379354492
5	120682	29084.791802073861	4.103976793086
5	120689	29085.310943698544	4.416805047649
5	120699	29087.154906967756	5.288135127469
5	120705	29089.991764497196	8.006273445052
5	120710	29090.202223418022	4.603212580209
5	120721	29092.838099353122	6.353579781471
5	120729	29093.681104007564	2.734659521535
5	120734	29093.973956120474	0.90162975118
5	120746	29097.532024601274	3.550183972226
5	120755	29100.130834326321	0.494547268397
5	120766	29101.414441126876	0.380834279472
5	120786	29106.937787167255	1.049362376043
5	120832	29115.935302559774	0.737194377347
5	120852	29123.414410288237	1.357058204068
5	120870	29131.993584023483	1.200999315517
5	120875	29132.20301228707	0.412870188994
5	120886	29137.738003025025	0.188634088262
5	120910	29142.284744600031	3.507903065222
5	120916	29143.112443675054	3.846957360462
5	120925	29144.410089092323	4.672669735295
5	120935	29144.719521509164	3.210072879346
5	120941	29145.230338616009	0.920862868869
5	120948	29146.958263924205	2.543341210061
5	120960	29148.855608379937	4.222441135761
5	120965	29149.027387570552	1.65528774902
5	120972	29153.011772774732	4.771321534279
5	120990	29156.782205857181	2.764622103895
5	120998	29159.278125709641	3.517976505519
5	121018	29162.40281968256	2.95611466007
5	121024	29162.935971548857	1.865544825627
5	121047	29167.705820539508	3.912123572398
5	121071	29176.42810065018	5.585900010494
5	121081	29178.820083291522	7.115134372129
5	121104	29193.440021641432	12.133317985461
5	121111	29195.785156719059	9.604872932676
5	121131	29201.682828793223	5.294589412905
5	121138	29202.483073048188	0.981250738074
5	121143	29202.906552595826	1.365100248886
5	121153	29203.55634649267	1.312557241709
5	121159	29203.858531040905	0.581798179781
5	121166	29204.865574767033	1.547868214794
5	121195	29213.754343845693	5.668390165554
5	121200	29214.041430819484	5.83959457435
5	121205	29214.169147260957	5.846807739465
5	121214	29215.327741924546	3.702188098766
5	121222	29220.180623500091	5.623277343279
5	121229	29221.021067985482	2.662326480956
5	121250	29226.151836898386	4.858185834555
5	121255	29227.207019191937	5.539608862589
5	121263	29229.177254436814	4.675180718203
5	121268	29229.415278805747	1.39478877996
5	121291	29230.984981242408	0.232436969996
5	121305	29233.699232648866	2.219626706238
5	121313	29235.278111639795	0.518429546157
5	121324	29237.169019116784	1.860018578839
5	121338	29241.70234397143	2.465075132184
5	121354	29249.930503458371	2.665968183067
5	121388	29263.321217431497	4.98128247405
5	121393	29263.770287757245	3.041378488284
5	121404	29265.885039577795	4.555377446578
5	121410	29267.160037502824	5.757446145465
5	121418	29270.170068865535	7.915576740272
5	121423	29270.367464513709	5.87943001497
5	121433	29274.066256662372	8.557333128517
5	121438	29274.317716798953	6.872363920359
5	121457	29280.963855782085	5.474405316522
5	121462	29281.500828444411	2.214090622854
5	121467	29282.178015083977	2.249798549023
5	121515	29296.175648848409	0.960229135494
5	121523	29298.242861805863	0.414224401597
5	121536	29299.17599095594	0.733595441582
5	121541	29299.540731693854	1.009565028661
5	121553	29300.767007330291	2.12383396285
5	121564	29302.462144905974	2.003018923052
5	121570	29303.33432956224	0.944156149746
5	121582	29307.645717908566	0.310042519549
5	121604	29314.188757570387	2.983295430774
5	121615	29315.758038012033	1.184912389943
5	121627	29316.318518479431	0.376423951768
5	121635	29317.296297230733	0.427740236053
5	121653	29320.900010381207	2.464464375435
5	121658	29322.359053803418	2.651849505324
5	121662	29322.565150501916	2.359753294044
5	121680	29324.852990378308	2.062049540216
5	121684	29325.37078580594	0.85207752776
5	121695	29331.236061548692	3.682027901866
5	121699	29331.443683790326	1.287615328746
5	121730	29341.633502290295	2.232259224897
5	121747	29343.034740327328	0.756184141782
5	121767	29346.171850055821	2.15017865762
5	121777	29348.948597990106	3.892563628331
5	121801	29357.009568621292	7.978972613103
5	121807	29358.577391677862	8.888302840931
5	121813	29358.837445469457	5.600381176681
5	121819	29359.475553275863	4.957390097683
5	121838	29363.557048772541	1.524138011976
5	121860	29369.134158216553	1.881941928449
5	121876	29372.711953192844	0.943923296698
5	121893	29376.706104407084	1.819548247468
5	121898	29377.721006690133	1.040992063527
5	121914	29380.640694745545	2.468148677263
5	121920	29382.627602202311	2.443046444261
5	121935	29386.650992007163	0.925870914889
5	121959	29391.536656769868	3.533964120652
5	121968	29392.720450534336	4.375464066696
5	121973	29392.796834015218	4.415333769769
5	121979	29393.338033765115	2.188934907394
5	121993	29393.746413756465	0.232857147432
5	122014	29399.910556824267	4.419143504601
5	122038	29403.384946133267	3.174847602068
5	122049	29405.90812371581	5.385862012829
5	122055	29406.496359426037	4.237098255932
5	122063	29407.643175106028	4.38537340763
5	122079	29412.963154273712	1.282404793562
5	122114	29416.495170954834	0.725598191946
5	122120	29416.996641966457	0.767328567936
5	122128	29417.858204834736	1.558119741508
5	122140	29419.667987643242	1.82349746384
5	122147	29419.977764435834	1.282595760715
5	122153	29420.879911905338	1.911790903108
5	122157	29422.08370528636	2.397781043894
5	122169	29426.580135269339	0.596344207222
5	122180	29428.619518122877	1.222675556845
5	122184	29428.640389140544	1.067249931989
5	122192	29431.973792342063	2.562192738914
5	122208	29442.252577063442	0.277211623697
5	122226	29445.835494191428	2.258296462162
5	122236	29447.346460419191	2.761409479797
5	122246	29450.911677024531	3.762481104867
5	122255	29452.270233621328	4.764721460521
5	122260	29452.513846575659	2.215180630624
5	122267	29454.038956751356	2.636698909999
5	122293	29457.269994427367	2.372538576637
5	122298	29458.652771591306	3.376991838881
5	122332	29463.548767293221	1.708579951944
5	122337	29463.746710264312	1.504917547205
5	122345	29464.77285792367	1.537977021201
5	122350	29465.408030637113	1.277250977267
5	122360	29465.743249777894	0.191406752137
5	122365	29466.885877761927	1.199718545349
5	122382	29468.419135091586	0.102311245896
5	122398	29472.211423232954	0.592111014582
5	122413	29479.960884529283	2.881758887612
5	122418	29480.208286204336	2.033976662682
5	122424	29481.307372229878	2.694625698676
5	122431	29489.069119979817	0.857788786701
5	122439	29491.413645520889	2.050422797789
5	122457	29496.034285616976	1.743536324269
5	122461	29496.148268339626	0.653706949815
5	122468	29496.362796411604	0.112281519882
5	122485	29506.453301046204	5.976016961025
5	122490	29506.594938890259	0.415737765384
5	122510	29513.869518781904	1.733984554256
5	122524	29523.61635921662	0.704084093622
5	122539	29525.246844008344	0.520622330839
5	122547	29526.429868776028	0.323173383305
5	122562	29530.233540584999	0.01392188172
5	122570	29531.598502159193	0.312383273246
5	122580	29532.881615101662	0.499474889937
5	122586	29534.852470022683	2.246585010954
5	122598	29536.759108795356	1.826610291629
5	122608	29538.091913285986	2.14226821547
5	122613	29538.537769634379	2.482528141022
5	122618	29539.116447438895	1.205649353109
5	122625	29542.451771576278	3.189994975767
5	122655	29553.169374735136	9.822175861362
5	122660	29553.266894990607	9.153470601434
5	122666	29553.704745746026	9.422752172781
5	122678	29555.44671546296	7.986370076243
5	122686	29556.232440865488	6.324303474577
5	122691	29556.457868257848	4.017183207495
5	122696	29556.581810621225	2.608241275792
5	122701	29556.649520468773	0.594194312299
5	122724	29562.9353260189	2.640349430409
5	122741	29565.08402192161	2.009950307497
5	122746	29565.236695886089	0.225333091087
5	122770	29570.598740072614	1.758848985196
5	122787	29576.167406237943	5.183137573913
5	122794	29576.702646813731	4.783998692087
5	122811	29577.82756562988	0.058586553942
5	122836	29581.215882821357	1.41402024639
5	122857	29591.526589635006	7.626304316395
5	122864	29593.094257540572	7.549099019443
5	122869	29593.236256638059	0.553719445919
5	122919	29605.829239221195	1.515946704475
5	122924	29606.005581460676	1.624357101197
5	122930	29607.921761835777	2.137286578915
5	122954	29615.868453859692	5.240881270101
5	122962	29617.558603503874	5.717584615343
5	122968	29618.312677120064	5.647641037026
5	122994	29621.963842161498	2.378724084494
5	123003	29623.409970299411	3.4511210266
5	123031	29633.478610292395	3.6343727767
5	123037	29636.614776753829	5.354291969635
5	123053	29640.113480521755	3.011371865319
5	123061	29641.700408146421	4.009399387126
5	123078	29643.895507657791	1.937632210854
5	123088	29645.202457949892	3.03627162678
5	123093	29646.405261215059	2.730093038912
5	123097	29646.510351634692	2.492673427776
5	123107	29647.460981623261	0.174785235144
5	123121	29651.439788019167	4.09243755371
5	123127	29652.521792650848	3.004073362723
5	123136	29653.297796561891	2.607745287843
5	123149	29656.164442167956	5.399115497463
5	123161	29660.82201550426	8.18279250198
5	123170	29663.448523509707	9.376243917106
5	123177	29665.712917659553	11.277435063249
5	123184	29665.797682407829	10.146453550679
5	123189	29665.807046640507	6.229455699597
5	123205	29670.797610811157	10.176060196713
5	123210	29672.509707810339	10.329071584865
5	123219	29673.554637873029	11.022684579091
5	123229	29678.189248503764	12.466224965998
5	123235	29679.394244070554	13.012669225416
5	123241	29679.551137844787	10.028734330037
5	123249	29680.243900754946	6.711315790567
5	123255	29680.764935804556	3.588630633923
5	123260	29680.852757643779	0.668868402717
5	123284	29684.726395743275	2.427185370768
5	123290	29685.633841150713	2.698865800925
5	123308	29689.399057451541	3.627948104398
5	123315	29689.998346368697	2.600673146756
5	123356	29698.182061004367	0.705192694999
5	123373	29702.900942697782	4.037080434939
5	123378	29703.033169143853	1.746585448283
5	123393	29709.480502995886	4.041924496904
5	123401	29712.181244675933	6.650064203977
5	123406	29712.231449526903	0.349645307637
5	123422	29717.106184421421	3.946078776847
5	123427	29718.290352367119	1.371534791348
5	123439	29720.031012866546	0.726344777448
5	123458	29723.398410659245	1.345374403423
5	123464	29724.127518078655	1.058601240468
5	123484	29727.732714117899	2.010612578082
5	123489	29727.784850506309	1.443678209649
5	123516	29731.985318227156	0.530581029637
5	123532	29734.421747352642	2.171608608265
5	123538	29735.401131680367	2.174470766775
5	123543	29736.185817098028	2.479183818365
5	123567	29744.116944552874	1.713553463168
5	123577	29747.864543402229	0.239267924262
5	123585	29748.640386167818	0.808912163052
5	123589	29748.822423192157	0.861350142472
5	123606	29753.117362966585	1.090149962499
5	123631	29756.719740512811	2.376310704804
5	123637	29757.047293086525	2.382337951199
5	123647	29758.214333118253	2.943562839608
5	123654	29758.483442422687	1.974131498543
5	123659	29758.635089916049	1.066398072987
5	123664	29758.668302109043	0.307479375945
5	123681	29761.130569512791	0.630023972464
5	123707	29781.836754588384	0.231467071537
5	123715	29784.119465371511	1.987254887288
5	123745	29789.649092335531	1.957127518602
5	123754	29790.514955604897	2.270424710261
5	123759	29790.588357325598	0.847876935832
5	123766	29791.612189238495	1.570408846361
5	123785	29795.899404521072	2.124221893194
5	123790	29796.012462498082	1.80549347402
5	123804	29798.617398271532	2.509000664463
5	123824	29799.785521729712	0.48992866647
5	123830	29800.417023227522	0.829973048666
5	123849	29806.885387833014	4.508817552382
5	123854	29809.142929917073	2.610467699813
5	123880	29817.84619050927	0.983307978875
5	123896	29820.641957381972	1.888660065699
5	123903	29825.363113785612	0.497563192336
5	123915	29830.480107333968	1.073591764881
5	123926	29841.758588737774	0.34320744711
5	123942	29849.291434010851	0.644122833562
5	123961	29861.78894861089	0.348331366772
5	123976	29863.907622787477	1.265400240913
5	123994	29867.202781723702	1.884128037346
5	123999	29868.122082772968	2.422905270696
5	124018	29872.987562155693	0.18717469455
5	124035	29877.363657018574	4.466480145037
5	124042	29877.550608984709	4.492056777403
5	124048	29877.951679781334	3.776273971337
5	124053	29878.186638486469	1.927939978998
5	124061	29879.210548623427	2.200518738815
5	124067	29880.11111259512	2.923945644603
5	124073	29880.689204936543	3.322596766909
5	124078	29883.139339555741	4.532073684329
5	124086	29885.565918257827	1.034529220615
5	124109	29895.041766772148	2.644374312294
5	124125	29897.621389886945	1.507166697334
5	124140	29900.281303160425	0.581745687481
5	124148	29901.094398233053	0.703284190661
5	124159	29904.313499607318	1.663873095321
5	124173	29906.749717521953	2.275267417732
5	124187	29912.14951141331	2.838128320585
5	124207	29917.28089877126	3.287404171763
5	124247	29926.097863074104	2.788055830208
5	124252	29926.935133942998	3.181542785353
5	124258	29928.19088377979	3.292655702627
5	124266	29930.905360247487	4.824157788249
5	124273	29931.210704444999	0.211229890745
5	124281	29931.858678764384	0.41646638049
5	124299	29939.506567658418	2.544868952091
5	124310	29941.672394847784	0.810082907216
5	124314	29941.804446437536	0.603847246107
5	124342	29948.530930572539	1.594666896088
5	124350	29949.261733207025	2.006514190377
5	124356	29950.298660724387	1.881282219039
5	124364	29951.929124311638	3.124296477998
5	124368	29952.515659676484	1.292230586185
5	124387	29954.490143870117	0.451946818359
5	124402	29956.180455549716	0.069428714268
5	124420	29959.467213871457	0.318456185334
5	124432	29962.557345716575	2.75409780648
5	124450	29964.754487894897	0.183653179739
5	124457	29966.504619609857	1.251106522587
5	124473	29974.16483337219	0.382030868594
5	124480	29977.525725316307	0.460625467911
5	124507	29997.924946845167	0.551427739507
5	124514	29998.671343404494	0.417405599328

