version 2
run Second-n5-15-20191016-14:53:36-8892
attr configname Second-n5
attr datetime 20191016-14:53:36
attr experiment Second-n5
attr inifile omnetpp.ini
attr iterationvars ""
attr iterationvarsf ""
attr measurement ""
attr network org.omnetpp.queueing.Pizza
attr processid 8892
attr repetition 15
attr replication ""
attr resultdir results
attr runnumber 15
attr seedset 15
param **.PS.maxInventoriedPS 5
param **.U1.interArrivalTime exponential(3s)
param **.U2.interArrivalTime exponential(5s)
param **.PS.serviceTimeForInventoryU1 exponential(1.0s)
param **.PS.serviceTimeForInventoryU2 exponential(1.2s)
param **.PS.serviceTimeDirectU1 exponential(1.4s)
param **.PS.serviceTimeDirectU2 exponential(1.4s)
param **.PS.probabilityProducing 0.7
param **.CS.serviceTimeU1 exponential(1.1s)
param **.CS.serviceTimeU2 exponential(1.4s)

vector 0 Pizza.EntryQueueU1 queueLength:vector ETV
attr interpolationmode sample-hold
attr title "queue length, vector"
vector 1 Pizza.CS queueLength:vector ETV
attr interpolationmode sample-hold
attr title "queue length, vector"
vector 2 Pizza.EntryQueueU2 queueLength:vector ETV
attr interpolationmode sample-hold
attr title "queue length, vector"
vector 3 Pizza.sink lifeTime:vector ETV
attr interpolationmode none
attr title "lifetime of arrived jobs, vector"
attr unit s
vector 4 Pizza.sink lifeTimeU2:vector ETV
attr interpolationmode none
attr title "lifetime of arrived jobs, vector"
attr unit s
0	0	0	0
0	5	6.259122747316	1
0	7	6.426812955062	2
0	9	6.779740928897	3
0	15	8.125822386251	4
0	20	9.215084584741	5
0	22	9.794334791656	4
0	28	10.077726858813	5
0	30	10.56124356042	4
0	35	11.164986878568	3
0	40	11.366301650683	2
0	48	13.005391597038	1
0	55	13.872864842129	2
0	59	14.5775608498	1
0	64	14.745457118978	0
0	105	23.76338756866	1
0	107	24.008094624652	2
0	108	24.696411328669	1
0	113	24.728963113022	0
0	126	26.674915068838	1
0	131	27.594546857254	0
0	142	28.446676844748	1
0	143	29.037161900472	0
0	152	29.744101523364	1
0	154	30.078048833928	2
0	158	31.838333152105	3
0	160	31.910917471726	4
0	164	32.645974422347	5
0	166	34.065860759647	4
0	171	34.874365200628	3
0	176	35.875825567032	2
0	183	36.546572642217	3
0	184	36.893337973109	2
0	193	38.954421338473	3
0	195	38.990669823365	4
0	196	39.300981976299	3
0	201	40.414355941705	2
0	207	40.891677254779	1
0	216	43.184938914356	0
0	222	43.465285372708	1
0	223	44.242149429992	0
0	229	44.66678608274	1
0	231	45.413095219448	0
0	249	46.841785615919	1
0	250	46.856261430698	0
0	256	47.190326417537	1
0	258	47.577375401276	2
0	260	48.249507134923	3
0	263	49.191979350547	2
0	268	49.208608990162	1
0	273	50.302088785725	0
0	283	53.776832006003	1
0	284	54.194399115054	0
0	298	56.518510336705	1
0	302	57.693578234852	2
0	303	57.71706445281	1
0	312	58.245662565134	2
0	313	58.922524852433	1
0	318	59.068137345316	0
0	324	59.103370499058	1
0	328	60.467499005064	2
0	331	61.153075105145	1
0	336	61.264350755077	0
0	348	62.780595383509	1
0	351	65.10604952574	0
0	391	78.509303122718	1
0	393	79.477534243274	2
0	397	81.39545331761	3
0	398	81.739418198174	2
0	403	81.814526238798	1
0	409	82.070751728001	2
0	415	85.001917286533	3
0	417	86.529547353486	2
0	424	87.876461613243	1
0	431	88.337962527069	0
0	454	90.477058251387	1
0	458	94.123762947086	0
0	479	95.139300782761	1
0	481	96.830647422782	0
0	487	97.111841027182	1
0	489	98.098210146013	2
0	492	98.446589345277	1
0	500	99.964215031416	0
0	522	108.2074425594	1
0	523	109.17159231248	0
0	536	110.266161479236	1
0	539	110.846727855276	0
0	547	111.651573368552	1
0	548	111.863062253844	0
0	569	116.246952036257	1
0	570	116.310473878502	0
0	584	118.254579788811	1
0	585	119.04740771584	0
0	591	119.166779019037	1
0	592	119.255139657838	0
0	605	120.988682453943	1
0	607	121.677657704061	2
0	609	122.214695222967	1
0	614	122.243813501014	0
0	626	124.405046578751	1
0	633	126.698931444578	0
0	639	127.80373758184	1
0	642	127.943219349803	0
0	677	136.797939655824	1
0	678	137.913329517438	0
0	687	138.897365130716	1
0	689	139.354926078838	0
0	851	187.272877639959	1
0	853	188.084435528906	2
0	854	188.309407144613	1
0	859	188.641043285826	0
0	908	198.638995817518	1
0	913	201.989311331881	0
0	924	202.361468331483	1
0	927	203.789582700969	0
0	951	208.831379044992	1
0	956	209.31491907625	2
0	958	211.406656328202	1
0	964	213.074683544238	0
0	971	213.755001691821	1
0	973	214.014959660342	2
0	975	214.248556382722	1
0	980	214.44357506329	0
0	994	217.092683271756	1
0	997	217.960091113742	2
0	999	217.979073941818	3
0	1000	218.335391776442	2
0	1006	218.431812792199	3
0	1009	219.609086645611	4
0	1010	219.739015385993	3
0	1018	221.606026478937	2
0	1024	223.214902159352	3
0	1025	225.217355872574	2
0	1031	226.812620234909	1
0	1039	227.977575050358	0
0	1050	228.234757026836	1
0	1053	230.059240049922	0
0	1073	232.869051517493	1
0	1074	233.892347464977	0
0	1085	234.262559613785	1
0	1087	234.835581744956	2
0	1089	235.39105795808	3
0	1091	236.25294917329	2
0	1096	236.567021593154	1
0	1102	236.595277435813	2
0	1103	236.756687867757	1
0	1109	237.605765791969	2
0	1110	237.91815411987	1
0	1116	239.160899098219	0
0	1122	240.419927785694	1
0	1123	241.930795060046	0
0	1127	241.948744467733	1
0	1131	243.093345524553	0
0	1137	243.24585418868	1
0	1140	243.822442977608	0
0	1156	245.360089837445	1
0	1158	245.975048363441	2
0	1160	247.212777211126	1
0	1165	247.230575526643	0
0	1191	252.91730280955	1
0	1193	253.064057976412	2
0	1194	254.266800140891	1
0	1199	255.118209867496	0
0	1218	261.181064438471	1
0	1219	261.809420745341	0
0	1231	265.891537763527	1
0	1234	268.034782603292	0
0	1240	268.055794421831	1
0	1243	268.602674399031	0
0	1273	276.484358156294	1
0	1276	277.935918523501	2
0	1279	280.475639023379	1
0	1287	281.598455176982	0
0	1293	281.690097583246	1
0	1294	281.757004051572	0
0	1323	291.778564017067	1
0	1326	293.335169136868	2
0	1330	296.036845222739	3
0	1331	296.717590923868	2
0	1336	297.430043705568	1
0	1342	298.801035113222	2
0	1344	299.024104117177	1
0	1349	299.122544421958	0
0	1360	299.431042520608	1
0	1366	302.278382129513	0
0	1372	302.833894777932	1
0	1375	303.679473535691	2
0	1376	303.685899890911	1
0	1382	304.133336198364	0
0	1409	306.400232170906	1
0	1410	306.540546846493	0
0	1417	307.294058624089	1
0	1419	307.778508720801	2
0	1421	308.317912594139	3
0	1422	308.585523361245	2
0	1428	308.701026663112	3
0	1430	308.870524418822	4
0	1433	309.491544127682	3
0	1439	309.906553885818	2
0	1445	310.322681994845	1
0	1450	310.406304060191	0
0	1513	329.277756981346	1
0	1514	329.808671208153	0
0	1520	331.462198412832	1
0	1522	332.10150432442	0
0	1528	332.574616121877	1
0	1529	332.596628687812	0
0	1560	339.60578816723	1
0	1561	339.716733567909	0
0	1580	341.563722860152	1
0	1582	341.70138813445	2
0	1584	342.214391876396	1
0	1590	342.818457989186	0
0	1625	349.816721102721	1
0	1626	350.479304444924	0
0	1649	356.166213083688	1
0	1651	356.221918289253	2
0	1653	356.258678939294	3
0	1655	356.895015437591	4
0	1656	358.04741111725	3
0	1661	358.070868506755	2
0	1666	358.658588944116	1
0	1673	358.77839415408	2
0	1674	359.630361051289	1
0	1680	360.108446106904	2
0	1681	360.388203804123	1
0	1686	360.706925397562	0
0	1740	371.340027179413	1
0	1742	371.44330585746	2
0	1745	372.766413756055	1
0	1753	373.782908697506	0
0	1764	374.137826808744	1
0	1767	375.499307244095	0
0	1774	376.54306962095	1
0	1777	376.867877464302	2
0	1779	377.314581793408	3
0	1781	378.679261590328	2
0	1787	379.078601458607	1
0	1793	379.80330487321	2
0	1798	381.379542729189	1
0	1804	381.489851170939	2
0	1806	381.904269232045	1
0	1812	382.256641247357	2
0	1816	382.487555370584	3
0	1817	383.163427536414	2
0	1822	383.274117055845	1
0	1827	383.799646644688	0
0	1838	384.290210238346	1
0	1839	384.695939293988	0
0	1874	390.931707942135	1
0	1875	391.636709278545	0
0	1900	394.310095774249	1
0	1901	394.560195671156	0
0	1952	407.403590011832	1
0	1954	407.846270762603	0
0	2048	434.585406719766	1
0	2049	435.671106279079	0
0	2055	435.993244869769	1
0	2057	436.969385376016	2
0	2058	437.206628083226	1
0	2063	437.726807467362	0
0	2084	441.651046752053	1
0	2085	441.693345487106	0
0	2109	446.042550711793	1
0	2110	446.53692002225	0
0	2126	449.386040519007	1
0	2127	449.420203086473	0
0	2147	461.948348828274	1
0	2149	462.773821751829	2
0	2150	463.569202278834	1
0	2156	464.516899170144	2
0	2165	466.726700135765	1
0	2172	468.911051849974	0
0	2193	471.027311178817	1
0	2194	472.84756103655	0
0	2223	480.945179027953	1
0	2226	481.731081546988	0
0	2305	496.740885864354	1
0	2306	496.772047007052	0
0	2381	518.849078649985	1
0	2383	519.129453762936	0
0	2389	519.99629115437	1
0	2390	520.479859212486	0
0	2396	521.946611921398	1
0	2398	522.738251730675	0
0	2414	526.586864878414	1
0	2415	526.998148684983	0
0	2431	529.176220742636	1
0	2432	531.722423790259	0
0	2572	571.360637392882	1
0	2573	571.387952233431	0
0	2616	579.657554214382	1
0	2618	579.732451521485	2
0	2620	580.847582157139	1
0	2625	581.216202622592	0
0	2696	594.232933449823	1
0	2697	594.636337406774	0
0	2768	622.020298202207	1
0	2769	622.281313597835	0
0	2811	634.239893763963	1
0	2816	639.121841074076	0
0	2822	639.778944897135	1
0	2825	640.950922847117	2
0	2826	641.852236036646	1
0	2832	642.244128625388	0
0	2842	644.083128159227	1
0	2848	645.566552965713	2
0	2849	645.753835498569	1
0	2854	646.253223091262	0
0	2865	648.759421655421	1
0	2866	649.607026342805	0
0	2912	658.11632503572	1
0	2914	658.400791854906	2
0	2919	661.174596279219	1
0	2924	661.488963772201	0
0	2940	667.186269460678	1
0	2942	667.458959513697	2
0	2943	667.611186423975	1
0	2949	667.637628144208	2
0	2951	669.254114648299	1
0	2960	669.876580586679	0
0	2988	675.334049605001	1
0	2989	675.841929973611	0
0	3014	683.098301021642	1
0	3017	683.443347271006	0
0	3038	684.623963482148	1
0	3041	685.887351779333	0
0	3081	699.958378306843	1
0	3083	700.536100115355	2
0	3084	701.110938350663	1
0	3090	701.694964562046	0
0	3096	702.030699693463	1
0	3098	702.653607598542	0
0	3104	703.109565277773	1
0	3105	703.854427557639	0
0	3122	709.102036122983	1
0	3123	709.486773882941	0
0	3184	729.972640947423	1
0	3185	730.821720161946	0
0	3194	732.553887950517	1
0	3199	734.338597336391	2
0	3200	735.143174243354	1
0	3205	735.163985425491	0
0	3224	737.548116835686	1
0	3226	738.263324882571	2
0	3227	738.33719199933	1
0	3232	739.121728611852	0
0	3267	742.348743140665	1
0	3271	745.788543868758	0
0	3321	760.01916199038	1
0	3322	760.42788523889	0
0	3354	772.320673726253	1
0	3355	772.426779700875	0
0	3370	781.077951094756	1
0	3371	781.601241966118	0
0	3377	782.203775378615	1
0	3378	783.78699575741	0
0	3392	789.71402794904	1
0	3394	790.312333220519	2
0	3395	790.508671706879	1
0	3404	791.485023348566	0
0	3485	813.699052845964	1
0	3487	814.082883978587	2
0	3489	814.302010576267	3
0	3491	815.574851058329	4
0	3492	816.159984186184	3
0	3497	816.844985346632	2
0	3504	818.008863495866	1
0	3512	820.028687351563	2
0	3513	820.891396200434	1
0	3519	821.094074179966	2
0	3520	821.17017707008	1
0	3527	821.212139444974	2
0	3529	821.594688202949	1
0	3534	821.677730586758	0
0	3560	826.234114519525	1
0	3561	826.326918570881	0
0	3576	828.732858423147	1
0	3577	828.740952099167	0
0	3583	829.354943826928	1
0	3584	829.489765388816	0
0	3590	829.527516766887	1
0	3591	829.594618968385	0
0	3625	837.374614240101	1
0	3626	837.673670605366	0
0	3650	845.70395545263	1
0	3652	845.880163032306	2
0	3654	847.309569628709	3
0	3657	848.562541169136	2
0	3665	850.160660199943	3
0	3668	852.065218136788	2
0	3673	852.49925120917	1
0	3678	852.860844718077	0
0	3691	853.853060097032	1
0	3693	855.609059366104	0
0	3712	858.577320096602	1
0	3714	858.811834575995	2
0	3715	862.138030552178	1
0	3721	862.680624963127	2
0	3724	865.263443358677	3
0	3725	865.388806043821	2
0	3731	866.050478082922	1
0	3737	867.377925471064	2
0	3739	867.407449821869	3
0	3741	868.234018776334	2
0	3746	869.805467681966	1
0	3751	870.171659615747	0
0	3760	871.259894985678	1
0	3762	872.375735851756	0
0	3788	875.79680426622	1
0	3792	877.477801933433	2
0	3794	877.813504462246	1
0	3799	877.993595133081	0
0	3835	884.933328002658	1
0	3839	888.606238919699	0
0	3845	889.215953008448	1
0	3847	892.70851388703	0
0	3858	893.015334226439	1
0	3860	895.623574522411	0
0	3897	905.75876027627	1
0	3898	906.046864593188	0
0	3904	906.220850858058	1
0	3907	907.889952211832	2
0	3911	908.667684307237	1
0	3918	909.341982546157	2
0	3919	910.159856175615	1
0	3927	914.784855884638	0
0	3952	918.527846099219	1
0	3953	919.631676817188	0
0	4001	934.637000094586	1
0	4002	934.830588825002	0
0	4022	935.465924070143	1
0	4025	935.521566532345	0
0	4031	936.69993410756	1
0	4032	937.056097587924	0
0	4051	940.523196331221	1
0	4052	940.651441866684	0
0	4064	942.625998889852	1
0	4065	942.88689014901	0
0	4079	945.172012455842	1
0	4083	948.240867797013	2
0	4090	951.07203068271	1
0	4100	953.57761284075	0
0	4112	954.914193787688	1
0	4113	955.774122444181	0
0	4125	957.488845508278	1
0	4127	958.083492980543	2
0	4128	958.11165544918	1
0	4134	958.1211682989	2
0	4142	958.942409167584	3
0	4144	960.782546467697	2
0	4150	961.374517597889	1
0	4157	961.510553269262	2
0	4158	961.682152257771	1
0	4164	962.138183532488	0
0	4173	966.623386495648	1
0	4175	967.189379423571	0
0	4187	968.571835872178	1
0	4189	969.225268089169	2
0	4190	969.618081234926	1
0	4196	970.967670557089	2
0	4197	971.250013222944	1
0	4203	971.383165211708	2
0	4205	973.063564310255	1
0	4211	973.74572082076	2
0	4212	973.76251929751	1
0	4218	974.14958809727	0
0	4229	975.226093180055	1
0	4230	975.637017195719	0
0	4243	977.515163366511	1
0	4247	978.355275329712	0
0	4263	980.238579088147	1
0	4264	980.882409431777	0
0	4270	981.02475428536	1
0	4271	981.042919205291	0
0	4294	986.515715077977	1
0	4295	986.545235724009	0
0	4324	994.161284811451	1
0	4326	994.223722744816	2
0	4327	994.334551297336	1
0	4334	994.809568275221	0
0	4341	995.210142417313	1
0	4342	995.453296354387	0
0	4363	999.573802092672	1
0	4364	1001.377118686942	0
0	4371	1001.723783048673	1
0	4373	1002.995899719087	2
0	4376	1005.813539697723	1
0	4385	1007.896462000359	0
0	4410	1011.21154883112	1
0	4412	1012.689486187164	0
0	4443	1019.294954172107	1
0	4444	1019.59828373694	0
0	4471	1026.382000560555	1
0	4472	1027.10152851099	0
0	4493	1032.505302332774	1
0	4494	1033.340347558016	0
0	4510	1041.109138114683	1
0	4511	1041.508347727573	0
0	4520	1042.304475654625	1
0	4521	1042.317293998099	0
0	4549	1048.756870335555	1
0	4550	1049.197035937702	0
0	4587	1055.680250085483	1
0	4588	1056.078849110213	0
0	4619	1063.229016829169	1
0	4621	1063.282009140536	2
0	4623	1065.807924365833	1
0	4628	1066.028546895754	0
0	4634	1066.208493805244	1
0	4637	1067.513817172006	2
0	4638	1067.778948320802	1
0	4643	1068.515962950055	0
0	4659	1071.605020633307	1
0	4663	1073.549541063436	0
0	4701	1088.790491684097	1
0	4702	1089.152821196861	0
0	4719	1092.814935065507	1
0	4721	1093.124087975751	2
0	4723	1093.891292132801	3
0	4725	1094.711330572726	4
0	4730	1098.21282589833	3
0	4735	1098.459554844189	2
0	4741	1098.464386243974	3
0	4744	1098.776934776062	4
0	4745	1099.041923717294	3
0	4752	1100.441389730616	2
0	4757	1100.927397182047	1
0	4763	1101.43983188094	2
0	4767	1101.707273293117	3
0	4771	1103.984440547374	2
0	4777	1104.563031520713	3
0	4778	1104.722241361998	2
0	4786	1105.649506560223	1
0	4792	1107.078317218031	2
0	4798	1109.930138317171	1
0	4804	1110.904053824135	0
0	4819	1114.842273013771	1
0	4821	1115.102757246028	2
0	4822	1116.39156825004	1
0	4827	1116.44891148558	0
0	4833	1116.747145863623	1
0	4835	1117.08102784588	2
0	4839	1117.473352382984	1
0	4844	1118.589802476286	0
0	4855	1119.568133188824	1
0	4858	1119.891457786231	2
0	4861	1121.694812355931	3
0	4863	1124.301694380416	2
0	4869	1124.652373807304	3
0	4870	1125.987247104635	2
0	4882	1128.149805955645	3
0	4883	1128.531967668653	2
0	4890	1132.426640997332	1
0	4894	1132.809286981864	2
0	4896	1133.132435533417	3
0	4898	1134.476572106252	4
0	4900	1134.661802656172	5
0	4903	1136.001654712198	4
0	4907	1136.38183813186	5
0	4912	1139.395704601659	6
0	4915	1139.686343732455	7
0	4916	1139.739163903258	6
0	4925	1140.965732119305	5
0	4934	1144.045433833467	4
0	4941	1145.018022835076	5
0	4943	1146.133315672571	4
0	4948	1146.329866964428	3
0	4953	1146.387843867507	2
0	4958	1146.929191525078	1
0	4963	1147.417309796525	0
0	4969	1147.510437084515	1
0	4970	1147.686809330955	0
0	4976	1149.09076294665	1
0	4978	1149.694397146845	0
0	4993	1154.741724926182	1
0	4994	1155.295022447993	0
0	5010	1157.398327978401	1
0	5011	1157.52009620563	0
0	5045	1160.380175915931	1
0	5050	1161.877238900985	2
0	5052	1162.465143789918	3
0	5054	1163.982013891817	4
0	5056	1164.073504870938	5
0	5058	1164.310083512425	6
0	5061	1164.58628284567	7
0	5062	1164.761206788117	6
0	5067	1164.863159663586	5
0	5074	1166.040922079738	4
0	5083	1167.215022522843	3
0	5089	1167.374384846957	4
0	5090	1167.455852262826	3
0	5096	1167.615069285279	4
0	5099	1167.932663356461	5
0	5100	1168.774952239713	4
0	5106	1169.535155999679	3
0	5112	1169.805871655424	4
0	5114	1171.27823050105	3
0	5122	1173.04485819391	2
0	5130	1173.813300209737	3
0	5134	1174.589163309969	2
0	5139	1174.983413484084	1
0	5144	1175.205912425214	0
0	5165	1177.042267451805	1
0	5167	1177.361718164988	0
0	5173	1177.687657897625	1
0	5174	1177.687957232015	0
0	5189	1179.36627350622	1
0	5194	1182.413946594279	0
0	5207	1183.518519256267	1
0	5211	1184.828778559506	0
0	5231	1187.663655565701	1
0	5235	1188.874700150015	0
0	5248	1190.649845918972	1
0	5250	1190.906065764295	2
0	5251	1191.091734536806	1
0	5258	1192.262509238722	0
0	5266	1192.591074949814	1
0	5267	1193.263726537204	0
0	5277	1194.655832091269	1
0	5279	1195.19936036601	2
0	5280	1195.278636481545	1
0	5285	1195.451371706605	0
0	5301	1197.266115556937	1
0	5303	1197.688132599743	2
0	5304	1199.477309912311	1
0	5312	1199.995396743202	2
0	5313	1201.859708874951	1
0	5319	1202.395474974051	2
0	5322	1202.552189673671	3
0	5324	1203.915800410511	2
0	5329	1204.274233818809	1
0	5335	1206.027962729535	0
0	5347	1208.200717413292	1
0	5351	1208.783246543538	0
0	5362	1209.397103710961	1
0	5363	1209.495446542751	0
0	5369	1209.49965600486	1
0	5373	1210.170006070761	2
0	5375	1210.183076719987	3
0	5376	1210.195921485317	2
0	5381	1211.197072632553	1
0	5386	1215.540684433023	0
0	5390	1216.320448308193	1
0	5395	1218.274461490059	0
0	5410	1220.382905101954	1
0	5412	1222.480659774931	2
0	5416	1224.129859581215	3
0	5419	1225.225867057172	4
0	5422	1227.980301303987	3
0	5429	1228.127908948358	4
0	5430	1228.162802263476	3
0	5435	1228.500825562034	2
0	5445	1229.218746860706	1
0	5451	1229.427979069621	0
0	5486	1236.050979541342	1
0	5488	1236.242342087765	2
0	5493	1237.860889770454	3
0	5494	1238.594376217613	2
0	5503	1240.9338093991	1
0	5508	1241.217532413043	0
0	5522	1243.219904860322	1
0	5524	1244.604891872372	2
0	5525	1245.161373320366	1
0	5531	1246.001078453734	0
0	5542	1246.165640268895	1
0	5543	1246.292878424913	0
0	5549	1246.556614350314	1
0	5553	1247.558196521522	0
0	5587	1253.88462410258	1
0	5589	1254.152497272344	2
0	5592	1254.209771752337	1
0	5599	1255.744037370532	0
0	5614	1258.905584296612	1
0	5616	1259.373444353523	2
0	5617	1259.692606863906	1
0	5622	1260.065581922325	0
0	5660	1271.436063384336	1
0	5661	1273.095625705183	0
0	5683	1277.375295229599	1
0	5686	1277.808781673277	0
0	5751	1294.851558888374	1
0	5752	1295.29371384771	0
0	5792	1305.115255148728	1
0	5793	1305.384361465943	0
0	5821	1310.747900579679	1
0	5823	1311.090706582789	2
0	5824	1311.242348326607	1
0	5830	1311.994245832985	0
0	5879	1332.928180125129	1
0	5881	1334.067181435252	0
0	5888	1334.525661242696	1
0	5889	1335.392855957844	0
0	5927	1345.784470207145	1
0	5928	1346.236100193274	0
0	5958	1354.193171734172	1
0	5959	1354.823637401797	0
0	5981	1360.146683178125	1
0	5982	1360.462400839656	0
0	6012	1369.513248062662	1
0	6013	1369.934399043167	0
0	6061	1385.082488093836	1
0	6063	1386.335949445015	2
0	6065	1386.391097033407	3
0	6066	1386.793420435783	2
0	6071	1386.902493596835	1
0	6076	1387.59594341833	0
0	6096	1392.353297543456	1
0	6098	1392.664976945942	2
0	6101	1393.605736941896	1
0	6106	1394.635360023931	0
0	6120	1396.180103287514	1
0	6124	1397.387202725952	2
0	6130	1398.056822821952	3
0	6131	1398.665375861195	2
0	6137	1399.397119461054	1
0	6142	1400.911018515392	0
0	6176	1410.995945569762	1
0	6178	1411.511303553605	0
0	6204	1415.588629469337	1
0	6205	1415.857147867035	0
0	6227	1418.722290409083	1
0	6230	1420.465400271439	0
0	6258	1424.858490045482	1
0	6262	1425.245242026581	2
0	6263	1426.641923447396	1
0	6272	1427.903765356419	0
0	6321	1447.121638283295	1
0	6323	1448.732913784474	0
0	6346	1455.558383554578	1
0	6347	1456.336142799579	0
0	6387	1463.837961834706	1
0	6388	1468.904708985838	0
0	6433	1480.959437706302	1
0	6437	1481.443851754843	2
0	6438	1481.759513604967	1
0	6444	1483.664630183843	0
0	6481	1492.253544475978	1
0	6483	1493.339017189702	0
0	6489	1493.938766581571	1
0	6490	1494.031135833797	0
0	6515	1503.98947623097	1
0	6516	1505.356654785639	0
0	6531	1508.334527109394	1
0	6532	1508.445469651751	0
0	6538	1508.701066773496	1
0	6542	1509.994744640668	0
0	6557	1511.425514784826	1
0	6558	1512.326421110125	0
0	6564	1512.76843873328	1
0	6565	1513.122749747934	0
0	6616	1520.247204703455	1
0	6617	1520.555801039618	0
0	6643	1526.188756496064	1
0	6645	1529.354722216203	2
0	6646	1529.468325241609	1
0	6651	1530.291839374097	0
0	6666	1532.785931326151	1
0	6667	1532.893142093291	0
0	6697	1544.183277055938	1
0	6699	1544.413713133407	0
0	6716	1546.567280547569	1
0	6717	1546.798957331862	0
0	6728	1547.074178567432	1
0	6730	1547.394945593988	2
0	6732	1548.482550821469	1
0	6737	1548.647684892229	0
0	6776	1557.973388023754	1
0	6782	1558.888961113593	0
0	6789	1559.564413961418	1
0	6793	1559.781673722584	0
0	6817	1561.195221692874	1
0	6818	1561.221344187501	0
0	6831	1562.060738421486	1
0	6834	1563.47136649312	2
0	6836	1563.56166208758	3
0	6839	1566.034598202547	4
0	6841	1566.47457964935	5
0	6843	1567.000349961432	6
0	6846	1567.98313815704	5
0	6851	1568.055497896274	4
0	6857	1569.167614104247	3
0	6865	1569.709161632527	2
0	6871	1570.919730769543	1
0	6878	1571.970040902952	2
0	6881	1573.627687179497	1
0	6887	1573.670436307017	2
0	6890	1574.350504140147	3
0	6892	1574.589542841816	4
0	6893	1575.565935667791	3
0	6902	1578.394270386354	4
0	6903	1578.741520814536	3
0	6908	1579.370690420194	2
0	6914	1579.402457857285	3
0	6918	1580.942168425158	2
0	6923	1581.434880301677	1
0	6929	1581.668757053119	2
0	6936	1584.934077346939	1
0	6943	1585.232090206933	0
0	6965	1588.528317240773	1
0	6966	1588.779721838994	0
0	6975	1589.390936134437	1
0	6980	1591.577376470139	2
0	6985	1592.468402750592	3
0	6986	1592.975300316038	2
0	6991	1593.326814707088	1
0	6996	1593.68005364648	0
0	7024	1597.339394904784	1
0	7026	1597.766080772521	0
0	7073	1608.478606294949	1
0	7075	1609.056164250112	2
0	7076	1609.538450553062	1
0	7081	1612.110170087067	0
0	7089	1614.556586659766	1
0	7090	1614.744241176019	0
0	7097	1615.029312278501	1
0	7102	1617.677228052114	0
0	7123	1623.900430553774	1
0	7125	1625.07444505209	0
0	7137	1627.969619909642	1
0	7139	1628.896133112367	0
0	7145	1629.801949065197	1
0	7148	1634.12439953071	2
0	7149	1634.847834352731	1
0	7155	1635.192731948679	0
0	7170	1637.799594234803	1
0	7172	1638.163526481216	0
0	7179	1638.546261859196	1
0	7180	1639.919953933021	0
0	7186	1639.959970466262	1
0	7187	1640.509529536069	0
0	7202	1649.520286156121	1
0	7205	1652.040020332072	0
0	7223	1655.421708649788	1
0	7225	1655.982276821199	0
0	7231	1656.564770914813	1
0	7233	1659.909135462602	0
0	7281	1667.304451132423	1
0	7282	1668.150590484911	0
0	7296	1669.740922295307	1
0	7298	1669.978292876864	2
0	7300	1670.534874415176	3
0	7303	1672.884558115128	4
0	7304	1673.396248477415	3
0	7309	1673.584197213946	2
0	7314	1673.933674643592	1
0	7320	1674.50238460085	0
0	7334	1677.694116957162	1
0	7338	1678.635088564226	2
0	7340	1678.971020787394	3
0	7341	1679.698763949635	2
0	7347	1680.928172922262	1
0	7353	1682.254751022572	2
0	7354	1682.323585920294	1
0	7359	1683.927125530266	0
0	7386	1689.138048853026	1
0	7388	1689.381557870454	2
0	7389	1689.676456381675	1
0	7396	1690.646546809754	0
0	7410	1693.34999274234	1
0	7411	1693.501299277209	0
0	7417	1695.411511680174	1
0	7419	1695.621817266624	2
0	7423	1697.503895826144	3
0	7428	1699.234043635252	2
0	7433	1700.200172649405	1
0	7438	1701.974436286342	0
0	7457	1706.560477837767	1
0	7459	1707.467607141156	2
0	7461	1708.442221950673	3
0	7462	1709.404523771579	2
0	7467	1709.55499432105	1
0	7486	1714.511068352926	2
0	7488	1715.474738015144	1
0	7494	1715.968193215612	0
0	7530	1721.90133691714	1
0	7532	1722.877224982714	2
0	7535	1723.993395585053	1
0	7540	1724.146140139344	0
0	7575	1732.987550424991	1
0	7576	1733.386025158542	0
0	7598	1737.835027629217	1
0	7600	1737.985171621848	2
0	7601	1738.0692432362	1
0	7608	1739.02648988351	2
0	7611	1740.548158567577	3
0	7612	1741.53438249856	2
0	7621	1742.448179510119	3
0	7622	1745.563312652569	2
0	7627	1746.262202552582	1
0	7638	1747.375703654871	0
0	7646	1748.466194809662	1
0	7648	1750.230232930764	0
0	7654	1750.586713098585	1
0	7656	1751.090249370023	0
0	7672	1752.266564163237	1
0	7677	1753.223066404986	0
0	7688	1753.672525120032	1
0	7689	1754.766975181262	0
0	7704	1756.912755376136	1
0	7705	1757.574676704942	0
0	7716	1759.412288982177	1
0	7717	1759.746082076649	0
0	7724	1759.842837475635	1
0	7728	1760.380983411064	2
0	7729	1760.949452995603	1
0	7735	1762.355225834658	0
0	7772	1769.768055004233	1
0	7774	1770.674922381728	0
0	7804	1786.002868999996	1
0	7805	1786.838117137533	0
0	7811	1787.160858202187	1
0	7814	1787.375976350394	2
0	7815	1787.46901814817	1
0	7822	1789.739639475842	2
0	7826	1790.783961906995	3
0	7828	1791.647703245786	2
0	7834	1793.187384505849	1
0	7840	1793.645300061865	2
0	7841	1794.032299521725	1
0	7848	1794.517218236058	2
0	7850	1796.113311926237	1
0	7856	1796.390372774777	2
0	7857	1796.660761051756	1
0	7863	1798.03831695926	0
0	7880	1800.751532584851	1
0	7881	1801.064399492107	0
0	7897	1805.15101466809	1
0	7898	1805.582632590544	0
0	7937	1817.080171562124	1
0	7938	1820.447244373232	0
0	7991	1836.78332087678	1
0	7994	1837.964574619637	0
0	8008	1840.804021179218	1
0	8009	1841.787170747207	0
0	8146	1893.090820059123	1
0	8148	1894.618621776551	2
0	8149	1895.196154389242	1
0	8155	1895.593253684234	0
0	8169	1898.087535614029	1
0	8170	1898.485258514651	0
0	8192	1905.10615041066	1
0	8193	1905.242253123996	0
0	8200	1905.393010323185	1
0	8204	1907.57216744449	0
0	8211	1909.111811944006	1
0	8214	1909.59899380924	2
0	8217	1910.488929965319	1
0	8225	1911.300182798965	2
0	8227	1911.448351144148	3
0	8229	1912.782638345774	2
0	8235	1913.543258349271	3
0	8236	1913.690322704302	2
0	8242	1914.774454029498	1
0	8249	1916.179342566167	0
0	8260	1918.149232163165	1
0	8262	1920.436216972828	0
0	8269	1922.464592042891	1
0	8272	1923.665863326251	0
0	8282	1925.329012662815	1
0	8285	1927.447001058467	0
0	8292	1928.746711481835	1
0	8293	1931.428309547596	0
0	8311	1934.802813169602	1
0	8312	1935.196238474956	0
0	8318	1935.867592896752	1
0	8322	1936.191397839548	0
0	8328	1936.394839182112	1
0	8329	1936.692287528964	0
0	8356	1942.733293285702	1
0	8358	1944.072139137791	2
0	8361	1946.043238593211	1
0	8368	1946.510498950463	0
0	8388	1948.638575367145	1
0	8391	1952.851191055272	0
0	8404	1954.401499645135	1
0	8406	1956.048726906413	0
0	8427	1958.455232981803	1
0	8428	1959.21076824188	0
0	8437	1959.328279027774	1
0	8439	1960.585364732697	2
0	8444	1965.466116817761	3
0	8446	1966.073792519451	4
0	8447	1967.396265220269	3
0	8454	1968.360422686157	2
0	8463	1971.002633823337	1
0	8468	1971.181969343539	0
0	8480	1973.829413876809	1
0	8484	1975.965011614439	0
0	8496	1977.50253611587	1
0	8497	1979.063808624739	0
0	8507	1980.354199602073	1
0	8508	1980.709045527066	0
0	8523	1984.231343523328	1
0	8524	1984.245745948566	0
0	8548	1985.751033701679	1
0	8551	1985.787208177765	0
0	8561	1987.323062194205	1
0	8566	1987.64174708276	0
0	8601	1996.776779244678	1
0	8604	1998.135772790389	0
0	8617	2000.180862952199	1
0	8619	2000.475793919205	0
0	8640	2008.418159867181	1
0	8643	2009.397700655802	0
0	8658	2012.876686588967	1
0	8661	2013.201101303848	2
0	8662	2013.571128522487	1
0	8667	2013.595677620996	0
0	8727	2037.286745960844	1
0	8733	2039.214603389811	0
0	8758	2045.529755695704	1
0	8762	2046.565144641631	2
0	8763	2049.13612334358	1
0	8769	2049.231738719348	2
0	8771	2049.614700166751	3
0	8772	2050.336494420213	2
0	8778	2051.435135586043	1
0	8784	2051.763757851198	0
0	8800	2053.417771825578	1
0	8802	2053.546399506235	2
0	8805	2055.314359215168	1
0	8811	2055.536935459699	0
0	8823	2057.51054963656	1
0	8824	2058.672928526874	0
0	8837	2059.515867289692	1
0	8839	2059.977893095673	2
0	8840	2061.05656693062	1
0	8845	2061.143913934869	0
0	8879	2068.620066309857	1
0	8881	2069.551314925805	2
0	8885	2070.466754353499	3
0	8886	2073.941863154234	2
0	8893	2075.739948871081	3
0	8894	2075.925405270631	2
0	8900	2077.364269892867	1
0	8906	2077.732491982422	2
0	8909	2078.468642778893	3
0	8911	2078.863289816235	4
0	8913	2079.838277578031	3
0	8919	2080.58703062797	2
0	8924	2081.509404145275	1
0	8930	2081.7680226125	2
0	8931	2082.062101409296	1
0	8936	2082.351220911934	0
0	8960	2089.258042421771	1
0	8961	2089.386690567819	0
0	8979	2091.609830818018	1
0	8981	2091.695432047465	2
0	8982	2091.966309437644	1
0	8992	2094.572279010949	0
0	9012	2097.355725466534	1
0	9014	2098.048355146338	0
0	9027	2100.046754216288	1
0	9031	2101.840599074394	0
0	9042	2102.646394293155	1
0	9048	2103.487269469798	2
0	9052	2105.155835749902	1
0	9057	2105.269214649902	0
0	9071	2106.568604121751	1
0	9073	2106.73170953721	2
0	9075	2108.183531585909	3
0	9076	2108.361719451158	2
0	9081	2108.85951076486	1
0	9087	2109.006626092716	2
0	9088	2109.134562113514	1
0	9094	2109.995457763093	0
0	9100	2110.343351984126	1
0	9102	2111.190625176637	2
0	9103	2111.300038311061	1
0	9109	2112.231058450999	0
0	9122	2113.913848912254	1
0	9123	2113.929080106689	0
0	9145	2117.523434428501	1
0	9148	2117.739226681505	0
0	9187	2126.219645573144	1
0	9193	2133.714775859359	0
0	9220	2137.849701328956	1
0	9221	2140.492596178129	0
0	9275	2153.975567502212	1
0	9276	2154.023397816249	0
0	9282	2154.195631727267	1
0	9288	2156.128120188827	2
0	9289	2156.732818878338	1
0	9295	2157.087258517988	2
0	9300	2162.189474308143	1
0	9305	2162.403005046588	0
0	9367	2171.817373114299	1
0	9369	2171.929440280924	2
0	9370	2172.281503714223	1
0	9380	2175.035000073765	2
0	9382	2176.08607893769	1
0	9387	2176.280921757422	0
0	9424	2182.200413331316	1
0	9426	2182.370773774591	0
0	9432	2182.516315121654	1
0	9435	2183.616298577518	0
0	9451	2191.914583422831	1
0	9455	2192.495704821996	2
0	9457	2193.929034218683	3
0	9458	2195.529575203729	2
0	9463	2195.97480441594	1
0	9470	2196.490336889785	0
0	9484	2200.404806872123	1
0	9486	2200.641596928738	2
0	9488	2204.267841092649	3
0	9491	2205.969092270032	2
0	9500	2207.65407335775	3
0	9503	2210.011126389376	2
0	9509	2210.6315702589	3
0	9511	2210.892660533036	2
0	9516	2211.389021197742	1
0	9527	2212.987533140705	0
0	9559	2219.564498253397	1
0	9560	2220.126596171305	0
0	9574	2224.793418692759	1
0	9576	2227.06552421609	2
0	9578	2227.14460858992	3
0	9579	2228.514796195232	2
0	9587	2231.201591516312	1
0	9595	2232.940958826175	0
0	9601	2233.59089457613	1
0	9603	2234.050049593337	2
0	9606	2234.294432091046	3
0	9609	2234.974796416829	2
0	9616	2236.572366041718	1
0	9622	2236.641894159464	2
0	9623	2236.759657731925	1
0	9630	2237.507971837072	0
0	9669	2242.839629511365	1
0	9671	2242.998642545268	2
0	9673	2243.429676179734	3
0	9674	2243.815452556563	2
0	9680	2243.866512584091	3
0	9681	2244.280670159393	2
0	9687	2245.241143498081	3
0	9689	2246.023260776248	2
0	9699	2246.399227667841	1
0	9704	2246.557063489823	0
0	9726	2250.72490010261	1
0	9728	2251.823356364889	2
0	9729	2252.536216949931	1
0	9734	2252.546319468951	0
0	9740	2252.666849345898	1
0	9741	2252.929130792323	0
0	9749	2253.4555555481	1
0	9750	2253.725336538064	0
0	9760	2255.790120211158	1
0	9765	2259.309583475706	0
0	9778	2260.83443317187	1
0	9781	2261.884945160647	0
0	9806	2266.940031606131	1
0	9807	2266.968468238503	0
0	9815	2268.816447841428	1
0	9820	2270.796779511193	2
0	9822	2271.178252096415	3
0	9823	2271.338764742613	2
0	9828	2271.454892825817	1
0	9834	2271.565398349016	2
0	9836	2272.296858244883	3
0	9839	2272.651262440392	4
0	9840	2273.381376172497	3
0	9847	2273.7698981828	2
0	9852	2273.968617218503	1
0	9859	2275.847738383184	0
0	9863	2277.227148546781	1
0	9866	2278.418401844038	0
0	9872	2279.052607053354	1
0	9873	2279.849052849398	0
0	9892	2282.074405943289	1
0	9897	2282.760426890784	2
0	9899	2283.398373427231	1
0	9905	2283.903751594488	0
0	9924	2285.795331933058	1
0	9926	2289.992719416833	2
0	9927	2290.252929840049	1
0	9935	2290.571541172807	2
0	9936	2291.172192892209	1
0	9942	2291.424583683831	0
0	9953	2293.27130305043	1
0	9956	2293.799577140664	0
0	9974	2298.940261120443	1
0	9977	2301.7955797423	0
0	9986	2302.200041689143	1
0	9988	2302.337230055275	2
0	9994	2303.179298660716	3
0	9996	2303.502852170379	2
0	10001	2303.689876185397	1
0	10006	2304.434187867789	0
0	10025	2307.647227014526	1
0	10033	2309.020086084579	2
0	10035	2309.079322018733	3
0	10038	2309.735645938262	4
0	10039	2310.318933263386	3
0	10045	2310.738044820902	2
0	10051	2310.763458151105	3
0	10052	2310.958003906227	2
0	10057	2311.581566426775	1
0	10062	2312.573636224034	0
0	10068	2312.620465682245	1
0	10072	2313.069881261176	0
0	10083	2313.320449936206	1
0	10084	2313.715080020959	0
0	10104	2319.021427699366	1
0	10113	2326.048612782406	0
0	10128	2329.836087594682	1
0	10131	2331.046606685486	0
0	10155	2335.699398162029	1
0	10156	2335.865724882374	0
0	10169	2338.60788711977	1
0	10171	2340.675436831404	0
0	10177	2341.032100416524	1
0	10178	2341.426693563312	0
0	10184	2341.565688959223	1
0	10185	2341.892228168348	0
0	10220	2350.411794834223	1
0	10221	2350.72347421606	0
0	10237	2353.084470834781	1
0	10240	2354.822602655736	0
0	10265	2358.627249905609	1
0	10266	2358.684770925998	0
0	10273	2359.249284692875	1
0	10275	2360.649789756769	2
0	10276	2360.736732757694	1
0	10283	2364.852451094914	2
0	10288	2366.571012628801	1
0	10294	2366.664985291486	2
0	10295	2366.829390970011	1
0	10300	2367.661721130596	0
0	10331	2371.463209541116	1
0	10333	2372.220877162976	0
0	10339	2372.235887220947	1
0	10343	2373.238650205206	0
0	10356	2374.980453379637	1
0	10357	2375.068103703194	0
0	10382	2382.961594863064	1
0	10383	2383.001556961036	0
0	10511	2418.874375565946	1
0	10512	2419.539363238016	0
0	10536	2441.312066111274	1
0	10540	2443.633866179604	2
0	10541	2443.741702681444	1
0	10547	2444.624563314274	2
0	10548	2444.662290261382	1
0	10553	2445.023728770634	0
0	10574	2449.892746972975	1
0	10578	2451.080594646962	2
0	10580	2451.620080923019	3
0	10587	2453.0811219976	2
0	10592	2453.847131104755	1
0	10597	2455.972705534818	0
0	10638	2463.476495442791	1
0	10640	2463.52512021863	2
0	10642	2464.194776611655	3
0	10643	2465.941877851805	2
0	10648	2466.231713697536	1
0	10653	2466.32464637443	0
0	10666	2467.321828421809	1
0	10667	2467.999228164328	0
0	10701	2473.503060812959	1
0	10703	2474.597346159281	0
0	10714	2476.148139919631	1
0	10718	2479.253337622335	2
0	10719	2479.78762763357	1
0	10724	2480.429530226331	0
0	10773	2495.476635397881	1
0	10775	2495.956770323291	0
0	10790	2504.192612042522	1
0	10791	2504.624317871347	0
0	10839	2514.601411403331	1
0	10841	2515.459177443854	2
0	10842	2515.928923810496	1
0	10850	2517.117158145263	0
0	10896	2528.703901702739	1
0	10897	2528.869738989761	0
0	10964	2548.761883651306	1
0	10967	2550.944919181474	2
0	10971	2552.443365898843	3
0	10973	2553.151895972826	4
0	10978	2555.644741141962	3
0	10983	2555.716094589892	2
0	10989	2556.429046197519	1
0	10994	2556.802460060782	0
0	11038	2568.801128140068	1
0	11040	2569.252633552335	2
0	11044	2570.109051951131	3
0	11046	2570.262660127502	4
0	11050	2574.024781213461	3
0	11055	2574.389370427014	2
0	11061	2574.596020994887	1
0	11070	2579.789835857836	0
0	11077	2580.417147625205	1
0	11078	2581.114588712897	0
0	11090	2582.165428394028	1
0	11091	2582.524538337851	0
0	11139	2601.627779256058	1
0	11143	2601.95952554524	2
0	11145	2602.115012927325	3
0	11147	2603.04321538098	2
0	11153	2603.209743484966	3
0	11157	2608.624924998006	2
0	11162	2609.102058986858	1
0	11167	2609.580493162451	0
0	11185	2612.723495884126	1
0	11188	2615.021034442491	0
0	11207	2618.72626130137	1
0	11212	2621.250412510764	0
0	11218	2621.457829819112	1
0	11220	2623.06024691142	0
0	11237	2625.98827208146	1
0	11239	2626.197019217121	2
0	11241	2626.455423040097	3
0	11243	2626.675012328507	4
0	11244	2627.320772306272	3
0	11252	2628.143627298889	2
0	11258	2629.172345821197	1
0	11267	2630.267223334696	2
0	11268	2631.034077558535	1
0	11274	2632.051838182728	2
0	11275	2633.016510542438	1
0	11280	2633.180529543978	0
0	11323	2640.55858841807	1
0	11326	2641.438469774854	0
0	11333	2642.575772324648	1
0	11334	2642.852876771814	0
0	11350	2645.88475758575	1
0	11354	2646.885637305719	2
0	11355	2647.153004322613	1
0	11360	2647.167765112654	0
0	11387	2655.795773472619	1
0	11388	2656.23688184552	0
0	11412	2663.996322057253	1
0	11414	2665.047945180036	2
0	11415	2665.108704258062	1
0	11420	2665.474536139147	0
0	11476	2674.408449052512	1
0	11483	2677.761203715083	2
0	11484	2679.759813311502	1
0	11490	2680.180857121607	2
0	11493	2680.599287620343	3
0	11498	2682.911667025133	2
0	11503	2683.098221626474	1
0	11508	2683.356013147834	0
0	11514	2683.903003871393	1
0	11516	2683.904468674552	2
0	11517	2683.918313714917	1
0	11525	2685.090714356725	2
0	11526	2686.03140569955	1
0	11532	2686.075369310507	2
0	11534	2688.476732342448	3
0	11538	2688.547606622985	4
0	11543	2689.609161219127	5
0	11545	2689.804614843452	6
0	11550	2690.469993644274	5
0	11558	2692.078925794557	6
0	11563	2693.070696217247	5
0	11568	2693.838096033699	4
0	11573	2695.323923456981	3
0	11578	2695.627293237964	2
0	11585	2695.707257002223	3
0	11586	2695.731382904551	2
0	11592	2695.935037023525	3
0	11595	2696.471550076485	2
0	11599	2697.686336299219	3
0	11601	2698.063202182618	4
0	11607	2700.034291980589	3
0	11613	2700.06036971353	4
0	11614	2700.800663190482	3
0	11623	2703.467611352272	2
0	11629	2704.107529586776	1
0	11634	2704.832035129938	0
0	11640	2705.836592344592	1
0	11642	2706.096602526283	2
0	11644	2706.525128761638	1
0	11650	2707.798048537279	0
0	11656	2708.148894368443	1
0	11658	2708.628801085434	0
0	11669	2709.138062962159	1
0	11675	2710.018514324516	0
0	11730	2718.059332146353	1
0	11731	2718.201502779637	0
0	11763	2721.301210769737	1
0	11764	2721.472983091092	0
0	11814	2732.764082564433	1
0	11817	2735.783112510238	0
0	11826	2736.690236065142	1
0	11832	2742.898526793685	0
0	11843	2744.760293356294	1
0	11845	2745.327029637169	2
0	11846	2746.402806910013	1
0	11851	2746.72885363039	0
0	11873	2749.323602687432	1
0	11874	2750.922905579583	0
0	11890	2752.665783390613	1
0	11892	2753.096302714768	0
0	11905	2754.702515143276	1
0	11906	2755.085786074226	0
0	11935	2758.847616181811	1
0	11937	2759.421899687223	2
0	11938	2759.742772200673	1
0	11943	2759.819259809999	0
0	11951	2760.647678602148	1
0	11954	2761.580776150407	0
0	11960	2761.863294081972	1
0	11964	2762.259563529739	2
0	11966	2762.667665219249	3
0	11968	2762.835133132718	4
0	11969	2763.428975665395	3
0	11976	2764.304657812606	2
0	11982	2765.199736387645	1
0	11989	2767.307215400892	0
0	12022	2774.336230900095	1
0	12024	2775.535981695578	2
0	12026	2777.523979590944	3
0	12027	2777.936942541032	2
0	12033	2778.130415572205	3
0	12034	2778.650092330665	2
0	12039	2779.77410710763	1
0	12047	2780.540482147211	0
0	12071	2784.049332623767	1
0	12081	2787.884072030168	0
0	12102	2794.896362399471	1
0	12103	2795.054873340335	0
0	12130	2797.580331376709	1
0	12134	2799.625386114522	0
0	12140	2799.779563708404	1
0	12142	2802.095165404902	0
0	12164	2805.603263346741	1
0	12166	2806.853984609455	0
0	12180	2808.297451126789	1
0	12181	2808.628154846718	0
0	12194	2810.022844315504	1
0	12196	2810.331166044432	2
0	12197	2810.494647730337	1
0	12202	2810.608835112496	0
0	12285	2832.901497653997	1
0	12287	2833.093566847927	0
0	12303	2839.296284696119	1
0	12305	2839.490581158185	2
0	12306	2839.845148435935	1
0	12312	2841.18140824803	0
0	12319	2841.76883607602	1
0	12320	2842.073061255267	0
0	12329	2843.285714134163	1
0	12330	2843.354019300835	0
0	12363	2852.576938662573	1
0	12364	2854.635936837078	0
0	12407	2874.321334660745	1
0	12408	2874.552794413098	0
0	12429	2876.936940602126	1
0	12431	2877.051601556492	2
0	12434	2878.396592873148	1
0	12442	2879.267417946267	2
0	12443	2879.950748864471	1
0	12448	2880.156624424346	0
0	12461	2881.556081335671	1
0	12462	2882.123333432242	0
0	12468	2883.396931653523	1
0	12469	2883.471179210395	0
0	12510	2898.911223141064	1
0	12512	2899.062551619386	2
0	12515	2900.667579392395	1
0	12521	2902.422323762442	0
0	12534	2907.942427504631	1
0	12535	2909.25531558657	0
0	12630	2933.579933447725	1
0	12632	2934.080021511291	2
0	12634	2934.460629457608	3
0	12637	2935.373268309591	2
0	12643	2936.386149139849	1
0	12649	2937.581770939233	0
0	12671	2945.145424426906	1
0	12672	2945.700984067256	0
0	12695	2951.555524309529	1
0	12698	2951.85946062436	0
0	12710	2953.168258937822	1
0	12711	2954.095055549007	0
0	12717	2954.767781026587	1
0	12718	2954.793549629328	0
0	12724	2955.138759807435	1
0	12728	2956.529857678888	0
0	12769	2962.301643113567	1
0	12771	2963.276317996535	0
0	12778	2963.670076235739	1
0	12779	2965.411963011233	0
0	12793	2974.278318511326	1
0	12795	2975.552707066064	2
0	12796	2975.799551416013	1
0	12801	2976.375777809819	0
0	12810	2977.402702944559	1
0	12811	2977.599433734606	0
0	12822	2978.537946385632	1
0	12823	2978.67818543191	0
0	12831	2980.033025082729	1
0	12832	2980.164041532315	0
0	12854	2982.436721291084	1
0	12855	2982.775095485499	0
0	12896	2990.19636324978	1
0	12898	2990.349945836569	2
0	12901	2990.695977304082	3
0	12902	2990.908656831265	2
0	12908	2991.363754465474	1
0	12913	2991.533098653318	0
0	12927	2992.845229062089	1
0	12932	2994.092324994864	2
0	12934	2996.491984693508	3
0	12936	2996.794578575045	4
0	12940	2998.014209893164	3
0	12945	2998.127862904009	2
0	12952	2999.461500159155	3
0	12953	2999.926881223434	2
0	12958	2999.969968632124	1
0	12963	3000.318088404591	0
0	12970	3001.7783792931	1
0	12971	3002.430630991012	0
0	12982	3003.198753258847	1
0	12986	3005.544019482985	2
0	12987	3005.609888304349	1
0	12992	3006.425592719148	0
0	12999	3006.605802339256	1
0	13000	3007.256969378726	0
0	13012	3008.207683436446	1
0	13014	3009.552402669471	0
0	13020	3009.622368934058	1
0	13024	3009.743398519059	2
0	13025	3011.283618565691	1
0	13032	3014.169697228663	0
0	13040	3015.891287012466	1
0	13042	3017.332374534673	0
0	13048	3017.551005339207	1
0	13050	3018.600599555776	0
0	13065	3022.030312411542	1
0	13068	3023.403162186237	2
0	13074	3024.553189686472	1
0	13080	3024.94550572975	0
0	13118	3029.54333196542	1
0	13120	3029.695774794367	2
0	13122	3030.044720806307	3
0	13124	3030.478736820192	2
0	13129	3030.996954070201	1
0	13135	3031.000097200283	2
0	13136	3031.127852611482	1
0	13145	3032.680786464465	0
0	13185	3042.104139823749	1
0	13188	3044.62055631843	0
0	13210	3046.788131693517	1
0	13211	3047.161335898348	0
0	13223	3047.885156065287	1
0	13226	3048.790858906089	0
0	13258	3055.554838573674	1
0	13261	3057.336834342487	0
0	13281	3063.192077931187	1
0	13283	3063.200489235176	2
0	13284	3064.654601463328	1
0	13290	3064.890628498385	0
0	13328	3074.990773374552	1
0	13329	3075.153414389332	0
0	13348	3079.519113473356	1
0	13352	3081.200718806114	2
0	13353	3081.618928441726	1
0	13358	3082.957659149102	0
0	13365	3084.616531257811	1
0	13367	3088.324929274588	0
0	13383	3094.237747208132	1
0	13387	3096.672590512837	2
0	13388	3096.688667447913	1
0	13393	3097.571288242271	0
0	13406	3099.948601585882	1
0	13407	3101.133153158224	0
0	13414	3102.173236113186	1
0	13415	3103.746710406255	0
0	13465	3110.700387283641	1
0	13466	3111.179038414392	0
0	13526	3129.46074895142	1
0	13527	3129.651568624032	0
0	13541	3132.768996480304	1
0	13542	3133.230623398682	0
0	13548	3133.264931617473	1
0	13550	3134.087022016314	0
0	13572	3137.434416517524	1
0	13574	3137.567126248765	2
0	13577	3137.718807645562	1
0	13583	3138.789278338069	0
0	13590	3138.941848755734	1
0	13591	3139.302882820836	0
0	13610	3144.026982341076	1
0	13611	3144.28398400266	0
0	13642	3152.069941349823	1
0	13644	3154.397266869591	0
0	13689	3177.657325409793	1
0	13692	3178.864237721131	0
0	13713	3182.480857462475	1
0	13715	3182.907421662688	2
0	13716	3183.057302386039	1
0	13725	3185.221293786569	0
0	13736	3185.620060382341	1
0	13737	3186.846625082943	0
0	13744	3188.447203101916	1
0	13747	3189.132177934172	0
0	13780	3194.36932108848	1
0	13782	3194.524961798395	2
0	13787	3196.034092717118	3
0	13790	3198.396650121015	2
0	13796	3198.814433387148	1
0	13803	3199.957345887077	2
0	13806	3201.002519932354	1
0	13815	3202.751422922313	0
0	13828	3204.453415434945	1
0	13830	3205.75620842681	2
0	13831	3206.693121607318	1
0	13838	3208.906795619416	2
0	13839	3208.968343413978	1
0	13844	3208.992664684069	0
0	13852	3209.425271383894	1
0	13853	3209.688588036346	0
0	13866	3211.646037085529	1
0	13873	3213.327691475548	2
0	13874	3213.909174312442	1
0	13879	3213.927070442792	0
0	13890	3215.92613973461	1
0	13891	3215.990113140998	0
0	13902	3216.434612266699	1
0	13904	3216.505294889843	0
0	13957	3226.836681617933	1
0	13960	3229.332711126691	0
0	13977	3232.008522071011	1
0	13978	3232.830390214148	0
0	14019	3238.773194715462	1
0	14020	3239.404257217707	0
0	14060	3251.507271262541	1
0	14061	3252.429376157336	0
0	14083	3257.156503427911	1
0	14087	3260.107637388706	0
0	14093	3260.121217316582	1
0	14094	3260.445249852369	0
0	14109	3263.386875880013	1
0	14111	3264.269106570099	0
0	14185	3283.49715612651	1
0	14186	3283.92101433975	0
0	14206	3294.128152975178	1
0	14208	3294.156504015971	2
0	14212	3295.593803231248	1
0	14217	3296.025326152498	0
0	14248	3310.265623340735	1
0	14249	3311.969998314124	0
0	14255	3312.225143416317	1
0	14256	3312.414342476475	0
0	14263	3312.956491870721	1
0	14264	3313.166943182891	0
0	14326	3328.470504370258	1
0	14327	3328.613297778976	0
0	14334	3329.259592520134	1
0	14336	3330.077065544553	0
0	14356	3332.422256772868	1
0	14358	3335.125004446583	0
0	14381	3338.534732467658	1
0	14382	3339.389793043814	0
0	14395	3340.164325538936	1
0	14396	3341.333060557177	0
0	14415	3344.131155631862	1
0	14417	3344.172634512925	2
0	14419	3346.819466102951	3
0	14424	3347.911213351608	2
0	14430	3347.966910860894	3
0	14432	3348.56997400796	2
0	14440	3350.042343443465	3
0	14442	3350.357877426308	2
0	14447	3350.880271936418	1
0	14452	3351.602877052555	0
0	14480	3355.894849094309	1
0	14481	3356.31141968675	0
0	14495	3360.945263521473	1
0	14499	3362.990603219781	0
0	14526	3374.416711895096	1
0	14529	3376.493460618563	0
0	14561	3382.046434147296	1
0	14563	3383.362366139978	0
0	14577	3384.78328500394	1
0	14579	3384.875794556067	2
0	14580	3385.38522869815	1
0	14586	3385.53433321085	2
0	14587	3386.229460885468	1
0	14593	3386.687696434263	0
0	14615	3392.920784220159	1
0	14616	3393.364923063328	0
0	14644	3401.637444550412	1
0	14646	3401.733931551974	2
0	14648	3402.318432786424	3
0	14649	3402.911307058695	2
0	14654	3403.080228318894	1
0	14659	3403.638367282802	0
0	14669	3406.649629919161	1
0	14671	3406.743705635569	2
0	14674	3407.025497028142	3
0	14676	3407.503306806106	2
0	14682	3407.613389540222	1
0	14689	3408.310911917855	2
0	14691	3408.576024309457	3
0	14693	3409.116896659392	4
0	14694	3409.384825841839	3
0	14700	3409.641326435913	4
0	14702	3410.537789750302	5
0	14703	3410.571031606568	4
0	14708	3410.663507903058	3
0	14713	3411.131275012864	2
0	14718	3411.136248203977	1
0	14724	3411.276803437732	2
0	14725	3411.445581483723	1
0	14731	3411.93662298464	2
0	14732	3412.851539121334	1
0	14736	3413.026180136145	2
0	14738	3413.742572274787	3
0	14741	3414.311704214874	2
0	14746	3414.573171951985	1
0	14753	3415.498421992494	0
0	14807	3429.425885422491	1
0	14812	3431.832739756624	0
0	14829	3434.087753134877	1
0	14830	3434.243272693595	0
0	14863	3446.266290769578	1
0	14864	3446.686395902896	0
0	14871	3447.686913383265	1
0	14874	3448.77053302594	0
0	14881	3449.775041146953	1
0	14885	3451.371563639095	2
0	14886	3453.844059797676	1
0	14891	3454.000550380408	0
0	14909	3455.235021057859	1
0	14911	3455.314282546443	2
0	14913	3455.496926449547	3
0	14916	3457.521033561244	4
0	14919	3457.8850557706	3
0	14926	3460.303028713782	2
0	14931	3460.893716699953	1
0	14938	3461.398454352441	0
0	14951	3463.467484125439	1
0	14953	3463.577744041637	0
0	14966	3464.645411233892	1
0	14967	3465.209691510309	0
0	14975	3465.773128557086	1
0	14978	3466.817720287118	0
0	15024	3474.474512800447	1
0	15025	3474.655178450509	0
0	15044	3479.605226884814	1
0	15047	3481.403287710984	0
0	15077	3493.243339291398	1
0	15086	3496.844176794925	0
0	15098	3499.581436950508	1
0	15099	3499.678531569424	0
0	15106	3502.56301976648	1
0	15107	3502.806512717124	0
0	15115	3503.837468662743	1
0	15116	3503.910088955595	0
0	15133	3505.117621529782	1
0	15136	3505.242455779029	2
0	15137	3505.460929169109	1
0	15142	3505.595313837052	0
0	15151	3507.122287332334	1
0	15154	3508.862134777187	0
0	15163	3511.654819349356	1
0	15169	3513.957166481026	0
0	15180	3514.682866689146	1
0	15184	3515.661569905439	0
0	15209	3519.912051534429	1
0	15210	3520.371066180105	0
0	15241	3531.111743542319	1
0	15244	3532.640004385502	0
0	15291	3542.529885162296	1
0	15293	3542.747737255108	2
0	15295	3543.454362220881	1
0	15301	3543.506863172158	2
0	15303	3543.611087460796	3
0	15304	3544.268711903411	2
0	15309	3544.586387490752	1
0	15317	3545.395120582437	0
0	15340	3550.275218543001	1
0	15341	3550.406802288103	0
0	15357	3552.266001411323	1
0	15360	3553.125329742103	2
0	15362	3553.228016525627	3
0	15363	3553.621361667282	2
0	15370	3554.529174640931	1
0	15378	3556.315005800716	0
0	15417	3564.235296094249	1
0	15419	3565.054616054597	0
0	15471	3590.099524314433	1
0	15473	3590.163161855312	2
0	15475	3590.546596839732	3
0	15477	3590.576651006153	4
0	15478	3590.58318292649	3
0	15483	3591.05011830255	2
0	15490	3591.504602743454	1
0	15497	3592.884143102706	0
0	15619	3621.808141776421	1
0	15621	3624.628615128945	0
0	15645	3629.441605285662	1
0	15647	3629.847711100164	2
0	15648	3631.51102711599	1
0	15653	3631.805857687118	0
0	15661	3632.836039487169	1
0	15662	3632.871608404721	0
0	15684	3636.324600999515	1
0	15685	3636.608720130501	0
0	15707	3641.03795240372	1
0	15712	3642.230269680232	0
0	15777	3663.746577322824	1
0	15779	3664.664724658319	0
0	15828	3674.629378483446	1
0	15829	3674.762243407385	0
0	15864	3683.683396045596	1
0	15867	3684.598316256375	0
0	15897	3692.482083380897	1
0	15899	3693.539509691624	2
0	15903	3694.246108860983	1
0	15908	3694.705415020219	0
0	15960	3714.212531865061	1
0	15964	3714.266086710501	2
0	15971	3714.708280229172	3
0	15972	3714.834050641788	2
0	15978	3715.34661619859	1
0	15984	3716.313949067947	0
0	15996	3716.889293676426	1
0	15999	3718.378579047553	0
0	16005	3719.505888234105	1
0	16006	3719.75218357595	0
0	16012	3720.174093204625	1
0	16013	3720.373083046111	0
0	16020	3721.731657116303	1
0	16023	3722.726629376664	0
0	16053	3729.221783571515	1
0	16060	3731.372625953878	0
0	16068	3731.993087798513	1
0	16070	3732.047338822628	2
0	16072	3732.072237710615	3
0	16073	3732.119310641758	2
0	16081	3734.161845575635	3
0	16083	3735.038028259793	2
0	16090	3736.182142753711	3
0	16094	3736.728058769233	4
0	16095	3737.695919525306	3
0	16105	3741.527034389514	2
0	16111	3742.439083191805	1
0	16118	3742.651871896285	2
0	16121	3743.285903758472	3
0	16123	3743.560205984861	4
0	16125	3744.709854401147	3
0	16131	3744.840804153235	4
0	16133	3745.170191504438	3
0	16143	3746.971688139232	4
0	16144	3747.276120586108	3
0	16150	3748.241376776688	4
0	16152	3748.96294734873	5
0	16153	3750.250876242783	4
0	16159	3751.009912395791	5
0	16164	3751.439922068167	4
0	16169	3751.703130707417	3
0	16179	3753.69581545233	2
0	16184	3754.295946435583	1
0	16189	3754.453925020391	0
0	16193	3754.557166300989	1
0	16197	3756.570625267262	2
0	16203	3757.429835685612	3
0	16208	3759.382071065827	2
0	16217	3761.161161062221	1
0	16222	3761.205715542677	0
0	16249	3764.847204618049	1
0	16251	3765.408092858371	0
0	16275	3770.82414076667	1
0	16279	3771.280204885098	2
0	16282	3773.329495953895	1
0	16287	3773.762167746992	0
0	16300	3774.915945062799	1
0	16302	3775.515468193495	2
0	16310	3777.332526795447	3
0	16311	3777.654506296407	2
0	16316	3777.853426350137	1
0	16322	3778.001129521091	0
0	16337	3785.406450550252	1
0	16339	3785.412001235856	2
0	16340	3786.009737149877	1
0	16347	3786.540251704335	2
0	16348	3787.001793090254	1
0	16353	3787.287912192754	0
0	16384	3798.230011300518	1
0	16390	3801.330620937925	0
0	16396	3801.35783346159	1
0	16397	3801.932873533002	0
0	16406	3802.738008853204	1
0	16409	3804.678479451534	0
0	16424	3808.560109855904	1
0	16428	3809.731601062166	0
0	16434	3810.517728714711	1
0	16435	3810.549580463898	0
0	16454	3811.910747412294	1
0	16460	3815.155802552214	0
0	16481	3819.25180290102	1
0	16482	3819.438147595997	0
0	16507	3824.465877774133	1
0	16517	3830.099844463927	2
0	16519	3830.116536254502	3
0	16521	3831.89791321784	4
0	16523	3832.864958189956	5
0	16524	3833.797801734218	4
0	16532	3834.880983561682	3
0	16538	3835.462629802566	2
0	16545	3836.329321886452	3
0	16546	3836.588437797107	2
0	16551	3837.757340104613	1
0	16557	3840.015099108139	2
0	16558	3840.30958434753	1
0	16565	3841.532171864604	2
0	16566	3841.605969952781	1
0	16571	3841.756118084592	0
0	16577	3843.042951432001	1
0	16578	3843.509752586435	0
0	16584	3845.078814370678	1
0	16587	3846.06204569558	0
0	16591	3846.814099617169	1
0	16597	3850.181359483823	0
0	16614	3850.767847820353	1
0	16617	3853.063875429706	0
0	16633	3853.989269476465	1
0	16637	3854.433176238379	2
0	16638	3854.80526769435	1
0	16643	3855.23017060782	0
0	16647	3855.322609563796	1
0	16655	3858.716484572669	2
0	16657	3859.597242628257	1
0	16665	3863.407439081819	2
0	16667	3863.68078002339	1
0	16673	3863.883622165586	2
0	16675	3864.559214773464	1
0	16685	3866.67414787373	0
0	16691	3866.915065369609	1
0	16693	3867.249149387357	2
0	16698	3867.882661751758	3
0	16701	3867.954776193876	2
0	16706	3868.110849745567	1
0	16712	3868.456621597773	2
0	16716	3870.11705681881	1
0	16721	3870.286564284496	0
0	16756	3873.87095658702	1
0	16760	3875.701060424763	0
0	16766	3875.973329029234	1
0	16769	3876.650496847048	2
0	16770	3876.837502155488	1
0	16775	3877.388277589581	0
0	16784	3878.986094246422	1
0	16789	3879.577461323246	0
0	16798	3880.577660343769	1
0	16800	3880.690067420877	2
0	16802	3880.782446901402	3
0	16804	3880.792904320576	4
0	16809	3881.778130366993	5
0	16812	3883.126164953854	6
0	16814	3883.542858490793	7
0	16817	3886.473829929074	6
0	16823	3886.969282183843	5
0	16828	3887.030337125564	4
0	16833	3887.118367140807	3
0	16837	3887.678396691458	4
0	16842	3890.209237209643	3
0	16849	3891.858936366864	4
0	16850	3893.187608574837	3
0	16859	3893.778090037376	4
0	16861	3894.901531968002	5
0	16866	3896.075174292138	6
0	16867	3896.729374905706	5
0	16872	3896.889527329997	4
0	16877	3897.030897509454	3
0	16882	3897.641227127693	2
0	16890	3899.212932282503	3
0	16891	3899.221208038089	2
0	16895	3899.226596830226	3
0	16901	3899.852776559233	4
0	16905	3900.659642015588	3
0	16911	3902.136133443636	4
0	16914	3902.770065941504	3
0	16923	3905.674164845002	4
0	16924	3905.731479204987	3
0	16932	3907.260553167607	4
0	16934	3908.147720036825	5
0	16935	3908.637864447525	4
0	16941	3911.145408514466	3
0	16947	3911.755068497868	2
0	16952	3911.895367754719	1
0	16956	3914.21282174297	2
0	16958	3916.65834585723	3
0	16964	3920.025336339992	4
0	16965	3920.063829699482	3
0	16976	3922.906121973801	4
0	16977	3924.394045444111	3
0	16985	3925.790018178074	4
0	16990	3928.598211171564	5
0	16991	3928.650357260482	4
0	16996	3929.473094909043	3
0	17002	3930.697033129804	4
0	17003	3931.872683942416	3
0	17009	3931.936542018813	4
0	17011	3932.075367162689	3
0	17018	3932.248933279316	4
0	17020	3932.518192594506	5
0	17021	3933.278760210927	4
0	17026	3933.339900959338	3
0	17031	3933.351802563639	2
0	17037	3933.976326330994	3
0	17038	3935.77543413193	2
0	17045	3937.782471150781	3
0	17046	3937.966094625371	2
0	17054	3939.762694756414	3
0	17056	3940.184557426677	2
0	17061	3940.528147229467	1
0	17069	3941.333263538854	2
0	17070	3942.041340832312	1
0	17076	3942.298237257322	2
0	17077	3942.529969147257	1
0	17081	3942.57116689466	2
0	17088	3944.490598486001	1
0	17095	3944.59387015199	0
0	17106	3945.504341004692	1
0	17107	3947.322244173134	0
0	17117	3949.434021370158	1
0	17119	3949.763410760709	2
0	17122	3949.931016509772	3
0	17124	3951.078249124158	2
0	17133	3952.774327479702	3
0	17135	3954.296082816848	4
0	17137	3955.471667155814	3
0	17144	3955.563264382153	2
0	17152	3956.890106781754	3
0	17156	3957.748853844465	2
0	17162	3958.26824006842	1
0	17168	3958.541285292442	2
0	17169	3959.013764883495	1
0	17174	3959.533434292066	0
0	17197	3960.60055815088	1
0	17199	3960.734319771404	2
0	17201	3961.391618886829	1
0	17208	3963.279123816095	2
0	17211	3964.47560712963	1
0	17216	3964.815382955429	0
0	17241	3969.706272496287	1
0	17242	3970.136031269539	0
0	17258	3975.515833873526	1
0	17260	3976.419592696091	0
0	17271	3977.155060319225	1
0	17273	3977.866766464945	2
0	17280	3982.560459197954	1
0	17288	3983.847438225498	2
0	17290	3983.934965142248	3
0	17291	3984.971652998476	2
0	17298	3985.436252654453	3
0	17300	3985.574075585431	4
0	17302	3985.74097212281	5
0	17305	3986.793118850078	4
0	17310	3987.592071904293	3
0	17315	3988.124484795096	2
0	17321	3989.839769628384	1
0	17326	3989.997143902656	0
0	17367	3998.608664989969	1
0	17369	3999.257060965568	0
0	17375	3999.427298772846	1
0	17376	4000.665611106762	0
0	17389	4002.320487542797	1
0	17397	4006.341208253823	0
0	17409	4009.548344162585	1
0	17412	4011.387473816452	0
0	17420	4012.825859167686	1
0	17421	4013.138408637831	0
0	17455	4022.843796694405	1
0	17456	4025.724540195989	0
0	17470	4028.42424809232	1
0	17475	4031.504700782163	2
0	17480	4032.714128395589	1
0	17485	4033.553646939768	0
0	17491	4033.649845684562	1
0	17493	4034.451726489596	2
0	17496	4035.88377503455	1
0	17502	4036.155715542264	2
0	17503	4036.17429669215	1
0	17510	4037.01512485559	2
0	17511	4037.485481805797	1
0	17516	4038.049926891132	0
0	17527	4038.470278236129	1
0	17529	4038.515445571551	0
0	17569	4054.410417079019	1
0	17571	4054.783546763686	2
0	17572	4055.291330578462	1
0	17578	4055.646253661676	2
0	17580	4056.706816185652	3
0	17582	4056.941280931452	4
0	17584	4057.203112457808	5
0	17587	4057.75812549371	4
0	17599	4060.174303501961	5
0	17601	4060.381658180557	6
0	17602	4060.582002940745	5
0	17609	4060.764975631108	4
0	17614	4060.95649618453	3
0	17619	4061.096073118838	2
0	17625	4063.718510381913	1
0	17631	4065.617989752584	0
0	17655	4068.989027120569	1
0	17656	4069.632447948623	0
0	17689	4072.580056003557	1
0	17693	4076.002129625693	0
0	17699	4076.156535897216	1
0	17702	4077.15871519718	0
0	17723	4082.27416396831	1
0	17726	4083.619117055447	0
0	17741	4085.772884588879	1
0	17745	4087.32945602435	2
0	17746	4089.275224295695	1
0	17754	4090.286900277848	2
0	17758	4090.964250709453	3
0	17761	4091.482808554547	4
0	17766	4092.233189618261	5
0	17767	4092.727386556302	4
0	17772	4093.024427554683	3
0	17780	4093.909362171768	4
0	17782	4093.92339385148	5
0	17783	4094.261166297955	4
0	17788	4094.960026452307	3
0	17793	4094.984021211431	2
0	17798	4095.609275206193	1
0	17803	4096.511925689057	0
0	17807	4098.540145670231	1
0	17811	4099.778504460586	2
0	17814	4100.345669823966	1
0	17826	4102.499717783238	2
0	17829	4102.740075945933	3
0	17833	4103.188016701111	4
0	17835	4103.877750923835	5
0	17837	4104.194759433168	6
0	17841	4105.182119582456	7
0	17842	4105.877909010317	6
0	17847	4107.79162004468	5
0	17852	4108.001762894047	4
0	17858	4108.144304099486	5
0	17862	4111.108491452714	4
0	17868	4111.142266124832	3
0	17873	4111.426532934791	2
0	17881	4113.889762748432	3
0	17882	4114.119488192945	2
0	17887	4114.122680779692	1
0	17894	4117.209067608001	2
0	17895	4117.348707777737	1
0	17901	4117.365022689483	2
0	17906	4118.683910102703	1
0	17915	4120.286712663926	0
0	17921	4120.309902688261	1
0	17923	4120.356321333977	2
0	17928	4122.363790016741	1
0	17934	4122.441034468338	0
0	17958	4125.136416293609	1
0	17963	4128.574409632481	0
0	17985	4132.420201100746	1
0	17986	4133.484220335359	0
0	18002	4135.147153309294	1
0	18005	4136.551507481532	0
0	18031	4146.472239252754	1
0	18034	4147.280017455939	0
0	18073	4155.148494954463	1
0	18074	4157.285179356475	0
0	18086	4158.121856741475	1
0	18088	4158.164655364848	2
0	18095	4160.410764443243	3
0	18097	4161.287761123857	4
0	18099	4162.404350827572	5
0	18101	4162.628393137336	6
0	18102	4162.855448774462	5
0	18107	4162.874572189307	4
0	18112	4164.713964961167	3
0	18117	4165.092437368685	2
0	18124	4166.129502620597	1
0	18129	4166.438843108427	0
0	18135	4166.481895820566	1
0	18137	4166.567233096123	2
0	18138	4167.238997826492	1
0	18143	4167.317538138403	0
0	18173	4175.003384217744	1
0	18177	4175.516937341523	2
0	18179	4175.652091399545	3
0	18182	4176.397271621732	2
0	18189	4176.566818648558	1
0	18194	4176.568664885486	0
0	18207	4180.490655101641	1
0	18208	4181.125283486313	0
0	18222	4183.689882030812	1
0	18227	4185.422203842149	0
0	18233	4185.709756789212	1
0	18234	4186.288578804826	0
0	18263	4193.994021138574	1
0	18265	4194.644938655863	0
0	18274	4195.773478790292	1
0	18275	4195.897325990019	0
0	18281	4196.052033420494	1
0	18283	4196.737426031019	2
0	18285	4197.652531399202	1
0	18290	4198.156895997162	0
0	18327	4201.349719344034	1
0	18329	4202.58287539095	0
0	18447	4239.441672404979	1
0	18448	4239.526476793252	0
0	18468	4242.450757722742	1
0	18472	4242.982712204294	2
0	18475	4243.961768890828	1
0	18481	4244.421296443089	0
0	18509	4246.69763524432	1
0	18510	4246.920961286983	0
0	18520	4248.461982974487	1
0	18523	4248.661152780058	0
0	18558	4254.890265989674	1
0	18561	4255.784552044786	2
0	18562	4255.874980822603	1
0	18570	4257.742115855834	0
0	18585	4260.500598415285	1
0	18588	4261.937418432471	0
0	18623	4265.981693010002	1
0	18624	4267.069057650081	0
0	18662	4275.460310552446	1
0	18664	4275.631086442976	2
0	18665	4276.0370964046	1
0	18671	4277.908391662014	0
0	18685	4280.477217312705	1
0	18688	4281.658885089255	2
0	18689	4281.68264768542	1
0	18695	4282.261781943567	2
0	18698	4283.483864147259	1
0	18703	4283.763581174251	0
0	18732	4287.29783817976	1
0	18735	4288.168947405676	0
0	18801	4302.528012658829	1
0	18802	4303.169202074729	0
0	18809	4305.484590668757	1
0	18811	4306.492166210427	0
0	18817	4306.568052383696	1
0	18819	4307.526822308596	0
0	18826	4307.609338112251	1
0	18827	4308.055249565394	0
0	18893	4334.34179905999	1
0	18895	4334.826810387018	2
0	18896	4335.193278292666	1
0	18902	4336.65600118273	0
0	19000	4365.807394009083	1
0	19002	4366.127056487505	2
0	19008	4367.086784865538	3
0	19009	4368.498481278539	2
0	19015	4369.065589343846	1
0	19021	4370.062892927379	0
0	19066	4379.183463727964	1
0	19067	4379.714178538364	0
0	19095	4387.936871748013	1
0	19097	4388.566848512924	2
0	19098	4388.634844068786	1
0	19104	4388.985625049706	2
0	19106	4389.232465043028	3
0	19107	4389.256414824358	2
0	19112	4390.361812646149	1
0	19118	4390.756626061469	0
0	19131	4392.245723768451	1
0	19132	4392.874513649288	0
0	19167	4400.135883313367	1
0	19168	4400.484370295141	0
0	19174	4400.834124438403	1
0	19175	4401.330475162964	0
0	19188	4401.867109524414	1
0	19190	4402.412681017155	2
0	19193	4403.433761026685	3
0	19194	4404.548302487785	2
0	19200	4405.529882540909	1
0	19205	4405.632647904767	0
0	19219	4407.668624970599	1
0	19222	4409.575445350453	2
0	19224	4410.031824279262	1
0	19230	4410.339719606981	2
0	19233	4410.484838942665	3
0	19234	4411.425756911508	2
0	19240	4411.535223744299	3
0	19241	4411.540604177637	2
0	19246	4411.804737398665	1
0	19251	4412.025080167539	0
0	19281	4422.658079550906	1
0	19282	4423.045805028818	0
0	19296	4426.989719119194	1
0	19297	4427.625801296169	0
0	19336	4450.63914426303	1
0	19339	4452.366142102	0
0	19351	4453.202093593399	1
0	19353	4453.726333257786	2
0	19355	4453.976738992798	3
0	19357	4454.487177318069	4
0	19360	4455.522478691213	3
0	19366	4456.173866073479	2
0	19371	4456.918358508959	1
0	19378	4458.330247397785	2
0	19379	4458.809379225842	1
0	19384	4459.349848440238	0
0	19388	4459.74755724286	1
0	19390	4461.536170567638	2
0	19393	4462.669662435801	1
0	19402	4464.720525759256	0
0	19406	4467.344330157531	1
0	19411	4470.529264551997	0
0	19447	4475.001782021985	1
0	19449	4476.510601244993	0
0	19490	4486.216451824353	1
0	19493	4487.266116601158	2
0	19499	4491.361789046117	1
0	19506	4492.74048232791	2
0	19508	4494.358722997463	1
0	19516	4494.817979280704	0
0	19529	4495.79580386829	1
0	19531	4498.377177467043	2
0	19532	4499.414411620563	1
0	19537	4499.625744671431	0
0	19552	4504.608607255801	1
0	19553	4505.603292955943	0
0	19577	4510.086100187822	1
0	19578	4511.087616987498	0
0	19601	4515.642586236935	1
0	19602	4520.692397443096	0
0	19618	4522.208319689879	1
0	19619	4522.398322156503	0
0	19628	4524.041868367687	1
0	19631	4524.844233234636	0
0	19690	4542.310247002506	1
0	19691	4542.78862268525	0
0	19698	4543.772317480303	1
0	19699	4543.96348937514	0
0	19713	4545.519435953279	1
0	19718	4546.347513682191	2
0	19719	4546.364866084326	1
0	19726	4549.209178110076	0
0	19752	4558.123356327799	1
0	19753	4559.647317392418	0
0	19759	4559.913474587092	1
0	19760	4559.916319513978	0
0	19792	4571.810078290953	1
0	19794	4572.2386763338	2
0	19795	4572.470841574723	1
0	19801	4575.48880635949	2
0	19802	4575.870456950959	1
0	19807	4575.879146271671	0
0	19815	4576.583150947799	1
0	19817	4577.080981102654	0
0	19889	4602.573816468316	1
0	19892	4603.721090061236	0
0	19903	4607.443138933593	1
0	19904	4607.925748884031	0
0	19947	4615.551022463453	1
0	19950	4617.234871155502	0
0	19961	4618.221089538195	1
0	19965	4618.903054965123	0
0	20007	4628.099290073463	1
0	20010	4628.687431204079	0
0	20022	4630.165017327134	1
0	20024	4630.353966941079	2
0	20026	4631.068241363664	3
0	20029	4632.174535411541	2
0	20034	4633.116708873896	1
0	20041	4635.877191351576	0
0	20070	4640.856930359606	1
0	20071	4641.25422118191	0
0	20084	4642.199942864778	1
0	20089	4643.475137847028	2
0	20090	4643.660043258208	1
0	20096	4643.993562327934	2
0	20100	4645.3784841414	3
0	20101	4646.025871083628	2
0	20108	4648.007888004931	3
0	20110	4648.094664141305	2
0	20118	4649.364523215599	1
0	20123	4649.811495390787	0
0	20137	4650.491614040267	1
0	20138	4650.715796506918	0
0	20145	4651.82252781923	1
0	20148	4654.421907107532	0
0	20184	4662.792608043273	1
0	20186	4662.809987231257	2
0	20188	4663.039526478007	3
0	20192	4664.505359824401	4
0	20193	4664.595429041807	3
0	20198	4664.798766176651	2
0	20203	4664.96308154297	1
0	20208	4665.248739982958	0
0	20223	4666.803706394478	1
0	20225	4667.20566290657	2
0	20227	4667.482612690744	1
0	20234	4667.952785223645	0
0	20240	4668.135712370006	1
0	20242	4668.371448518527	2
0	20247	4669.776434486606	1
0	20252	4671.00614332259	0
0	20270	4673.780260650518	1
0	20274	4675.68613896217	0
0	20280	4676.145720011543	1
0	20282	4677.079468209498	0
0	20312	4682.939476013101	1
0	20313	4683.54288003655	0
0	20328	4685.631133024346	1
0	20329	4685.655682975035	0
0	20340	4687.046743538845	1
0	20343	4688.548507058974	0
0	20349	4688.70532507519	1
0	20352	4689.746316461231	2
0	20353	4689.971029691036	1
0	20358	4690.353698999383	0
0	20364	4690.488898781705	1
0	20365	4690.710026408517	0
0	20390	4697.212405008845	1
0	20392	4697.946839625324	2
0	20394	4698.240235270251	3
0	20395	4699.145949293337	2
0	20401	4699.444487452312	3
0	20404	4700.349803788275	2
0	20409	4700.36242674813	1
0	20415	4702.066994661254	0
0	20458	4710.338276121184	1
0	20460	4711.590529313147	2
0	20463	4712.414827922259	1
0	20469	4712.991683931782	0
0	20480	4716.093582868776	1
0	20481	4716.169868561687	0
0	20505	4719.636922717026	1
0	20509	4722.682440694312	0
0	20523	4724.959731360888	1
0	20526	4726.065188122374	0
0	20557	4735.671946008121	1
0	20559	4736.12097360175	2
0	20561	4736.573659534632	3
0	20562	4737.336474521387	2
0	20567	4737.506545717244	1
0	20573	4738.337059798933	0
0	20582	4739.258054895133	1
0	20585	4742.927331995419	0
0	20623	4750.361349440458	1
0	20625	4750.633064162137	2
0	20629	4750.848271905524	3
0	20631	4750.880501808312	4
0	20632	4751.547689476133	3
0	20637	4752.645328204582	2
0	20647	4753.812117524162	1
0	20653	4755.174442160939	0
0	20667	4758.656569106176	1
0	20669	4760.134943151516	2
0	20670	4760.271231980434	1
0	20677	4760.756336335785	0
0	20697	4765.684577076602	1
0	20699	4765.871146738476	2
0	20702	4766.60291168426	3
0	20708	4773.56256379739	2
0	20715	4774.898234905958	3
0	20717	4778.462430976274	4
0	20718	4780.107091819102	3
0	20723	4780.145075408799	2
0	20729	4780.994326168277	1
0	20737	4782.19052674515	2
0	20741	4784.361236481743	1
0	20747	4787.407543473859	2
0	20751	4787.975904976817	3
0	20752	4789.710123724365	2
0	20757	4789.883039279826	1
0	20762	4790.606731813023	0
0	20790	4793.554812856772	1
0	20792	4794.914276449023	2
0	20794	4795.273562579556	3
0	20795	4795.452703048751	2
0	20801	4795.776753304812	3
0	20803	4796.394962069286	2
0	20811	4797.892835883419	1
0	20817	4800.054124025194	0
0	20825	4802.281898605038	1
0	20826	4802.388366777819	0
0	20876	4808.720537473615	1
0	20880	4813.176753192032	0
0	20905	4820.926529064594	1
0	20911	4827.797385490767	2
0	20913	4828.164276294645	3
0	20914	4828.790208266937	2
0	20920	4829.278625257712	1
0	20927	4830.644079337595	0
0	20934	4831.457123071079	1
0	20936	4831.546457640527	0
0	20949	4833.969481807765	1
0	20950	4834.444664370293	0
0	20956	4834.981307036266	1
0	20958	4835.068161214424	2
0	20959	4836.081913452349	1
0	20964	4836.416201084332	0
0	20971	4836.832611368356	1
0	20972	4836.949416555479	0
0	20987	4839.150827520805	1
0	20990	4839.534867276049	0
0	21003	4840.265963095291	1
0	21004	4840.274988740554	0
0	21012	4840.770121506924	1
0	21013	4841.837747659454	0
0	21048	4849.303048742502	1
0	21050	4851.324823269739	2
0	21051	4851.929689839722	1
0	21058	4852.948582532795	2
0	21061	4853.109080085186	1
0	21072	4855.506537890419	2
0	21074	4855.610199846232	3
0	21076	4856.177924808906	4
0	21077	4856.597276039217	3
0	21083	4858.638053238394	2
0	21089	4859.163365875273	1
0	21097	4859.928886858767	0
0	21125	4866.397742109916	1
0	21127	4866.7853214959	2
0	21129	4867.542861345302	3
0	21131	4867.549098515042	4
0	21134	4871.355857667608	3
0	21142	4872.873087840263	2
0	21147	4872.967978878372	1
0	21152	4874.126217299462	0
0	21169	4877.014415843466	1
0	21171	4878.309222725155	0
0	21183	4879.793625666595	1
0	21186	4880.486088047192	2
0	21188	4880.878895699235	3
0	21189	4881.335820300888	2
0	21194	4881.827433587394	1
0	21200	4883.233465321298	0
0	21206	4883.90718094953	1
0	21211	4885.431611117102	0
0	21231	4892.025811222225	1
0	21232	4892.28393645424	0
0	21269	4899.16248667831	1
0	21270	4899.748096120205	0
0	21294	4907.700151204553	1
0	21295	4909.771881962431	0
0	21308	4910.964385091372	1
0	21309	4911.645961015468	0
0	21323	4918.353055400491	1
0	21324	4918.448600004214	0
0	21331	4918.55456644227	1
0	21333	4919.483235822482	0
0	21363	4927.499035120745	1
0	21367	4928.15999289509	2
0	21368	4928.910003312238	1
0	21373	4929.524013018217	0
0	21400	4934.524413168079	1
0	21402	4935.147458901019	0
0	21409	4937.43238887306	1
0	21411	4937.4999672868	2
0	21412	4937.543067472504	1
0	21419	4938.840943577365	2
0	21420	4939.108117855218	1
0	21428	4941.278643969461	0
0	21502	4963.288960320548	1
0	21504	4966.552039467701	0
0	21550	4976.366967136374	1
0	21551	4977.031532064853	0
0	21624	4995.362445904805	1
0	21627	4996.904352447871	2
0	21629	4997.623326467719	1
0	21636	4999.037914338139	0
0	21642	4999.413746425202	1
0	21649	5001.577361817192	2
0	21651	5003.595629844694	3
0	21652	5003.846602223705	2
0	21661	5006.294367422615	3
0	21662	5006.589424727767	2
0	21669	5007.554540988967	3
0	21670	5007.729521866867	2
0	21675	5009.072952421616	1
0	21682	5009.697730352715	2
0	21688	5014.626596135489	1
0	21693	5014.68869772619	0
0	21699	5014.733863316032	1
0	21700	5015.374051828932	0
0	21743	5020.166253956967	1
0	21747	5021.133615187166	2
0	21748	5021.134273002934	1
0	21753	5021.135080046852	0
0	21759	5021.573184321878	1
0	21763	5024.252632453498	0
0	21769	5024.402466853742	1
0	21772	5025.233070471103	0
0	21778	5026.059739930539	1
0	21781	5026.209748533826	2
0	21784	5027.046825096586	3
0	21787	5029.445323441616	2
0	21794	5030.072391812958	1
0	21800	5030.425194945942	2
0	21802	5031.937882263193	3
0	21803	5032.745192031904	2
0	21809	5033.947451193422	3
0	21810	5034.820515114539	2
0	21815	5034.910305407652	1
0	21822	5036.257535374863	2
0	21823	5036.437062938188	1
0	21831	5037.421685808575	2
0	21835	5038.635228502539	3
0	21838	5040.028893883872	2
0	21847	5041.691488256886	3
0	21850	5042.565652063909	2
0	21856	5042.8045462034	1
0	21861	5043.127344178609	0
0	21874	5043.853994747251	1
0	21877	5044.045212993935	2
0	21880	5044.804348635827	3
0	21881	5045.497185353722	2
0	21886	5046.159993692533	1
0	21892	5046.842958929012	0
0	21918	5050.753925993484	1
0	21922	5052.345989531916	2
0	21925	5052.965277217846	3
0	21927	5054.05553523082	4
0	21928	5055.23025331029	3
0	21934	5055.842508199754	2
0	21939	5056.045761699005	1
0	21945	5057.062898188946	0
0	21953	5058.376388556517	1
0	21954	5058.521398499715	0
0	21972	5061.285278734824	1
0	21973	5063.223252768771	0
0	22014	5071.473456530062	1
0	22017	5072.834402982668	0
0	22029	5073.541375880568	1
0	22030	5073.865667988069	0
0	22056	5079.327331822725	1
0	22059	5080.910185378788	0
0	22092	5088.97190972133	1
0	22093	5089.440633603663	0
0	22115	5093.426951250771	1
0	22116	5093.785522706749	0
0	22172	5121.898396728486	1
0	22173	5123.544475990633	0
0	22237	5149.70459104508	1
0	22238	5149.947003154119	0
0	22252	5152.086366929458	1
0	22253	5152.80811119972	0
0	22261	5153.188050957238	1
0	22262	5154.204361770465	0
0	22269	5155.431571847791	1
0	22271	5156.111105608164	0
0	22284	5157.017424426449	1
0	22285	5157.312201047832	0
0	22291	5157.667275733498	1
0	22292	5157.999790712241	0
0	22331	5166.57732097193	1
0	22333	5166.586325422892	2
0	22334	5166.643696384305	1
0	22342	5168.472510959222	0
0	22390	5183.074253741186	1
0	22391	5183.146162023355	0
0	22414	5186.802883121328	1
0	22416	5187.205109520081	2
0	22417	5187.766487350481	1
0	22425	5189.303245602919	2
0	22427	5189.465041573378	3
0	22429	5189.754464554651	4
0	22430	5190.193032785015	3
0	22436	5190.264088848085	4
0	22437	5190.572444912263	3
0	22443	5191.32553640505	2
0	22449	5191.354578828743	3
0	22450	5192.096038197681	2
0	22455	5192.111429971009	1
0	22464	5192.912024063233	2
0	22465	5193.71678461411	1
0	22472	5194.665994901514	0
0	22488	5197.909586869368	1
0	22490	5198.917157993757	2
0	22493	5199.868517477735	1
0	22498	5199.924335777831	0
0	22513	5204.715263796485	1
0	22514	5204.825956912334	0
0	22525	5206.367284831945	1
0	22527	5206.47239239688	2
0	22532	5207.371252704208	3
0	22534	5208.11555647757	4
0	22537	5209.023884758345	3
0	22543	5210.204729412335	2
0	22548	5210.913775549383	1
0	22554	5211.354095728729	2
0	22555	5211.391674052775	1
0	22563	5213.335444354905	0
0	22603	5219.337599287551	1
0	22604	5219.429334638551	0
0	22625	5225.972278624616	1
0	22630	5226.782828179434	2
0	22632	5228.119925789254	3
0	22634	5228.129780923846	4
0	22636	5230.100013571862	5
0	22638	5231.492988831135	6
0	22639	5233.574076466573	5
0	22647	5234.040258653268	4
0	22652	5234.153203799349	3
0	22658	5234.433090248706	4
0	22660	5234.568449107119	5
0	22661	5235.507512654533	4
0	22666	5236.47802709536	3
0	22675	5239.54882118074	2
0	22684	5240.584813434714	3
0	22688	5241.691142814915	2
0	22693	5242.34426047525	1
0	22700	5242.489802547891	2
0	22701	5242.739183895662	1
0	22707	5243.31912347624	2
0	22708	5243.45359487191	1
0	22713	5243.468034514497	0
0	22719	5243.84019193359	1
0	22720	5243.982221591216	0
0	22724	5247.63994745881	1
0	22728	5249.500300393541	0
0	22769	5255.751031157952	1
0	22775	5256.549083184751	0
0	22781	5257.619063519969	1
0	22786	5258.415935161698	0
0	22803	5259.523584970067	1
0	22807	5260.657188814987	2
0	22810	5261.835960204091	1
0	22815	5262.053261051434	0
0	22821	5262.71367029812	1
0	22823	5262.801638573138	2
0	22826	5263.943623575105	3
0	22833	5265.504816612485	2
0	22839	5265.734097728152	3
0	22840	5265.785773371846	2
0	22847	5267.367625269578	3
0	22851	5268.024972932127	4
0	22859	5271.28652214392	5
0	22860	5271.345162538003	4
0	22866	5272.264346456973	3
0	22871	5272.512730167744	2
0	22880	5273.089105511929	3
0	22882	5273.715965587334	2
0	22888	5273.72129319786	3
0	22891	5275.688609529325	2
0	22900	5276.951951473777	3
0	22901	5277.258201751554	2
0	22906	5277.356205135584	1
0	22912	5277.896125397149	2
0	22913	5278.302138954491	1
0	22918	5278.340461280255	0
0	22924	5278.583443287977	1
0	22926	5279.366875577346	2
0	22928	5280.085366158412	3
0	22930	5280.949626181092	2
0	22935	5281.31537566924	1
0	22940	5281.751140304729	0
0	22964	5285.965493827119	1
0	22965	5286.792969696936	0
0	22979	5290.101265296285	1
0	22981	5292.298582898932	2
0	22983	5292.30201052335	3
0	22984	5292.398466907075	2
0	22991	5293.159992239913	3
0	22992	5293.636981199159	2
0	22997	5293.798885275309	1
0	23003	5294.210153914354	2
0	23004	5294.527820337093	1
0	23010	5294.87805056395	2
0	23012	5296.394066565815	3
0	23017	5298.171059313431	2
0	23023	5298.347531910567	3
0	23026	5299.912162248233	4
0	23027	5300.584554326604	3
0	23035	5302.655610634745	2
0	23042	5303.30569892306	1
0	23047	5303.746081101187	0
0	23062	5305.026018578976	1
0	23064	5306.130708630382	0
0	23089	5309.930694130481	1
0	23091	5310.043736193186	2
0	23093	5310.270386126187	3
0	23095	5312.084889655288	4
0	23097	5315.432381006542	5
0	23098	5315.64031941234	4
0	23104	5316.382946608299	5
0	23105	5317.309346075608	4
0	23111	5317.464163220855	3
0	23116	5317.99076738178	2
0	23121	5318.002092749165	1
0	23126	5319.273571160176	0
0	23132	5320.432078319685	1
0	23134	5320.775723621121	2
0	23137	5321.395329784096	1
0	23141	5321.838514308914	2
0	23151	5325.656091850712	3
0	23153	5325.690473865749	4
0	23154	5326.004250050297	3
0	23159	5326.131442629014	2
0	23164	5326.304417624396	1
0	23171	5327.183140506035	0
0	23196	5333.592509406158	1
0	23200	5334.977236613137	2
0	23203	5335.195058291744	3
0	23204	5335.366413857164	2
0	23210	5336.798196254195	1
0	23218	5337.763048338336	2
0	23221	5338.037524585535	3
0	23223	5338.201487539746	4
0	23225	5338.748582572596	3
0	23231	5339.475944843904	4
0	23232	5340.283023729675	3
0	23237	5340.667408316223	2
0	23243	5340.693042837003	3
0	23244	5341.138513639655	2
0	23250	5341.643335204277	3
0	23254	5341.876045423031	2
0	23260	5344.531692344096	3
0	23263	5346.04514688754	2
0	23269	5347.23349444709	3
0	23273	5349.978230440557	2
0	23278	5350.250719449075	1
0	23284	5351.712669956542	2
0	23288	5352.507879329939	3
0	23291	5353.604646366041	2
0	23297	5355.844673614042	1
0	23302	5356.075294408888	0
0	23323	5358.732562189664	1
0	23324	5359.089497623968	0
0	23335	5360.580163716458	1
0	23341	5363.567181461158	2
0	23344	5364.95192989039	3
0	23345	5365.124187894433	2
0	23352	5367.650077362986	1
0	23357	5368.465513326619	0
0	23361	5369.141828056323	1
0	23364	5370.804819753679	0
0	23368	5372.425736062184	1
0	23373	5377.024801714321	0
0	23380	5377.884404684794	1
0	23385	5379.399760388931	0
0	23392	5380.47928026895	1
0	23393	5381.907377829959	0
0	23399	5382.065006745119	1
0	23402	5384.91632419632	0
0	23422	5387.153943649904	1
0	23425	5389.172124721048	2
0	23428	5390.211921327542	1
0	23433	5390.33389530462	0
0	23457	5393.685649622396	1
0	23459	5394.488270672719	2
0	23463	5396.030819190907	3
0	23465	5396.284734965052	4
0	23468	5398.885545186336	3
0	23474	5399.62986511208	4
0	23482	5402.228107546498	5
0	23483	5403.636719067368	4
0	23488	5404.286713516697	3
0	23494	5404.891595737745	2
0	23499	5405.174894973628	1
0	23504	5405.318728806393	0
0	23528	5408.592923909622	1
0	23530	5409.515059280496	0
0	23574	5419.028399369759	1
0	23579	5421.5321858657	0
0	23586	5422.192977719338	1
0	23587	5422.342495737185	0
0	23594	5422.989495555584	1
0	23596	5423.031371979274	2
0	23601	5423.93575773932	3
0	23603	5424.693535340212	4
0	23604	5425.153966332917	3
0	23609	5425.458904948618	2
0	23614	5425.836286227847	1
0	23623	5431.129738329946	0
0	23638	5435.33729112888	1
0	23639	5436.452776033722	0
0	23656	5440.036813029985	1
0	23657	5440.192340411857	0
0	23664	5440.469210840132	1
0	23665	5440.56462492721	0
0	23702	5447.995841658255	1
0	23703	5452.073485125706	0
0	23710	5452.248973359087	1
0	23712	5452.429813436552	2
0	23713	5452.779957054222	1
0	23718	5452.845087383475	0
0	23726	5454.380469047199	1
0	23727	5454.654516036778	0
0	23733	5454.923321636448	1
0	23734	5455.773665011984	0
0	23754	5457.143324726398	1
0	23757	5458.897387253624	0
0	23769	5459.674974024985	1
0	23775	5460.968577886505	0
0	23783	5462.870531261388	1
[...]
4	116184	27460.604700447793	3.937202855394
4	116188	27460.674021163792	3.522048398149
4	116199	27463.865723885409	1.879351947686
4	116224	27471.224207774541	1.327339010634
4	116244	27475.385254086936	1.664827821006
4	116267	27480.25571865726	6.190426787289
4	116278	27483.624849715263	3.017828606773
4	116296	27486.420464858298	1.166679512116
4	116317	27492.13421057558	2.29384267491
4	116351	27498.260283207999	2.08945405894
4	116355	27498.26216628702	0.278971601157
4	116367	27502.819233473947	2.722580941802
4	116376	27506.619084219585	4.209326859743
4	116386	27509.279926481228	4.482449820726
4	116556	27550.341182550878	20.660168823643
4	116561	27551.087210545252	20.481860920936
4	116566	27552.170793454949	17.262773365435
4	116571	27552.827467709271	14.563848892004
4	116581	27554.233599660702	14.033023461218
4	116622	27560.269635834028	6.595500833222
4	116655	27563.140804552609	7.326973151714
4	116665	27567.236031745469	5.704266811231
4	116702	27572.077379593593	0.562619202197
4	116706	27572.085010151463	0.137109564949
4	116734	27577.580766846864	0.313776752585
4	116741	27580.770246270743	0.238627039937
4	116763	27590.116270544864	7.335893657237
4	116791	27594.799790454377	8.429332593968
4	116797	27596.05269033118	9.097628007312
4	116830	27609.175694075946	0.767771463778
4	116854	27614.795113842357	1.096735461379
4	116870	27623.06875442406	0.805566898822
4	116902	27633.793222337642	1.936366228629
4	116950	27642.882007791513	0.439635151334
4	116965	27646.485113672902	2.849916885564
4	117033	27659.968277226041	4.382739189148
4	117093	27685.14064410187	0.20712408792
4	117128	27690.467652354507	3.531003767482
4	117135	27691.266477727668	1.369838764632
4	117139	27691.714450538174	0.703447489039
4	117153	27697.582206962835	4.026498178936
4	117171	27700.33238527308	6.539597943447
4	117189	27708.001242342301	5.659276589496
4	117216	27710.986421550336	6.827411835301
4	117228	27713.437307002439	5.935625650229
4	117249	27714.87733744961	6.799517640466
4	117258	27716.114755658292	6.833948202321
4	117273	27718.599332301502	3.163819887733
4	117280	27719.686688560527	1.980396095715
4	117289	27723.562894920741	4.834877265671
4	117312	27728.464136953201	0.116266468087
4	117328	27733.847390969667	0.605249967975
4	117335	27739.705821295737	0.994499165426
4	117367	27746.564055353241	1.046155819951
4	117382	27749.636340943525	0.13674134488
4	117433	27764.994986555484	6.764340056572
4	117440	27765.793574225917	0.014253626255
4	117456	27768.957668113353	0.34489052841
4	117512	27783.414364858738	10.189357040775
4	117518	27783.887987597212	9.562689843753
4	117525	27784.336929287001	5.743291513235
4	117530	27784.518470040527	5.093119868342
4	117539	27788.187553904587	7.385196938253
4	117546	27788.573520487111	5.297684819228
4	117559	27790.62368827072	6.625148633339
4	117587	27793.93310661202	9.318621142987
4	117615	27798.674695421259	12.282051266405
4	117625	27800.796224159384	12.507245516828
4	117637	27803.805840503999	11.287500431022
4	117651	27806.980510645855	4.287688644151
4	117660	27807.486875585114	4.597115683523
4	117673	27810.799556821651	5.809246171017
4	117716	27818.577039733311	11.585724084081
4	117733	27822.303662983273	0.625519060821
4	117772	27831.186422786885	4.511473792871
4	117796	27834.705745698272	0.196364047177
4	117806	27838.014590673262	0.132989509847
4	117813	27838.57539127482	0.371533441293
4	117838	27843.647313470326	0.132293629355
4	117854	27848.744878294238	5.212645062752
4	117867	27851.145138553863	4.953585975756
4	117878	27855.103338351298	8.720908029822
4	117897	27859.024702760188	11.029936114271
4	117906	27859.150727453814	11.120000182112
4	117922	27869.042149611669	6.969030245802
4	117932	27869.883439860713	7.131216880596
4	117940	27877.002178697063	13.132546587824
4	117949	27877.730971495722	1.230117720404
4	118000	27895.007039524356	2.507943599011
4	118033	27899.779479320545	6.725891532226
4	118071	27907.141229144385	11.230674753138
4	118076	27908.064842799123	8.114733676136
4	118083	27908.829604123392	6.099014591438
4	118092	27910.406530836195	3.887408392161
4	118115	27913.867462281066	0.731953015185
4	118205	27934.354912980693	5.408432856249
4	118213	27937.741978571882	7.152921815557
4	118228	27943.010315179296	7.347249849159
4	118265	27954.969342958701	15.513858196329
4	118282	27956.34160311308	3.850318567041
4	118349	27969.201669014088	1.067802532052
4	118381	27975.577712903318	0.950861112
4	118417	27982.287760384221	6.433543852393
4	118466	27986.982069503995	8.521237765185
4	118471	27987.086188782587	7.360452063855
4	118476	27988.446360719946	7.921508756729
4	118484	27990.825453196658	8.911553529888
4	118491	27992.318934738633	8.878419704006
4	118498	27993.789303414436	4.77800898009
4	118541	28005.420800335647	13.642953871013
4	118551	28009.764123955608	11.975704871526
4	118559	28012.508685367067	8.444464681755
4	118577	28014.603027035772	10.321522803615
4	118585	28015.643490294963	10.55447593553
4	118597	28019.358816064444	13.898377385148
4	118615	28024.134836435942	2.203173128442
4	118644	28036.239461679384	5.41831259889
4	118656	28037.983191188595	5.399771893647
4	118667	28044.940374857946	9.786384417797
4	118719	28051.647608711956	2.391335562574
4	118805	28073.823751746867	3.753683517765
4	118886	28093.241210807235	21.169253672292
4	118890	28093.67320759285	12.937312673527
4	118921	28100.882892746954	2.213703553572
4	118933	28102.537079359115	0.68329538845
4	118945	28107.604519176174	4.070049947278
4	118955	28109.348332291004	4.197639541517
4	118963	28115.54056876105	0.146534634087
4	118973	28119.534748952085	3.778490416906
4	119036	28141.640028400164	5.27361401096
4	119078	28153.922965224026	7.325386583056
4	119107	28163.041688591435	16.056425533901
4	119137	28169.439197318709	21.154256857328
4	119186	28184.071479278829	1.808446021344
4	119190	28184.583212439834	1.086432681386
4	119241	28204.507074754852	1.318851041162
4	119254	28210.594070700982	0.362458639948
4	119261	28212.141558635292	1.268781508214
4	119352	28229.984715828517	13.244016458796
4	119359	28230.439939471182	3.780852442389
4	119366	28230.702401425032	2.769598581096
4	119382	28235.686200197868	2.657787227995
4	119443	28256.852077185789	1.359499878481
4	119477	28265.382109779785	3.41209963264
4	119498	28271.683977660063	2.582840913395
4	119534	28281.566964279163	0.503948842911
4	119550	28288.852766303799	0.494504858978
4	119572	28303.33099461483	3.391023040583
4	119583	28304.409257641945	4.463497363202
4	119625	28308.531694003072	6.09589428397
4	119632	28310.338012856069	4.627716736357
4	119636	28312.792232769262	5.25689470559
4	119656	28325.540589420166	1.688661904087
4	119707	28343.146049942263	0.377037514929
4	119717	28346.729054371865	3.135278371934
4	119724	28347.208320807392	0.283186354349
4	119804	28367.208887929814	6.19977340133
4	119831	28375.380064051884	9.930220504534
4	119835	28375.790945121309	2.989092125275
4	119852	28379.564297743348	2.338005295992
4	119884	28385.198736560563	6.050738708011
4	119926	28389.686661887741	9.259301968166
4	119933	28389.940144711973	5.264973946304
4	119945	28390.365796547817	5.522589788
4	119981	28397.136081641322	4.144702977109
4	119986	28397.259723678968	3.465177140355
4	119993	28400.179890761836	4.556964020983
4	120008	28403.074192820424	0.560809413528
4	120020	28403.92058993243	0.800405200803
4	120083	28421.442326794557	2.733087018745
4	120093	28424.170310493402	4.07243235462
4	120115	28428.421395760856	3.833638882434
4	120143	28431.8355753032	1.503507040114
4	120161	28436.764231824305	1.905940940367
4	120190	28439.10542089917	1.482031720497
4	120214	28443.686351344956	5.183053493476
4	120261	28450.793267801906	1.176216219533
4	120272	28452.505672144055	2.596843051802
4	120285	28453.810751021716	2.919598512539
4	120306	28460.891966635473	9.217400690283
4	120354	28468.066181279318	1.986957973626
4	120373	28470.787712560229	1.154009316323
4	120390	28477.627957217115	0.275727576655
4	120402	28480.995190917904	2.007096398645
4	120434	28484.726379199913	3.767365911683
4	120479	28492.097602309025	3.314388173245
4	120492	28495.592415953821	4.964401656641
4	120514	28498.944237840723	6.664137914266
4	120520	28499.50433043071	6.749541090547
4	120529	28502.00290763549	8.74252541113
4	120547	28505.194181651567	6.864202609382
4	120558	28510.424330726526	7.193221460632
4	120571	28513.294552825431	5.672515735155
4	120578	28516.681129367545	4.619488929797
4	120585	28521.945329822985	7.897663514179
4	120604	28524.698566952454	1.555068216165
4	120629	28529.684642230657	6.02816628972
4	120656	28533.656909308811	9.991188398471
4	120685	28539.650342360309	14.177327371917
4	120708	28550.162480693123	22.752418279831
4	120743	28553.858941892683	23.056485566734
4	120768	28560.661344333192	25.834460695466
4	120779	28562.968057167063	24.95530949514
4	120789	28565.50236241146	24.587286039047
4	120802	28568.816869211415	5.37087479539
4	120806	28573.333926415061	6.317826579177
4	120842	28579.482748800853	3.056701301196
4	120868	28581.504735266359	2.838265648173
4	120874	28582.396187933301	3.304174803157
4	120878	28582.981781348456	3.327521120754
4	120888	28587.381537372158	1.93836500742
4	120986	28600.766523280938	2.345173651348
4	120993	28603.562082078696	4.627868265722
4	121000	28603.995654318395	3.696026832824
4	121008	28606.258102123157	2.271503324401
4	121081	28625.823974455875	3.962146960081
4	121089	28626.273723419491	0.411505197291
4	121113	28643.085542302831	0.082170995987
4	121121	28648.993664161904	0.020772900208
4	121171	28660.398991694995	6.421920792879
4	121176	28660.483059912025	5.875060820875
4	121180	28661.062646376173	5.766187331843
4	121245	28673.908112023874	9.999640092475
4	121253	28675.244771809786	3.778341878779
4	121278	28681.294107160206	2.546208355865
4	121380	28711.211511943696	27.19617186201
4	121439	28721.592084944573	37.357256424407
4	121444	28721.794195134302	23.337816526687
4	121451	28723.099302413757	14.303666493549
4	121458	28723.354735792493	11.161226856139
4	121463	28723.998596392312	11.247977943194
4	121468	28725.314498660905	8.622424443154
4	121472	28726.984623013279	3.66713512554
4	121479	28730.072370801649	1.312684343548
4	121491	28732.941867648519	2.818300493579
4	121565	28750.394619938702	12.00754834804
4	121580	28752.361874713389	9.642369844821
4	121585	28752.785435650519	8.430464179497
4	121599	28759.484706226497	11.374196086671
4	121609	28760.74881279549	11.699673924854
4	121615	28761.801717015926	9.999475619016
4	121627	28765.864427008592	7.979225918098
4	121651	28768.367589778825	10.316228040735
4	121660	28771.551516939944	7.391604680969
4	121671	28772.26207064113	8.014457850757
4	121678	28773.47666788616	7.008602143592
4	121695	28781.629894944909	14.756152897454
4	121702	28782.378123871173	15.410333432599
4	121707	28782.987554728511	13.943327876521
4	121714	28785.967330450839	10.57830038175
4	121730	28789.331906378933	7.691297102382
4	121750	28791.216083368844	4.00120379408
4	121785	28800.109557784068	10.595488310648
4	121796	28801.866219174047	5.539283793953
4	121809	28803.604348369114	3.137248523274
4	121818	28807.810893369034	6.070349211329
4	121903	28824.863558463895	22.414465789684
4	121912	28825.178610045937	12.907884794471
4	121931	28829.659571517132	0.42516084356
4	121942	28831.201875997345	0.186107910424
4	121948	28832.96611328979	1.886996557272
4	121955	28834.930802590623	1.003341661423
4	121966	28838.799532803249	3.752205597603
4	122002	28844.774716897319	1.197436845222
4	122024	28853.282121693963	4.511455294153
4	122059	28859.464305511032	4.603508290372
4	122086	28863.259304728101	3.887294581554
4	122090	28864.653417273015	4.372921561915
4	122100	28870.042011404104	3.072412099958
4	122111	28872.061745913119	3.715227749503
4	122175	28881.329124991429	11.014028602626
4	122182	28881.748017775503	6.240021201775
4	122189	28882.345350694595	4.015139848482
4	122252	28902.273878634899	0.926197676119
4	122272	28912.66679507869	5.402222828797
4	122345	28937.088051172025	2.456505366342
4	122350	28937.138219458667	1.762310574422
4	122355	28938.567649255024	3.063543909914
4	122388	28950.607266165196	0.467698110885
4	122392	28950.781012540887	0.254545128446
4	122413	28954.178625741252	2.387296403095
4	122437	28957.894840085318	1.724594866461
4	122456	28964.169379011592	0.930388964056
4	122475	28968.272214014376	2.421047381976
4	122499	28980.316423316531	2.690209315099
4	122537	28986.511878985745	3.840427750538
4	122562	28995.986429119892	12.822648855144
4	122589	28998.219612196381	10.975705586808
4	122598	29000.582689577945	4.198668682014
4	122660	29014.819196744133	17.765276346891
4	122665	29015.263343770999	13.602700261984
4	122670	29015.522330371672	13.828523814408
4	122677	29016.797608081373	10.590494075764
4	122681	29016.812061385118	3.077955758741
4	122712	29026.210691633785	1.497628278736
4	122744	29036.388859550442	6.442684983501
4	122763	29039.433280195493	9.394428859158
4	122780	29044.040128248883	12.585928722316
4	122804	29049.131602409309	8.905475491444
4	122823	29054.504625847627	11.720467533964
4	122850	29055.97664990922	8.379190891687
4	122856	29056.943911699797	8.099883449445
4	122861	29058.337140941031	8.803141740829
4	122874	29063.469326159706	10.557774053757
4	122889	29065.480195655541	10.327065517074
4	122916	29067.671275142954	6.876637560232
4	122921	29067.809536919788	4.822221639038
4	122931	29073.556447705104	7.077499725346
4	122956	29079.720554857586	4.065178218886
4	123055	29103.536632257382	2.52598503114
4	123062	29104.483871442	2.785919948155
4	123098	29111.365899738244	0.172994908042
4	123115	29120.59232345828	6.55676200445
4	123147	29126.590317874711	7.188243555552
4	123177	29133.464885231384	10.949836143055
4	123182	29136.566987826381	10.531861903535
4	123191	29140.211660673984	11.374829309827
4	123203	29141.142826314769	12.168709239222
4	123222	29150.060880603376	10.71526671922
4	123257	29153.815460205392	13.313569083544
4	123262	29154.836569553239	10.3407340863
4	123266	29156.531289084815	7.989387551385
4	123278	29160.925486406238	0.966607129081
4	123293	29163.666674827376	2.555779225764
4	123300	29164.183130264289	1.092468535441
4	123332	29171.558205887547	3.714576369622
4	123337	29172.350037825447	3.005708955542
4	123346	29177.180709860719	6.229620518481
4	123363	29184.790298756087	13.440590474903
4	123398	29191.643664667121	20.169286786078
4	123408	29193.012838012466	16.805252121038
4	123444	29199.194753521786	1.368684332759
4	123454	29203.134360152519	5.078097465363
4	123492	29212.952053873004	13.829557410224
4	123565	29226.265197255156	19.566162589157
4	123578	29228.13226409376	18.471757576681
4	123584	29228.332936968812	18.367589619023
4	123591	29230.415535161564	11.737023379197
4	123595	29231.425303739039	1.503733795839
4	123602	29235.061870702995	0.492798008116
4	123616	29240.341712773932	3.01107517933
4	123660	29247.955532620553	10.286804576404
4	123712	29258.094196224545	14.877067450162
4	123750	29263.620697208224	9.358057754636
4	123759	29267.08854166342	9.905122699265
4	123774	29269.627076662119	7.509290189123
4	123808	29274.335162216254	7.816754707736
4	123817	29275.171894290385	2.243002480746
4	123831	29280.126024134831	0.968872709107
4	123864	29289.041859144976	2.471988906949
4	123868	29289.475258430949	2.645613983222
4	123910	29301.537853812157	4.715160064186
4	123920	29302.889636763077	4.22724352314
4	123929	29305.631653870805	6.337621028476
4	123958	29322.348180045541	1.570147309209
4	123974	29326.790812095384	2.561062698769
4	123993	29332.017871612826	1.822325070949
4	124014	29337.10089126692	0.113735962656
4	124061	29346.577829544754	0.412849923932
4	124070	29353.890582682577	0.052548081918
4	124082	29359.244456834681	5.11727878068
4	124147	29385.86208347688	3.061152297349
4	124160	29386.804610145756	2.097959762044
4	124171	29387.720566471197	0.596086368458
4	124211	29397.040673801243	5.773968443341
4	124242	29402.025403118371	10.460577930949
4	124283	29407.393277707571	0.917635174403
4	124290	29408.439031100139	0.511553392268
4	124315	29414.699110474568	2.221244569452
4	124328	29416.286445258095	2.49039962742
4	124383	29421.716962323835	1.749874783708
4	124465	29432.579422953473	2.258714362183
4	124485	29434.846223977837	2.558188052317
4	124518	29444.349210408096	11.020258469061
4	124522	29445.166783911156	4.382359020456
4	124557	29454.566563625658	1.861727094223
4	124657	29471.011598776112	1.785320013337
4	124668	29475.453978606682	5.991360829041
4	124683	29477.789694211692	8.088958533187
4	124692	29478.519968947212	1.626596022131
4	124719	29492.434677793945	5.166004987445
4	124746	29497.096345000988	8.414663779662
4	124757	29498.87797671398	3.588754573156
4	124773	29504.294673581472	0.735822105473
4	124780	29507.440380606894	1.474053964667
4	124787	29509.434752561517	1.105397893252
4	124806	29520.595458309495	2.607411796519
4	124844	29528.142271389089	0.068138814577
4	124872	29536.56969524637	4.685120683653
4	124907	29539.577859546594	3.899731973438
4	124957	29548.665562181575	4.498165248524
4	124995	29561.673754306011	9.233970564568
4	125100	29582.092344206172	25.204230354528
4	125131	29588.515751132066	25.577125088828
4	125162	29597.5595237126	27.937945052753
4	125172	29599.375330749159	6.587948168299
4	125187	29603.565025022299	1.279408603951
4	125233	29612.240490657683	5.495946930425
4	125277	29621.485942844125	14.667814620612
4	125281	29621.547047003766	0.165516763058
4	125288	29622.441798662608	0.611924247811
4	125343	29637.076912159556	6.243318413249
4	125353	29638.386848388665	6.993541614753
4	125366	29640.703859739532	4.474902514428
4	125371	29640.995589425823	3.792035670242
4	125376	29642.647808252093	3.960525089573
4	125383	29648.146745059097	2.132418458963
4	125390	29649.157613226658	0.86758448783
4	125425	29662.326697655689	2.611518744863
4	125431	29664.176134071658	3.177066692907
4	125458	29671.634352268458	0.731640975783
4	125465	29678.461322584466	2.282576202539
4	125501	29684.362404980606	1.26300872961
4	125563	29695.470561843547	1.279681041368
4	125567	29695.642461559443	0.609845519067
4	125603	29713.612132890827	1.753850626228
4	125634	29729.811927890605	0.651313017267
4	125663	29743.224757550037	8.467341177753
4	125672	29744.199289404492	1.715682672859
4	125734	29773.155068093613	5.40249580208
4	125741	29774.259438114502	4.285688412519
4	125745	29775.14678561755	1.746409044344
4	125786	29782.704698755397	1.975066040295
4	125797	29785.42543486695	3.217048247678
4	125809	29788.045250452586	4.326121933908
4	125822	29793.136152358151	1.997992809441
4	125843	29796.390392760486	2.016113829731
4	125853	29801.361612671222	1.014960488773
4	125866	29804.666483973171	0.717369654483
4	125889	29811.334900687443	0.077832186406
4	125905	29814.261483201488	1.539278233941
4	125938	29824.147026504522	1.332094582191
4	125949	29828.930140793374	1.284740870138
4	125972	29832.299204588843	3.093697987465
4	126054	29846.725380526631	2.46374495285
4	126061	29847.783101417264	2.933396563996
4	126089	29859.352995723714	0.905945930969
4	126110	29863.565489471932	2.455821673666
4	126114	29863.695440654759	1.091904653748
4	126121	29866.057010449973	1.722951845977
4	126136	29869.04783803346	1.840181002808
4	126143	29870.039191720266	0.200389451218
4	126186	29884.544363146844	4.683262928451
4	126197	29889.252308173494	6.898303206057
4	126268	29902.744874271797	17.088342248099
4	126284	29907.085767464747	14.302980346853
4	126313	29911.345022898142	18.340390125287
4	126318	29911.394425983153	12.595816340607
4	126326	29912.774129306566	6.50567888369
4	126338	29915.247620304242	6.306992608256
4	126343	29915.98546155276	5.938879595954
4	126408	29927.322292093088	10.964751174049
4	126421	29931.371257645878	12.106070070004
4	126428	29932.571682313721	11.567414251576
4	126446	29935.50970630141	5.130175368634
4	126472	29940.493675984751	2.045008371372
4	126481	29946.533083573806	7.449583299687
4	126502	29949.971829203379	6.10038157212
4	126548	29957.596170282755	9.031553546975
4	126555	29961.223110924819	1.22464014578
4	126615	29987.038247444067	2.748240272863
4	126646	29994.474281242717	0.893761197979
4	126653	29997.21437857376	0.498037123135
4	126663	29998.362767405821	0.461267778284
4	126667	29999.148830239044	0.803334656848

