version 2
run Second-n3-18-20191016-14:53:19-3692
attr configname Second-n3
attr datetime 20191016-14:53:19
attr experiment Second-n3
attr inifile omnetpp.ini
attr iterationvars ""
attr iterationvarsf ""
attr measurement ""
attr network org.omnetpp.queueing.Pizza
attr processid 3692
attr repetition 18
attr replication ""
attr resultdir results
attr runnumber 18
attr seedset 18
param **.PS.maxInventoriedPS 3
param **.U1.interArrivalTime exponential(3s)
param **.U2.interArrivalTime exponential(5s)
param **.PS.serviceTimeForInventoryU1 exponential(1.0s)
param **.PS.serviceTimeForInventoryU2 exponential(1.2s)
param **.PS.serviceTimeDirectU1 exponential(1.4s)
param **.PS.serviceTimeDirectU2 exponential(1.4s)
param **.PS.probabilityProducing 0.7
param **.CS.serviceTimeU1 exponential(1.1s)
param **.CS.serviceTimeU2 exponential(1.4s)

vector 0 Pizza.EntryQueueU1 queueLength:vector ETV
attr interpolationmode sample-hold
attr title "queue length, vector"
vector 1 Pizza.CS queueLength:vector ETV
attr interpolationmode sample-hold
attr title "queue length, vector"
vector 2 Pizza.EntryQueueU2 queueLength:vector ETV
attr interpolationmode sample-hold
attr title "queue length, vector"
vector 3 Pizza.sink lifeTime:vector ETV
attr interpolationmode none
attr title "lifetime of arrived jobs, vector"
attr unit s
vector 4 Pizza.sink lifeTimeU2:vector ETV
attr interpolationmode none
attr title "lifetime of arrived jobs, vector"
attr unit s
0	0	0	0
0	13	3.837040156412	1
0	15	3.871760488338	2
0	20	5.420969847661	1
0	28	7.162516673358	2
0	31	8.963422107919	1
0	35	10.192006838088	2
0	38	10.959047461217	1
0	45	12.89859860685	2
0	46	13.649753956257	1
0	52	14.82738764571	0
0	64	15.818306844759	1
0	65	15.944918282238	0
0	69	16.740810051293	1
0	71	18.398651938964	2
0	75	20.340882017905	3
0	76	20.35569631046	2
0	80	21.053035585511	3
0	85	23.077257255862	2
0	90	23.961826693225	1
0	96	25.726708520284	0
0	102	25.996423265276	1
0	107	26.564757365893	0
0	137	30.889007860037	1
0	139	31.627138841437	2
0	141	32.362231466072	3
0	143	32.471042032698	4
0	152	38.974407137275	3
0	158	40.246378541307	2
0	165	40.652969043671	3
0	166	40.686944652506	2
0	173	41.004950088694	1
0	179	42.580190166876	0
0	198	45.156394293728	1
0	199	45.450139464839	0
0	216	47.094861590886	1
0	217	47.868250087951	0
0	242	54.651694227142	1
0	244	55.213528872992	2
0	246	56.511668245785	3
0	247	57.120205999485	2
0	252	57.418221886465	1
0	259	58.101230628656	2
0	260	58.109036341856	1
0	265	58.120409863988	0
0	280	63.48475465833	1
0	285	66.611936907386	2
0	288	67.628872884501	1
0	295	68.742780448249	0
0	330	77.1892528908	1
0	332	77.577254852389	2
0	333	77.753118693873	1
0	340	80.14332314376	0
0	354	82.741596894531	1
0	356	82.874294667012	2
0	357	83.234642540914	1
0	362	83.453369352004	0
0	384	85.30614448958	1
0	386	86.028265203746	0
0	489	128.848016621819	1
0	491	129.380918356249	2
0	492	129.563612558302	1
0	497	130.235435644303	0
0	501	130.378480418788	1
0	504	131.98003399614	0
0	582	156.605069277781	1
0	583	158.266634010101	0
0	599	160.675386089546	1
0	600	161.992124976273	0
0	609	163.6438245184	1
0	610	163.720598787499	0
0	662	173.719612108012	1
0	663	174.031062336759	0
0	673	175.485023726151	1
0	676	176.084831886083	0
0	685	176.846710131425	1
0	686	177.021202343557	0
0	743	192.539399360206	1
0	744	193.678838113751	0
0	774	202.479430553276	1
0	777	202.621233041296	0
0	812	208.826155642649	1
0	814	210.111221212428	2
0	817	212.703351682604	1
0	823	212.818974179239	2
0	824	213.210679731375	1
0	830	213.228242469202	2
0	832	213.30458744643	3
0	833	213.335158560719	2
0	838	213.424220041965	1
0	842	215.647257673391	2
0	846	218.114276091463	1
0	851	218.207613304778	0
0	872	223.514989141526	1
0	873	223.519096661197	0
0	896	228.048789492795	1
0	899	229.874410456457	2
0	900	230.727385572614	1
0	906	230.97007093877	2
0	909	231.40275804672	1
0	915	233.139079982653	0
0	947	246.506742850815	1
0	950	247.605297093754	0
0	956	247.82249597473	1
0	958	248.405495305278	2
0	959	248.794519787516	1
0	964	249.009401793423	0
0	971	249.6583125919	1
0	973	250.274152287223	0
0	1005	253.421211514242	1
0	1006	254.004750808238	0
0	1014	258.250133410479	1
0	1015	258.383733436045	0
0	1044	266.33723933169	1
0	1046	269.034728678798	2
0	1048	269.610876338941	3
0	1049	270.829700841333	2
0	1055	271.517019443517	3
0	1057	272.714304557637	2
0	1062	272.770184887408	1
0	1070	273.508162050223	2
0	1072	274.246279248311	3
0	1074	274.758859342489	4
0	1076	276.065971647422	5
0	1077	276.777950205622	4
0	1081	277.002540107719	5
0	1083	278.278195046451	6
0	1086	279.002633743956	5
0	1092	283.837439409865	6
0	1094	283.872881286951	7
0	1095	284.285448888055	6
0	1100	285.34507039402	5
0	1104	286.562802087509	6
0	1107	287.691285648247	5
0	1113	289.87333302721	4
0	1118	290.844898921581	3
0	1123	294.019676135355	2
0	1130	296.085734808551	3
0	1133	297.387865144947	2
0	1138	297.776491046147	1
0	1144	297.8625620398	2
0	1149	298.904397967652	1
0	1154	299.301696108983	0
0	1162	299.552787879355	1
0	1163	299.635528567241	0
0	1198	303.81029316692	1
0	1202	306.831886512719	0
0	1222	308.637135124409	1
0	1229	314.438973169534	0
0	1244	316.248552707503	1
0	1248	318.947084935465	2
0	1249	319.751477690149	1
0	1255	320.222320429256	2
0	1256	320.885787095816	1
0	1266	322.922365644177	0
0	1272	323.192013521385	1
0	1274	323.594571128615	0
0	1295	327.356371683677	1
0	1296	327.3685992427	0
0	1314	329.61197645386	1
0	1317	331.235403519479	0
0	1332	334.161866862445	1
0	1336	334.936973566459	2
0	1338	337.383903978114	1
0	1344	337.873808941749	2
0	1346	338.360391604157	1
0	1351	338.423334266406	0
0	1355	340.461735246886	1
0	1362	342.763266388862	0
0	1375	344.015680845442	1
0	1377	344.665547141808	0
0	1388	345.266916743046	1
0	1390	345.320326262175	2
0	1393	345.921203950732	1
0	1399	346.022314722157	0
0	1412	346.984712777447	1
0	1416	348.092439493566	0
0	1430	349.551167169447	1
0	1434	352.700607628206	2
0	1437	352.97503525376	1
0	1443	353.495560230774	2
0	1444	353.547458598926	1
0	1450	353.725680631938	2
0	1451	353.861791895725	1
0	1460	356.660719016547	2
0	1462	356.706109711634	3
0	1463	358.574938353708	2
0	1469	358.996848521026	3
0	1472	359.378939517362	4
0	1473	359.850516293829	3
0	1481	360.478237725556	2
0	1487	360.925804355605	3
0	1491	361.602797293139	2
0	1497	362.221478292218	1
0	1504	362.544170427398	2
0	1506	362.742876237778	3
0	1509	363.195792067375	4
0	1513	364.863679443537	5
0	1515	365.248150748002	6
0	1516	366.20591505641	5
0	1522	366.233589277473	6
0	1524	366.963609173711	7
0	1527	367.010032006922	8
0	1530	368.281500652998	7
0	1536	369.505029679723	6
0	1541	369.63214048008	5
0	1546	369.997464496469	4
0	1554	373.218583385972	3
0	1559	373.287386881201	2
0	1564	374.23762732168	1
0	1569	374.499024180467	0
0	1573	374.759632762415	1
0	1575	375.882486066179	2
0	1577	376.41336727266	3
0	1579	376.914719714632	4
0	1586	380.451886041548	5
0	1589	380.748735165218	4
0	1594	383.123756573879	3
0	1601	384.222508689844	2
0	1607	384.777606080525	1
0	1615	387.524860961229	0
0	1638	389.369064596303	1
0	1640	390.294172318556	0
0	1654	391.911100648987	1
0	1656	392.218536657308	2
0	1659	392.815895253492	1
0	1665	393.515850571919	2
0	1666	393.650671440448	1
0	1673	394.887276437357	0
0	1707	400.85601230656	1
0	1710	401.695351068352	0
0	1738	409.2416713795	1
0	1741	410.676197570689	0
0	1764	414.436036879407	1
0	1767	415.269500447164	0
0	1786	419.672504693588	1
0	1788	419.749000852307	2
0	1790	420.389617293894	3
0	1791	424.967778134651	2
0	1797	426.70896415621	1
0	1806	428.761873571975	2
0	1807	432.073612414416	1
0	1816	432.721878426393	2
0	1818	433.6945254495	3
0	1820	434.362053464652	4
0	1821	434.477690966584	3
0	1830	436.970571367177	2
0	1835	437.055266696549	1
0	1841	439.546676350574	0
0	1865	444.912992517274	1
0	1869	445.486794997295	2
0	1870	446.666200402624	1
0	1876	447.275586185319	0
0	1882	448.793393778842	1
0	1890	450.731853305459	2
0	1895	453.033665578245	1
0	1904	456.528865713501	0
0	1920	458.92136196694	1
0	1921	459.257152576417	0
0	1932	461.500091908915	1
0	1934	462.505749042422	0
0	1960	466.759207957474	1
0	1961	466.782971543195	0
0	1984	471.841264551465	1
0	1989	473.784192197711	2
0	1990	475.124976710281	1
0	1995	476.132902379338	0
0	2007	478.011208079157	1
0	2008	478.866324255634	0
0	2015	479.046096450505	1
0	2019	480.780424908211	0
0	2032	482.720016296723	1
0	2034	483.482499314586	0
0	2073	498.475554370027	1
0	2075	500.698177042085	0
0	2097	510.977798473028	1
0	2102	512.058085306699	0
0	2108	512.694323703133	1
0	2113	516.547331994217	0
0	2119	517.260040010361	1
0	2121	518.494822950565	2
0	2123	520.529995533621	1
0	2129	520.677511371194	2
0	2130	520.694605085407	1
0	2136	522.070773522314	2
0	2139	524.877277613232	1
0	2145	526.795640667188	0
0	2151	527.509647283872	1
0	2155	528.202330212469	2
0	2157	529.223264457751	1
0	2165	530.625212914569	0
0	2172	532.288341376793	1
0	2175	533.414851922145	0
0	2181	533.587884626227	1
0	2183	533.85265498495	2
0	2185	534.822566137935	3
0	2187	534.962978392386	4
0	2190	535.860012111174	3
0	2199	537.714707628208	4
0	2201	539.485286161595	5
0	2202	539.891425203223	4
0	2209	540.306351549768	3
0	2215	541.713059149326	2
0	2223	542.778267357712	1
0	2228	543.257661139432	0
0	2236	546.114841815699	1
0	2241	547.526028194992	2
0	2242	547.59157646978	1
0	2247	548.899395563467	0
0	2267	557.213128951861	1
0	2268	557.898831456723	0
0	2284	558.675881569803	1
0	2285	559.045351959141	0
0	2315	566.975901346673	1
0	2318	572.607986850128	0
0	2324	573.034250685336	1
0	2326	573.650304799019	0
0	2357	578.923919635867	1
0	2358	579.766677329163	0
0	2386	584.060909054182	1
0	2388	584.90906394394	2
0	2391	585.472791821014	1
0	2397	586.235056101093	0
0	2404	587.606525448319	1
0	2405	587.610830393118	0
0	2435	593.817467673811	1
0	2436	594.771536762092	0
0	2442	594.835999146492	1
0	2444	594.884638036706	2
0	2446	595.534877865143	1
0	2451	595.899645487964	0
0	2462	596.553255855278	1
0	2464	597.539807441967	2
0	2466	597.71827641292	1
0	2471	598.489641150127	0
0	2479	601.39207576193	1
0	2484	602.187064345034	0
0	2500	603.719627495774	1
0	2503	607.706816254888	0
0	2536	614.304443654695	1
0	2537	615.770355073838	0
0	2558	618.803356356943	1
0	2560	620.900761040538	2
0	2563	622.775746578953	1
0	2568	622.862662763066	0
0	2591	627.562745629883	1
0	2594	628.76944358485	0
0	2601	630.11732087377	1
0	2602	630.225942440412	0
0	2614	632.858110778595	1
0	2617	634.253001109302	0
0	2626	635.508432974134	1
0	2628	635.52356119188	2
0	2632	637.501508608314	3
0	2634	637.950654989467	4
0	2636	638.169113041398	5
0	2637	638.741650827227	4
0	2643	639.217020978431	3
0	2648	639.279310824362	2
0	2653	639.331277829821	1
0	2658	640.183698014656	0
0	2680	647.122839441532	1
0	2682	647.417059093311	2
0	2684	647.447153271711	3
0	2686	649.562670550575	4
0	2690	650.176338250613	5
0	2691	651.627291041756	4
0	2696	651.949737636012	3
0	2701	652.052697342007	2
0	2709	652.991425133656	3
0	2710	653.303747412009	2
0	2717	656.031854223507	1
0	2722	656.035763627314	0
0	2741	665.248622255237	1
0	2746	667.080248638811	2
0	2749	668.964311066941	1
0	2756	669.154336009631	0
0	2762	669.42542758059	1
0	2763	670.089880996131	0
0	2784	672.708309236161	1
0	2788	673.667133200371	0
0	2797	673.839771904395	1
0	2801	676.633484100166	0
0	2828	686.152837689545	1
0	2831	687.09753502876	0
0	2869	698.577318268795	1
0	2873	700.505433597037	2
0	2874	701.868067567363	1
0	2882	703.06663178421	0
0	2898	706.21540586379	1
0	2902	706.717220624124	0
0	2930	715.570374550439	1
0	2935	716.853802732162	0
0	2944	717.633926836657	1
0	2945	717.909937295318	0
0	2952	718.847705906861	1
0	2953	719.43305673289	0
0	2970	722.404668639579	1
0	2971	723.406790809336	0
0	2984	725.868762063193	1
0	2988	727.324743217678	2
0	2990	728.319038924999	3
0	2992	728.523511025219	4
0	2994	728.79015416859	5
0	2996	729.733726591174	6
0	2997	729.917281145332	5
0	3003	730.949530360451	4
0	3009	732.849792828737	3
0	3014	733.467075458096	2
0	3019	734.285869448122	1
0	3024	736.121942145152	0
0	3047	743.781127957703	1
0	3048	744.255528795596	0
0	3066	747.195642795598	1
0	3078	750.50513208992	2
0	3079	750.51675882447	1
0	3086	751.464531431052	2
0	3088	751.600846033364	3
0	3089	753.011132766629	2
0	3096	754.301351548224	3
0	3099	754.384686563327	2
0	3104	755.212387914091	1
0	3113	756.17013849744	0
0	3134	759.569983901596	1
0	3139	760.789291923019	0
0	3155	765.554955304728	1
0	3156	766.56914883814	0
0	3181	770.050336214744	1
0	3183	770.243964785409	2
0	3189	772.831632980448	3
0	3191	773.198520203798	4
0	3193	773.405921922361	5
0	3196	774.962814326041	4
0	3201	775.156277736328	3
0	3206	775.16346595925	2
0	3212	775.374695525697	1
0	3216	777.077619972637	2
0	3222	778.218853055263	3
0	3223	778.432406933641	2
0	3232	779.515088099324	1
0	3238	779.862309142602	2
0	3240	780.583617480094	1
0	3246	781.049491499412	2
0	3249	781.904206541468	3
0	3253	784.020820789334	4
0	3258	785.191036531121	3
0	3268	787.515486174312	2
0	3273	787.874812556915	1
0	3278	788.607098190131	0
0	3284	788.969468698577	1
0	3287	789.525447634805	0
0	3313	792.453437777095	1
0	3317	793.949863034201	2
0	3318	794.026298867572	1
0	3325	795.080362739904	2
0	3327	796.151211443513	3
0	3328	797.098733427969	2
0	3335	797.65355757868	1
0	3341	798.78009537653	0
0	3347	799.226141415033	1
0	3348	799.479863268422	0
0	3356	802.288343189261	1
0	3357	802.304960643667	0
0	3384	806.855298661743	1
0	3385	807.679082426137	0
0	3397	810.365865774975	1
0	3398	810.676155824027	0
0	3412	811.420553966109	1
0	3416	812.461912243274	0
0	3426	814.096537649104	1
0	3430	814.811486360544	2
0	3431	814.994894031599	1
0	3436	815.707641935046	0
0	3459	819.094779943217	1
0	3462	820.077519434653	0
0	3468	820.617495032384	1
0	3469	820.886717688485	0
0	3473	822.072000460269	1
0	3476	824.296006769814	0
0	3497	828.647774200752	1
0	3501	829.955455243897	0
0	3516	833.104795292911	1
0	3520	835.004383286917	2
0	3523	838.593507790242	1
0	3529	838.834784312903	2
0	3530	838.97725535224	1
0	3536	844.617538166928	2
0	3538	845.385441342622	3
0	3540	846.782957349613	4
0	3545	848.056550713384	3
0	3549	849.269008710289	4
0	3555	850.795284009885	5
0	3557	850.930210016996	4
0	3561	851.355422794243	5
0	3564	851.51051893225	4
0	3569	851.861094544146	3
0	3575	854.659909374319	4
0	3580	855.827037355527	3
0	3585	857.284454982144	2
0	3589	857.830373728629	3
0	3593	858.930607231062	4
0	3595	859.080305972281	5
0	3597	859.450620979079	6
0	3599	860.172249344895	5
0	3607	861.449982469903	6
0	3609	862.784618934547	5
0	3616	864.234073246055	4
0	3622	864.678323444242	5
0	3623	865.169791804542	4
0	3628	865.728328242249	3
0	3633	866.174964450721	2
0	3640	868.614745582609	1
0	3650	872.858671112544	2
0	3652	874.94767792546	1
0	3657	875.098993618242	0
0	3668	876.134874105352	1
0	3670	877.519885599931	2
0	3672	877.704516040739	3
0	3678	880.200087046193	4
0	3681	881.466419495286	5
0	3683	881.474249634307	6
0	3687	883.432824740168	7
0	3689	884.891423639951	8
0	3691	885.155356697998	9
0	3692	885.190660563401	8
0	3699	885.52632432267	9
0	3703	886.464305428955	8
0	3709	888.20320680393	7
0	3715	889.547248583915	6
0	3721	889.615793433323	7
0	3722	889.888365140323	6
0	3727	890.22953254074	5
0	3736	891.974731488637	6
0	3739	894.598791480012	5
0	3747	895.428250376977	6
0	3748	896.981415847033	5
0	3752	897.903791835949	6
0	3755	898.052143067646	5
0	3761	898.319480529332	6
0	3762	898.321586377886	5
0	3768	898.726665150713	6
0	3770	899.371124423423	5
0	3775	899.723877444879	4
0	3781	901.872331720834	3
0	3789	902.934039868667	4
0	3791	903.300734673344	5
0	3793	903.566553529471	6
0	3794	904.867422583617	5
0	3801	906.413151315851	6
0	3802	906.891065843219	5
0	3807	906.968169744205	4
0	3812	910.327536859097	3
0	3817	910.837565046167	2
0	3823	911.760384244385	3
0	3829	914.95159984957	2
0	3834	915.053350472828	1
0	3839	917.061833123722	0
0	3843	919.065696132305	1
0	3846	920.574339613354	0
0	3871	922.589873355834	1
0	3873	923.013043746278	2
0	3874	923.361533657776	1
0	3881	923.667582943153	0
0	3895	924.99238486687	1
0	3897	925.084089852994	2
0	3898	925.389734645723	1
0	3903	925.815690384718	0
0	3931	928.69204359429	1
0	3938	932.238012424464	0
0	3967	938.506544226215	1
0	3968	938.865499812596	0
0	3977	941.810266589041	1
0	3978	941.904626490843	0
0	3985	943.214670305032	1
0	3986	943.603379714107	0
0	3993	944.554588133128	1
0	3996	944.703388481647	2
0	3998	945.484815002871	3
0	3999	946.163673357258	2
0	4004	947.142090854592	1
0	4011	949.534686868773	0
0	4077	965.521701952522	1
0	4081	968.685524059843	2
0	4082	969.051940905752	1
0	4091	971.174835406289	2
0	4093	971.303928254352	3
0	4094	971.644803995612	2
0	4101	972.111386387846	1
0	4107	972.201434474815	2
0	4112	975.732711529431	1
0	4117	975.890951988369	0
0	4131	976.636054170468	1
0	4133	976.702607335613	2
0	4134	976.843175983745	1
0	4139	977.444172374445	0
0	4152	979.845526455123	1
0	4154	979.955227981051	2
0	4156	980.20246530609	3
0	4157	980.217058736971	2
0	4162	981.263761680843	1
0	4168	982.676232126022	0
0	4190	988.202382349005	1
0	4192	988.245083723501	2
0	4195	988.785948281283	1
0	4202	989.661908498394	0
0	4208	990.054354640849	1
0	4211	990.469613290455	2
0	4213	991.869104568478	1
0	4222	994.025536917485	2
0	4224	994.22306596102	1
0	4229	994.521048001911	0
0	4252	999.394612682102	1
0	4257	1001.729427961418	0
0	4266	1003.657708807871	1
0	4270	1005.00705111099	0
0	4279	1005.772123102018	1
0	4282	1008.346431830869	0
0	4303	1013.729584541324	1
0	4306	1015.150292728748	0
0	4327	1021.134964504475	1
0	4329	1021.154545524341	2
0	4332	1022.378387855034	1
0	4338	1023.55530767139	0
0	4344	1023.620016227054	1
0	4346	1025.881380952484	2
0	4348	1026.309084633159	1
0	4353	1026.422946712179	0
0	4360	1026.524073322579	1
0	4363	1028.418262162799	0
0	4369	1028.487435907616	1
0	4370	1029.618196594307	0
0	4388	1032.449559863587	1
0	4389	1033.086485565003	0
0	4406	1033.99898866538	1
0	4407	1034.848495357707	0
0	4419	1036.167354490075	1
0	4420	1036.363320783763	0
0	4436	1039.659608654749	1
0	4438	1039.73339460366	2
0	4439	1039.813394174053	1
0	4444	1040.14548444199	0
0	4466	1043.223600209205	1
0	4467	1043.39647845326	0
0	4478	1045.114368137728	1
0	4479	1046.239163294037	0
0	4485	1046.516607777616	1
0	4486	1046.841990800974	0
0	4521	1051.975357929138	1
0	4525	1052.836490571446	2
0	4529	1053.394165724163	3
0	4533	1053.614538192747	4
0	4535	1054.769643593993	5
0	4537	1056.412754015143	6
0	4539	1059.564001136046	5
0	4544	1059.997739794579	4
0	4554	1061.60039466772	5
0	4556	1062.091730612284	4
0	4562	1062.512771114774	3
0	4567	1062.613906411002	2
0	4572	1063.1026360324	1
0	4576	1067.124795734369	2
0	4578	1068.07224438673	3
0	4582	1069.246251549472	4
0	4587	1070.061209035392	5
0	4588	1070.147052556337	4
0	4595	1071.400280889038	3
0	4602	1074.97625008293	2
0	4607	1075.721938355706	1
0	4612	1076.152692866974	0
0	4630	1078.553924693808	1
0	4632	1078.690395632553	2
0	4635	1079.804183347616	3
0	4637	1083.263956031064	2
0	4642	1083.428591820276	1
0	4647	1084.899847976727	0
0	4661	1087.106729127545	1
0	4663	1087.165747867379	2
0	4664	1087.40067029588	1
0	4669	1087.431179348524	0
0	4683	1088.489690899418	1
0	4685	1089.550134400557	2
0	4691	1092.024130287871	3
0	4692	1092.267435033047	2
0	4701	1093.900973573168	3
0	4703	1094.191688107534	4
0	4705	1094.370233123322	5
0	4706	1094.793870269013	4
0	4714	1096.564954742905	3
0	4719	1097.116878269071	2
0	4725	1098.010532955894	1
0	4731	1098.92691589231	2
0	4735	1100.247724091088	3
0	4739	1100.82689200698	4
0	4742	1101.568900063025	3
0	4749	1105.799793152624	2
0	4754	1106.318022210466	1
0	4760	1106.759314478949	2
0	4764	1107.326396764177	3
0	4767	1107.77281789978	2
0	4776	1109.68214704137	1
0	4781	1111.782677252059	0
0	4802	1115.938838563526	1
0	4803	1116.279526826262	0
0	4815	1117.955226800472	1
0	4817	1118.50625920691	0
0	4836	1120.761353657019	1
0	4837	1120.857198374381	0
0	4856	1123.659004165136	1
0	4858	1124.304585092091	2
0	4861	1125.025597772195	1
0	4867	1125.228303299482	2
0	4869	1125.883506862279	1
0	4875	1126.825908989438	2
0	4877	1126.932562274484	3
0	4882	1127.771010366673	2
0	4887	1127.908900909171	1
0	4894	1130.37440223421	2
0	4896	1130.526261369947	3
0	4897	1130.60637860127	2
0	4903	1133.72162013892	3
0	4904	1133.825270261096	2
0	4913	1138.010753497066	3
0	4914	1139.712233673286	2
0	4920	1140.090360198915	3
0	4921	1140.440894593554	2
0	4926	1141.204559601593	1
0	4933	1141.54886150573	0
0	4960	1146.194098776763	1
0	4961	1146.511815255518	0
0	4973	1148.6435147449	1
0	4979	1151.025215830501	2
0	4980	1152.206643612372	1
0	4986	1152.648687674935	0
0	4993	1155.386847470443	1
0	4994	1156.366015477815	0
0	5009	1158.61281965804	1
0	5013	1159.642685403334	2
0	5019	1160.129702037153	3
0	5020	1160.477118713645	2
0	5027	1161.002123391532	3
0	5029	1161.760365643714	4
0	5032	1163.700294638363	3
0	5037	1163.960017718892	2
0	5042	1164.268692777897	1
0	5054	1165.206151840371	2
0	5055	1165.899073281013	1
0	5060	1167.182823803763	0
0	5066	1167.498194793779	1
0	5068	1167.662443507309	2
0	5070	1168.895927814693	1
0	5074	1169.346908257516	2
0	5077	1170.769929769849	1
0	5084	1172.450248501413	2
0	5086	1173.314404503084	1
0	5093	1176.769741636196	0
0	5101	1178.024194269893	1
0	5102	1178.561321140166	0
0	5109	1180.02835543655	1
0	5113	1181.108700124476	2
0	5114	1182.677400929377	1
0	5122	1183.365161128463	0
0	5128	1183.440431625638	1
0	5130	1183.904395716522	2
0	5132	1184.391811109421	3
0	5134	1184.404322796947	4
0	5135	1185.335550808475	3
0	5141	1186.590511700872	4
0	5142	1187.66143285777	3
0	5148	1188.741071902058	4
0	5152	1192.789139242759	3
0	5157	1192.861046577525	2
0	5163	1197.388361484854	1
0	5169	1198.261672218524	0
0	5184	1200.400968423712	1
0	5186	1200.992339538651	2
0	5187	1201.123412618336	1
0	5195	1203.111676186902	2
0	5196	1203.422960284707	1
0	5202	1203.725006760053	2
0	5203	1204.062736493036	1
0	5209	1205.325790950945	0
0	5223	1207.573763920655	1
0	5224	1207.751041516471	0
0	5230	1208.400842881594	1
0	5231	1208.506562286357	0
0	5257	1211.878833864767	1
0	5259	1212.885688124147	2
0	5263	1214.163590803338	3
0	5264	1214.352887495222	2
0	5271	1214.912245957971	3
0	5272	1215.17315833318	2
0	5278	1215.608953613462	3
0	5283	1218.774841721573	4
0	5285	1220.553147968828	5
0	5288	1224.200540546786	4
0	5294	1224.455381761217	5
0	5296	1224.597550380548	6
0	5299	1225.279640731831	7
0	5300	1225.2989129122	6
0	5306	1225.460972284735	7
0	5308	1226.228774842354	6
0	5314	1231.504384158533	5
0	5322	1231.88641378932	6
0	5323	1231.975284024335	5
0	5328	1232.014443996684	4
0	5334	1232.461691152137	5
0	5335	1232.918604863424	4
0	5339	1233.309907251791	5
0	5341	1233.350837942589	6
0	5346	1234.709749777107	5
0	5351	1235.110182445016	4
0	5355	1235.32766969609	5
0	5359	1236.781753271792	6
0	5361	1238.956642647599	7
0	5363	1239.482309012678	8
0	5366	1240.295255040399	7
0	5370	1241.350545732184	8
0	5372	1242.35537895765	9
0	5376	1243.083038931887	10
0	5377	1243.474469083685	9
0	5383	1244.706599941693	10
0	5386	1246.841150553588	9
0	5390	1247.074715039982	10
0	5393	1247.87160761414	9
0	5399	1249.537067939938	10
0	5402	1250.036742625507	9
0	5408	1251.55416397109	8
0	5413	1252.102673710517	7
0	5417	1252.806119439888	8
0	5421	1254.780391208155	7
0	5430	1256.366827810143	8
0	5431	1256.50805537255	7
0	5437	1257.380160041741	6
0	5442	1257.979232152307	5
0	5447	1259.424663219776	4
0	5454	1264.230925886231	3
0	5459	1264.923045282109	2
0	5464	1266.017411806314	1
0	5468	1266.235831303615	2
0	5470	1266.522572795028	3
0	5475	1268.355872358958	2
0	5480	1268.712755434876	1
0	5485	1271.636300213036	0
0	5489	1271.951110795976	1
0	5493	1274.094285012301	2
0	5494	1274.849337070396	1
0	5500	1275.266148164189	2
0	5501	1275.323787424529	1
0	5507	1276.905037372872	0
0	5514	1277.683273869453	1
0	5515	1278.10014317863	0
0	5555	1284.396951141999	1
0	5558	1287.803281723501	0
0	5569	1289.123457598706	1
0	5574	1289.803392161271	0
0	5589	1292.73677351844	1
0	5592	1293.74176581216	0
0	5599	1294.911249224776	1
0	5601	1295.341340666444	0
0	5620	1299.137126393507	1
0	5621	1299.917832122563	0
0	5669	1311.109744433701	1
0	5676	1315.115600483541	0
0	5693	1320.767811598305	1
0	5698	1321.541982113239	0
0	5704	1321.779854114028	1
0	5707	1322.671477957826	2
0	5709	1323.015430020618	3
0	5710	1324.139060814417	2
0	5715	1324.804191151559	1
0	5721	1325.306174125751	0
0	5734	1327.509755139335	1
0	5736	1327.896363277936	2
0	5737	1330.238754556636	1
0	5743	1330.999076711559	0
0	5749	1331.024818295723	1
0	5750	1331.924101883262	0
0	5772	1336.009215935471	1
0	5776	1337.308646479196	2
0	5777	1337.762514675137	1
0	5786	1339.484458493395	0
0	5815	1343.918101827897	1
0	5816	1344.00286953999	0
0	5833	1347.137872792906	1
0	5836	1348.444128736156	0
0	5848	1350.356169420857	1
0	5850	1351.398625540416	0
0	5857	1351.637807166196	1
0	5859	1352.154170021092	2
0	5861	1352.954280941115	1
0	5868	1354.195065204003	0
0	5908	1361.990786219234	1
0	5912	1363.353626251997	2
0	5914	1364.735900664993	3
0	5915	1366.537920795758	2
0	5923	1367.022849917557	1
0	5928	1367.090842732113	0
0	5989	1378.5195670123	1
0	5990	1378.902184405954	0
0	6030	1390.073864473042	1
0	6032	1391.484904053643	2
0	6034	1392.613298114485	3
0	6040	1396.103168660133	4
0	6041	1396.154179279381	3
0	6046	1396.773067173337	2
0	6054	1397.512485328846	1
0	6060	1397.675934493888	2
0	6062	1398.68689991617	1
0	6067	1398.864210352155	0
0	6079	1401.053452718294	1
0	6080	1401.393909517245	0
0	6084	1402.942728381926	1
0	6088	1404.464225445718	2
0	6090	1405.935982887992	3
0	6092	1407.541099546603	2
0	6098	1407.857478738194	3
0	6100	1410.367990521882	4
0	6101	1410.548959706832	3
0	6106	1411.422263118333	2
0	6110	1411.507698961327	3
0	6119	1412.586816128355	2
0	6123	1413.296792540516	3
0	6125	1414.884705162734	4
0	6129	1415.62452011487	3
0	6135	1416.121255307729	2
0	6143	1417.889898872845	1
0	6148	1418.235497128793	0
0	6193	1423.500582145985	1
0	6194	1423.769387400604	0
0	6219	1427.040366122397	1
0	6221	1427.447666880284	2
0	6222	1428.052423153178	1
0	6227	1428.303499438204	0
0	6233	1428.421643570739	1
0	6234	1428.520273849856	0
0	6258	1432.712944478197	1
0	6264	1434.558384218575	2
0	6268	1437.613938256446	1
0	6274	1438.011776541888	0
0	6294	1443.179839968895	1
0	6296	1443.508130404143	2
0	6297	1444.965415570674	1
0	6302	1445.097017327664	0
0	6389	1479.764298938092	1
0	6390	1479.831820612829	0
0	6399	1481.100363071349	1
0	6400	1481.597799459687	0
0	6410	1483.390754025979	1
0	6411	1484.202889620979	0
0	6440	1490.49385332721	1
0	6443	1492.110859604119	0
0	6520	1507.955552682296	1
0	6523	1508.831754103864	2
0	6525	1509.650323520182	1
0	6531	1510.141278149889	2
0	6534	1511.7428628022	3
0	6535	1511.784460428322	2
0	6540	1512.085493343295	1
0	6546	1513.621823270266	2
0	6549	1514.465456476181	1
0	6554	1514.666991148549	0
0	6560	1517.097920352108	1
0	6565	1518.509768017383	0
0	6587	1525.156543495033	1
0	6589	1525.637411510297	2
0	6590	1525.721179710608	1
0	6596	1525.897568625148	2
0	6598	1526.418102420481	3
0	6600	1526.910154331377	4
0	6603	1528.045632348124	3
0	6609	1528.663081181049	2
0	6615	1528.705741806038	3
0	6616	1528.913208968885	2
0	6624	1530.222863036776	1
0	6630	1532.401284483796	0
0	6646	1533.10013766435	1
0	6649	1536.470727938446	0
0	6693	1545.618011277964	1
0	6699	1546.583899762912	2
0	6700	1547.430881664161	1
0	6706	1548.899754714311	2
0	6707	1548.936163791525	1
0	6712	1549.151127072232	0
0	6728	1552.923134357512	1
0	6730	1554.436293459419	2
0	6733	1555.323398855106	1
0	6739	1557.276713546663	2
0	6745	1558.932036334244	3
0	6746	1559.261658453326	2
0	6751	1559.301439659116	1
0	6762	1560.671246268678	2
0	6764	1561.464919236134	3
0	6765	1562.139414060094	2
0	6776	1564.010526260461	3
0	6778	1564.920747644875	2
0	6786	1565.682148522441	1
0	6794	1566.259237782588	0
0	6817	1570.321443906804	1
0	6818	1570.541425273926	0
0	6830	1572.088480916833	1
0	6832	1572.773406792161	2
0	6835	1574.285796116628	1
0	6840	1574.297857264491	0
0	6881	1583.011462797142	1
0	6883	1584.520849490801	2
0	6884	1585.696964027714	1
0	6891	1586.562336614905	0
0	6952	1599.092986638597	1
0	6956	1600.338118170029	0
0	6964	1600.592508450413	1
0	6965	1600.75992440668	0
0	6986	1605.700749966224	1
0	6988	1605.835017284979	2
0	6989	1605.941621353156	1
0	6997	1608.654940462646	0
0	7008	1609.430386488662	1
0	7011	1610.072287100813	0
0	7023	1611.04708900503	1
0	7025	1611.138345117639	2
0	7027	1612.580108778385	1
0	7034	1613.66373567733	2
0	7036	1614.250068988905	3
0	7040	1614.49512782586	2
0	7045	1616.288444760393	1
0	7050	1616.369988604289	0
0	7056	1618.352648553256	1
0	7057	1618.433201897937	0
0	7064	1618.934980833126	1
0	7065	1619.763187682051	0
0	7082	1622.577118695047	1
0	7086	1623.049449454777	2
0	7089	1624.041982630024	1
0	7096	1624.236235723099	2
0	7098	1626.523694902933	1
0	7104	1626.742920717385	2
0	7105	1628.051403237399	1
0	7111	1630.111713298854	0
0	7194	1655.600916208142	1
0	7196	1655.60427667136	2
0	7197	1655.662446773637	1
0	7202	1655.818789272565	0
0	7226	1660.6844286708	1
0	7227	1660.786206103155	0
0	7266	1668.023498237151	1
0	7270	1668.283416125867	2
0	7271	1668.827088546504	1
0	7276	1669.949040249031	0
0	7322	1684.426098795633	1
0	7324	1684.605837884663	0
0	7342	1690.370983604185	1
0	7350	1693.885828548606	2
0	7353	1695.365274173737	1
0	7358	1700.189344136018	0
0	7364	1700.465608422351	1
0	7365	1700.492880362479	0
0	7369	1701.194393686806	1
0	7372	1703.707291675743	0
0	7376	1704.754950197	1
0	7379	1705.861754301889	0
0	7395	1706.959158043847	1
0	7397	1707.681455750474	0
0	7407	1708.725856438335	1
0	7408	1709.158673270109	0
0	7462	1719.981272859846	1
0	7463	1720.330882398852	0
0	7482	1726.138252853198	1
0	7483	1727.01385172302	0
0	7508	1735.526264149779	1
0	7509	1736.148714222989	0
0	7536	1740.981362824658	1
0	7537	1741.214795764623	0
0	7600	1757.004145897128	1
0	7606	1757.956357199484	2
0	7607	1758.117840986317	1
0	7612	1758.315726883832	0
0	7626	1758.871332303635	1
0	7631	1760.080251762849	2
0	7634	1761.554658540744	1
0	7639	1761.630910266581	0
0	7664	1770.965558398944	1
0	7668	1772.05492205731	0
0	7674	1772.535951816547	1
0	7675	1773.400933152048	0
0	7699	1779.668442719054	1
0	7702	1780.285474456701	0
0	7717	1781.933532328999	1
0	7721	1782.193631167927	0
0	7768	1796.85046567125	1
0	7770	1797.481836148627	2
0	7771	1797.864393456233	1
0	7777	1798.948160127958	0
0	7805	1803.170677869603	1
0	7809	1807.038075785268	0
0	7876	1828.441721241476	1
0	7878	1828.827768148098	2
0	7880	1829.194862454704	3
0	7882	1829.611508540756	4
0	7883	1829.958616441877	3
0	7888	1831.175312743775	2
0	7893	1831.195277024583	1
0	7898	1831.723863680205	0
0	7913	1834.907131014821	1
0	7915	1836.29105242915	2
0	7922	1836.906424962293	1
0	7927	1837.07037142887	0
0	7933	1838.255672874889	1
0	7938	1840.290242945596	2
0	7939	1840.408294098232	1
0	7946	1841.03888342669	2
0	7947	1841.326928483036	1
0	7952	1841.747454463512	0
0	7999	1857.122509946494	1
0	8000	1858.11190890865	0
0	8048	1871.255374360873	1
0	8049	1871.573808780995	0
0	8080	1886.381262919707	1
0	8082	1886.563258024065	2
0	8083	1887.721007411013	1
0	8089	1888.463246676304	2
0	8094	1890.666908455658	1
0	8100	1890.696122947181	2
0	8105	1893.368435807864	1
0	8110	1893.836716952806	0
0	8128	1896.057990972738	1
0	8129	1896.387130677793	0
0	8149	1900.583719765054	1
0	8150	1901.553672916653	0
0	8157	1902.229679553206	1
0	8159	1904.160690174933	0
0	8165	1904.988974046308	1
0	8166	1905.461201696852	0
0	8215	1915.650776957909	1
0	8218	1916.515700309415	2
0	8219	1918.214876144942	1
0	8224	1918.322954111036	0
0	8263	1929.813615935761	1
0	8265	1930.196667543943	0
0	8292	1936.477461129415	1
0	8295	1937.73504512993	0
0	8301	1938.2214974453	1
0	8303	1938.276322462914	2
0	8313	1940.396515409279	1
0	8318	1941.073371339086	0
0	8324	1941.444348391872	1
0	8329	1942.766566741903	2
0	8330	1943.760149768622	1
0	8335	1943.833002348682	0
0	8341	1946.546293225208	1
0	8343	1946.839965564034	2
0	8344	1948.100987872927	1
0	8351	1950.294915491102	0
0	8367	1951.712113376419	1
0	8369	1952.101092154649	0
0	8397	1955.806129996397	1
0	8402	1958.90876634427	0
0	8411	1960.246602934897	1
0	8418	1962.517599742686	2
0	8420	1962.790838211751	3
0	8423	1963.304656664392	2
0	8429	1964.640219662761	1
0	8435	1964.783135641222	2
0	8437	1964.997172988267	3
0	8438	1965.164411368609	2
0	8445	1966.78224671923	1
0	8452	1967.589076109273	0
0	8466	1970.107420423895	1
0	8467	1970.850064012161	0
0	8483	1972.566881058139	1
0	8484	1972.714906977681	0
0	8501	1974.450575701459	1
0	8502	1975.94616156967	0
0	8529	1983.589996150874	1
0	8531	1983.941423003065	2
0	8532	1984.240410727211	1
0	8537	1984.273863681598	0
0	8567	1991.061751290948	1
0	8569	1992.564949505144	2
0	8571	1992.595359871175	3
0	8573	1994.922430394852	4
0	8576	1995.226424538659	3
0	8581	1995.739746422466	2
0	8588	1996.791742351922	1
0	8594	1998.56709552254	2
0	8595	1998.821112166383	1
0	8601	1998.876779440844	2
0	8607	2000.114771847114	3
0	8608	2000.146039541877	2
0	8614	2000.739658090735	1
0	8619	2001.156264040936	0
0	8626	2002.604566948705	1
0	8627	2002.734963818233	0
0	8631	2003.211774414143	1
0	8633	2003.946195156322	2
0	8636	2004.984819989326	1
0	8641	2005.863688616127	0
0	8645	2005.898272242995	1
0	8647	2007.644121369824	2
0	8651	2009.155415851123	3
0	8652	2009.51583665799	2
0	8658	2010.574064583254	3
0	8660	2010.771479577667	2
0	8666	2010.835957742375	1
0	8671	2011.582551033097	0
0	8683	2013.474291277157	1
0	8684	2013.898252160324	0
0	8695	2015.665559060391	1
0	8696	2016.043801410479	0
0	8717	2019.56507943608	1
0	8718	2020.27539293326	0
0	8729	2021.015372538616	1
0	8731	2022.824568498642	0
0	8746	2024.34206222828	1
0	8747	2024.776995216751	0
0	8764	2027.290536289293	1
0	8766	2027.295749112293	2
0	8768	2029.069118390821	3
0	8769	2030.428094162039	2
0	8775	2031.310526224439	1
0	8780	2031.866390355106	0
0	8817	2038.312417775655	1
0	8818	2038.438745976532	0
0	8825	2038.904420837485	1
0	8827	2039.017733178047	2
0	8828	2039.561259233695	1
0	8836	2040.175522784659	0
0	8864	2054.318756788012	1
0	8866	2054.58984032794	0
0	8908	2071.442900782979	1
0	8909	2071.834814515247	0
0	8938	2076.962386117691	1
0	8943	2079.723290680396	2
0	8945	2079.820142683112	3
0	8946	2080.166260639076	2
0	8953	2081.170745702328	3
0	8955	2081.345598967708	2
0	8960	2081.360367807417	1
0	8965	2081.429763481477	0
0	8985	2084.850468158408	1
0	8986	2084.918564320784	0
0	9006	2089.070757011518	1
0	9010	2090.28173900309	2
0	9012	2091.536488627228	1
0	9019	2091.952215353305	0
0	9051	2095.420135699862	1
0	9052	2096.957272599271	0
0	9058	2097.450673131133	1
0	9063	2100.318491621095	0
0	9069	2100.369865143383	1
0	9071	2101.143129899632	0
0	9088	2104.903676701313	1
0	9090	2106.452754135471	0
0	9103	2108.246235363594	1
0	9107	2109.024819078569	2
0	9109	2109.825915051884	3
0	9110	2113.955886966782	2
0	9118	2114.510019277809	1
0	9123	2114.814273516932	0
0	9129	2115.286495080417	1
0	9132	2116.213310949006	2
0	9135	2118.045903454613	1
0	9140	2118.535197175961	0
0	9192	2130.723451623172	1
0	9193	2131.378913015837	0
0	9208	2135.063802283916	1
0	9209	2135.381370184796	0
0	9217	2137.269033595986	1
0	9220	2138.004346514043	0
0	9255	2145.44456628111	1
0	9256	2146.071544815509	0
0	9287	2156.15873676544	1
0	9288	2156.901762381145	0
0	9332	2166.098004479003	1
0	9334	2166.718795204708	2
0	9337	2168.324325613836	3
0	9340	2170.710743709035	2
0	9346	2171.718157163256	3
0	9348	2172.615377739149	2
0	9355	2173.223243120389	1
0	9361	2173.333305784691	0
0	9367	2174.990938997312	1
0	9368	2174.992418223095	0
0	9387	2176.569234056562	1
0	9388	2177.229539191379	0
0	9453	2192.697925438901	1
0	9458	2193.329136331741	0
0	9468	2197.630655973461	1
0	9470	2200.276934832175	2
0	9475	2201.333490289832	1
0	9481	2203.242931472499	0
0	9487	2203.438638290186	1
0	9488	2203.629901451584	0
0	9496	2207.929371136265	1
0	9497	2208.213813794906	0
0	9517	2209.877834931581	1
0	9520	2211.051897193268	0
0	9526	2211.337072882659	1
0	9529	2211.778677557362	0
0	9568	2219.30033752916	1
0	9572	2221.539898600372	2
0	9575	2222.921560982098	1
0	9582	2223.857916988367	0
0	9609	2231.506355757252	1
0	9610	2231.816223567061	0
0	9664	2249.976853673379	1
0	9667	2251.093970593123	2
0	9668	2251.220113289319	1
0	9674	2252.342052155739	2
0	9675	2252.482082392643	1
0	9680	2252.627529058275	0
0	9701	2264.782687121089	1
0	9705	2266.29350917698	2
0	9706	2266.543040175083	1
0	9712	2268.376485035718	2
0	9714	2269.398564537982	3
0	9720	2270.266866916207	2
0	9726	2270.388787733184	3
0	9728	2271.66908569126	4
0	9729	2271.98575186523	3
0	9733	2272.759840434791	4
0	9735	2273.025849452376	5
0	9738	2274.141960978716	4
0	9745	2275.818238295369	3
0	9750	2277.050661697189	2
0	9754	2277.080849619116	3
0	9756	2278.619066547683	4
0	9760	2279.126432989709	5
0	9761	2280.422363945927	4
0	9765	2280.598694455548	5
0	9769	2281.059169749065	6
0	9774	2282.75337660416	5
0	9780	2283.400066492311	4
0	9785	2283.600533591973	3
0	9792	2286.305312841702	2
0	9799	2287.009569528847	1
0	9805	2287.843028947689	2
0	9810	2289.787080012927	1
0	9817	2290.452303879543	2
0	9821	2296.313032433839	3
0	9824	2297.091766893119	2
0	9832	2298.065199122555	1
0	9837	2298.899180751712	0
0	9841	2299.393646043785	1
0	9846	2302.133559939161	0
0	9892	2314.742835443094	1
0	9894	2315.973989432759	2
0	9896	2317.022225872174	3
0	9899	2317.041781972294	2
0	9906	2319.044765391249	1
0	9913	2319.341293176805	0
0	9933	2321.768765741048	1
0	9934	2322.193639097968	0
0	9940	2322.348670058323	1
0	9946	2323.311994512525	2
0	9948	2325.144655396241	1
0	9954	2326.143804649498	2
0	9958	2328.596459163391	1
0	9965	2329.19012643866	2
0	9967	2330.105376355634	3
0	9968	2330.181936456463	2
0	9975	2332.566077793064	3
0	9976	2332.677131014977	2
0	9984	2334.035312105584	1
0	9989	2334.822833554618	0
0	10020	2342.604446488404	1
0	10022	2342.688831564936	2
0	10023	2345.046859740096	1
0	10029	2346.534061509843	0
0	10035	2346.684250836295	1
0	10040	2349.368875558211	2
0	10045	2352.77584371251	3
0	10046	2353.962959874243	2
0	10051	2354.198771368678	1
0	10058	2355.023880775461	0
0	10083	2357.099063621758	1
0	10085	2357.122954815858	2
0	10086	2357.743063479694	1
0	10091	2358.122011468383	0
0	10102	2358.741485315154	1
0	10103	2358.787196602977	0
0	10117	2360.966079025061	1
0	10118	2361.327427787396	0
0	10127	2362.204023675867	1
0	10132	2364.205849399367	0
0	10141	2365.374131834471	1
0	10148	2368.323018004472	0
0	10165	2376.899091398872	1
0	10167	2377.560632938056	2
0	10170	2380.827315066758	1
0	10175	2380.940327745389	0
0	10179	2381.490261291525	1
0	10181	2382.139320429563	2
0	10183	2383.337523486608	3
0	10185	2384.732012018561	4
0	10192	2385.903576796885	5
0	10193	2386.039353215617	4
0	10199	2386.242163915424	3
0	10203	2386.495732793522	4
0	10207	2387.6179187713	3
0	10212	2387.925981125593	2
0	10221	2388.580832677959	1
0	10226	2388.644420298755	0
0	10241	2390.908891412046	1
0	10248	2396.579331583374	0
0	10267	2402.517265154668	1
0	10268	2402.955616929047	0
0	10277	2403.68137621381	1
0	10286	2407.692415354529	0
0	10299	2408.629365352832	1
0	10300	2409.152920074577	0
0	10306	2409.210101978357	1
0	10307	2409.772326857555	0
0	10313	2410.592314690902	1
0	10315	2411.115521778423	2
0	10319	2414.340545644087	3
0	10320	2414.58226556479	2
0	10325	2415.223118593805	1
0	10332	2415.977117976445	2
0	10334	2417.25324174024	1
0	10339	2418.841321077786	0
0	10343	2419.12657606504	1
0	10345	2420.003708504136	2
0	10349	2421.055697009517	3
0	10350	2421.11661951986	2
0	10358	2423.982641871776	1
0	10363	2424.458057178367	0
0	10371	2426.293665884203	1
0	10374	2427.213218133416	2
0	10375	2427.596669694549	1
0	10380	2429.355822723802	0
0	10410	2432.888974461794	1
0	10412	2434.004417275508	0
0	10426	2435.23924676553	1
0	10428	2435.785365420808	2
0	10431	2436.003987369901	3
0	10432	2436.683869790769	2
0	10437	2438.731412647303	1
0	10446	2439.218627258522	0
0	10486	2460.997850674883	1
0	10487	2461.423508680353	0
0	10518	2468.574069859123	1
0	10519	2469.88389421666	0
0	10582	2489.070129485371	1
0	10585	2491.098551392339	0
0	10594	2493.497315594397	1
0	10595	2493.949381725326	0
0	10602	2495.396515870518	1
0	10603	2496.881840614355	0
0	10652	2506.82816999326	1
0	10656	2508.903341135777	0
0	10680	2515.237367383007	1
0	10681	2515.288541507556	0
0	10750	2535.178251688047	1
0	10751	2535.581496531235	0
0	10790	2549.92707946726	1
0	10792	2550.110334675397	2
0	10795	2550.991468439989	3
0	10797	2551.651869419331	4
0	10798	2551.997682347013	3
0	10803	2552.520870372417	2
0	10810	2552.747926881742	1
0	10816	2553.139764921076	0
0	10829	2554.852102517707	1
0	10832	2555.788094872963	0
0	10873	2567.084067144021	1
0	10877	2571.932714166336	2
0	10878	2575.685264329807	1
0	10883	2576.50575853492	0
0	10897	2577.328637716754	1
0	10898	2577.642635382545	0
0	10904	2578.56976302224	1
0	10905	2578.791202318334	0
0	10921	2583.096929805594	1
0	10922	2584.310998782986	0
0	10936	2589.71923922062	1
0	10937	2590.870474062163	0
0	10943	2594.325532086215	1
0	10944	2594.789400732667	0
0	10952	2596.065964393288	1
0	10954	2597.628579094695	2
0	10955	2599.303814807812	1
0	10961	2600.371586325279	2
0	10962	2600.399935266154	1
0	10967	2602.439469710277	0
0	10976	2606.714970461036	1
0	10982	2607.138752079714	2
0	10988	2610.83867432897	3
0	10990	2611.97342592761	4
0	10991	2612.303510782517	3
0	10997	2612.308503863533	4
0	10998	2613.738197423022	3
0	11005	2614.164837448241	2
0	11012	2614.897076716409	1
0	11018	2615.655773557691	2
0	11022	2617.949075600561	1
0	11027	2618.36687258167	0
0	11049	2625.617209707502	1
0	11051	2627.17900163838	0
0	11079	2632.607763844135	1
0	11080	2633.22419146895	0
0	11086	2633.249789780382	1
0	11087	2633.362946493339	0
0	11098	2636.754296682465	1
0	11101	2637.034502156822	0
0	11120	2642.88520754378	1
0	11123	2643.226931494556	0
0	11139	2646.593465891534	1
0	11144	2647.247476102533	0
0	11153	2649.646440742007	1
0	11159	2654.45609885795	2
0	11163	2656.972721628543	1
0	11169	2657.45817419457	0
0	11187	2661.36898997779	1
0	11189	2661.509053773732	2
0	11193	2662.431892599675	3
0	11195	2664.02714945569	2
0	11202	2665.868744343919	1
0	11208	2666.777672611155	0
0	11225	2669.328161234066	1
0	11227	2669.726981075145	2
0	11229	2670.593991288001	3
0	11233	2672.353920264977	2
0	11239	2672.491277569	3
0	11240	2673.182088738421	2
0	11248	2674.87839956656	1
0	11254	2676.694729596061	0
0	11258	2678.406668936782	1
0	11262	2679.650108139164	0
0	11357	2700.395799847351	1
0	11358	2700.641751931294	0
0	11372	2702.809417484799	1
0	11373	2702.857332477681	0
0	11387	2704.151135863253	1
0	11388	2704.475570543549	0
0	11404	2707.313406335678	1
0	11405	2707.340710049335	0
0	11460	2733.151197984698	1
0	11461	2733.424530196487	0
0	11484	2736.936566102587	1
0	11487	2738.976378362866	0
0	11493	2739.120272396101	1
0	11495	2740.472270132072	2
0	11500	2740.806607123259	3
0	11501	2740.843591769762	2
0	11510	2743.160759309252	1
0	11516	2743.628204201428	0
0	11532	2745.332837644133	1
0	11533	2745.691157227058	0
0	11550	2749.356968144836	1
0	11555	2752.274759900081	0
0	11564	2752.692686088	1
0	11567	2754.385588896001	0
0	11581	2756.185151211582	1
0	11582	2756.264281215925	0
0	11598	2759.881351449875	1
0	11601	2760.917542998329	0
0	11607	2761.021508836071	1
0	11611	2761.625349576869	2
0	11613	2762.237074947699	3
0	11614	2762.96684807499	2
0	11619	2763.122020825692	1
0	11626	2766.306592246009	0
0	11632	2766.490404380578	1
0	11633	2766.954145974731	0
0	11640	2767.495332795404	1
0	11641	2767.653192063421	0
0	11668	2772.611718694922	1
0	11670	2772.839344831534	2
0	11671	2772.842682250746	1
0	11676	2772.927651892393	0
0	11687	2774.131637520877	1
0	11688	2774.332471942631	0
0	11694	2775.476644387821	1
0	11695	2775.676913056115	0
0	11701	2775.929609337245	1
0	11703	2776.936064120581	2
0	11709	2777.868292669155	1
0	11714	2778.013341502372	0
0	11721	2778.425138514302	1
0	11722	2779.756493539966	0
0	11758	2790.575541434294	1
0	11762	2791.248788975206	2
0	11764	2792.698383004599	3
0	11765	2793.484378818868	2
0	11771	2793.756883977571	1
0	11777	2795.231109811147	0
0	11837	2821.990579343872	1
0	11841	2824.229836202935	2
0	11842	2824.440709646704	1
0	11848	2824.649198469266	0
0	11871	2828.954395822777	1
0	11872	2829.089475754261	0
0	11889	2835.971872957646	1
0	11891	2836.243606400986	2
0	11895	2837.848585834529	3
0	11897	2837.912455476617	4
0	11903	2840.010373433599	3
0	11913	2842.090651689947	4
0	11915	2842.495422000846	3
0	11920	2842.518805554232	2
0	11925	2842.672843428346	1
0	11930	2842.835695813627	0
0	11934	2844.53465282529	1
0	11938	2847.840725594892	0
0	11957	2849.511075333188	1
0	11958	2849.528257649279	0
0	11965	2850.285076445163	1
0	11966	2850.295219793635	0
0	11980	2852.198419689716	1
0	11981	2852.823821190444	0
0	11999	2854.445634717595	1
0	12001	2854.979600322017	2
0	12003	2855.882454574524	3
0	12006	2856.402954350417	2
0	12012	2856.907065231595	3
0	12013	2857.179012190679	2
0	12018	2857.298431669747	1
0	12023	2857.62515602543	0
0	12029	2859.209005778833	1
0	12031	2860.85560688886	0
0	12045	2864.176307514308	1
0	12047	2866.320532012452	0
0	12062	2868.807682705952	1
0	12063	2869.875865861604	0
0	12069	2870.219285741751	1
0	12070	2870.238259493366	0
0	12077	2870.466942458829	1
0	12078	2870.682037618392	0
0	12103	2876.174207689906	1
0	12104	2876.7651723757	0
0	12157	2890.010592760816	1
0	12158	2891.064186432944	0
0	12231	2924.687914804195	1
0	12234	2927.382013384942	0
0	12251	2930.413811499293	1
0	12254	2931.409421843282	0
0	12281	2938.930401964064	1
0	12284	2939.788457680475	2
0	12285	2940.041099172832	1
0	12298	2942.908240426299	0
0	12310	2947.097665123052	1
0	12312	2947.283916491092	2
0	12314	2950.150884714217	3
0	12315	2951.261541198936	2
0	12320	2951.293380250518	1
0	12326	2952.968754763208	0
0	12362	2958.117803604754	1
0	12363	2958.495449408985	0
0	12381	2961.511504902993	1
0	12386	2964.817027862319	0
0	12416	2969.785582789972	1
0	12419	2969.865766255516	0
0	12441	2976.016286781954	1
0	12443	2976.057838008919	2
0	12445	2976.673994450671	3
0	12449	2977.653260261292	4
0	12450	2977.845629107845	3
0	12456	2977.910624060789	4
0	12458	2979.536249784954	3
0	12463	2979.832173472783	2
0	12468	2980.425793434122	1
0	12475	2981.42972430589	0
0	12481	2981.492304015383	1
0	12482	2981.506115798596	0
0	12496	2983.215326066744	1
0	12497	2983.466638270876	0
0	12507	2985.173811866437	1
0	12508	2986.146921880003	0
0	12521	2987.421364010159	1
0	12526	2988.506764168133	0
0	12537	2988.729787943639	1
0	12538	2988.895412957141	0
0	12560	2991.739379327506	1
0	12566	2994.483314679724	2
0	12567	2994.526251011602	1
0	12573	2997.2162719555	0
0	12579	2998.005310183137	1
0	12584	2998.520325975827	0
0	12610	3002.006556316292	1
0	12611	3002.089727724154	0
0	12620	3003.119609208258	1
0	12626	3004.734190492417	2
0	12628	3005.591140218033	3
0	12629	3005.851820687737	2
0	12636	3006.357000581263	3
0	12637	3006.588234567913	2
0	12643	3006.863707661495	3
0	12645	3007.535786914872	2
0	12661	3011.69466002437	1
0	12669	3014.864288826717	2
0	12672	3015.048451634559	1
0	12677	3015.073591604869	0
0	12697	3018.111367103425	1
0	12701	3021.177411363533	0
0	12709	3021.997839551759	1
0	12710	3022.358257367731	0
0	12721	3023.930860667023	1
0	12724	3025.525603273125	0
0	12745	3028.545209782911	1
0	12747	3029.750250190669	2
0	12748	3029.800697323328	1
0	12755	3030.265301813756	2
0	12759	3032.181459664442	1
0	12764	3032.71022092302	0
0	12778	3033.018227392675	1
0	12782	3035.203448271917	2
0	12792	3040.447486508001	3
0	12795	3041.360539967379	2
0	12801	3042.249719993892	1
0	12807	3042.68643747428	0
0	12821	3045.962938339923	1
0	12824	3046.606711757603	0
0	12854	3052.965423157657	1
0	12856	3053.170147326127	2
0	12859	3053.473073961407	3
0	12864	3055.515292229669	4
0	12866	3057.126873144135	5
0	12867	3057.880727620039	4
0	12874	3058.86719899369	3
0	12882	3060.043541151772	2
0	12891	3061.312017437505	1
0	12900	3063.467128269692	2
0	12902	3063.630421203051	3
0	12903	3063.65982276663	2
0	12908	3063.733898094789	1
0	12914	3064.065730866835	2
0	12915	3064.950174382613	1
0	12921	3067.281620499702	2
0	12922	3068.066394739216	1
0	12928	3068.572644883067	2
0	12931	3069.998643676679	1
0	12939	3071.439794435247	2
0	12942	3072.535684039334	3
0	12943	3072.805035621179	2
0	12948	3072.978391080664	1
0	12952	3074.483554331943	2
0	12954	3074.828701568924	3
0	12958	3077.320487832384	4
0	12960	3078.005427737639	5
0	12961	3078.127336240653	4
0	12966	3079.960211974969	3
0	12971	3080.56414390563	2
0	12975	3080.655931720411	3
0	12977	3080.661269452052	4
0	12980	3081.955844396363	3
0	12987	3082.427862871409	2
0	12994	3084.289540187907	3
0	12995	3084.640460082654	2
0	13002	3087.801429314314	1
0	13010	3088.629616459435	0
0	13025	3093.07357704993	1
0	13026	3094.309323714642	0
0	13038	3096.771668490146	1
0	13039	3098.471659978536	0
0	13064	3101.286846861777	1
0	13070	3102.681704881883	2
0	13071	3106.848492606577	1
0	13076	3107.202235049388	0
0	13092	3111.691693685736	1
0	13096	3112.032690412446	2
0	13099	3113.576648997569	1
0	13105	3114.272266452718	0
0	13122	3115.981010728721	1
0	13125	3116.592289874382	0
0	13135	3118.589591490753	1
0	13139	3122.64884804895	0
0	13150	3123.391079171253	1
0	13151	3123.648069816231	0
0	13167	3127.442085473676	1
0	13170	3128.851982204503	0
0	13192	3132.798144482826	1
0	13193	3136.857611767832	0
0	13199	3137.001721902175	1
0	13201	3137.798369065509	0
0	13215	3139.781409536859	1
0	13220	3141.744845797059	0
0	13240	3143.790118480636	1
0	13242	3144.632148538361	2
0	13244	3145.000533900566	1
0	13249	3145.125231619729	0
0	13257	3147.474464663065	1
0	13258	3147.684640496165	0
0	13299	3157.407509366266	1
0	13301	3157.796211273926	2
0	13303	3158.447183119985	3
0	13305	3159.049415157436	4
0	13309	3161.201832034023	5
0	13310	3161.586112225585	4
0	13316	3161.727055885429	5
0	13318	3162.313473046602	4
0	13329	3163.438103276415	5
0	13332	3164.530003156657	6
0	13334	3165.096576264913	7
0	13336	3165.121906841367	8
0	13337	3165.550006634968	7
0	13345	3168.306918717063	6
0	13350	3168.328237971229	5
0	13356	3168.776410540025	4
0	13363	3170.005722902171	3
0	13369	3170.959411606296	2
0	13374	3171.107419031829	1
0	13384	3175.939931293773	0
0	13391	3176.092392345546	1
0	13393	3176.716599837306	2
0	13394	3176.954200429653	1
0	13400	3180.842130679398	0
0	13417	3183.171547356519	1
0	13419	3183.399799876137	2
0	13423	3184.439723263537	1
0	13428	3185.345275171145	0
0	13441	3187.242531236977	1
0	13445	3190.113733816592	2
0	13446	3190.199308816774	1
0	13451	3190.513616861888	0
0	13466	3194.148426589813	1
0	13467	3197.018407983606	0
0	13478	3197.23348229989	1
0	13479	3197.692602853462	0
0	13485	3197.71108020919	1
0	13488	3198.211170858311	0
0	13507	3200.515493400735	1
0	13508	3200.599238653083	0
0	13527	3205.086182067714	1
0	13532	3207.640503507402	0
0	13561	3211.964729864898	1
0	13563	3212.151893469635	2
0	13565	3212.172675792102	1
0	13570	3212.898915026034	0
0	13613	3217.496084375257	1
0	13615	3218.179589863155	0
0	13629	3220.971944666914	1
0	13632	3221.295610326498	0
0	13674	3232.607527411104	1
0	13675	3233.535964850741	0
0	13707	3245.617457913657	1
0	13708	3246.477799062372	0
0	13714	3246.571908322047	1
0	13715	3247.272209468254	0
0	13787	3264.033817573539	1
0	13789	3264.430181315684	2
0	13792	3265.880801983802	1
0	13800	3269.984185377237	2
0	13802	3271.864666334204	3
0	13804	3272.122919030678	4
0	13805	3272.790994994556	3
0	13810	3273.148589662243	2
0	13816	3273.475012562526	3
0	13819	3273.709355791227	4
0	13820	3274.869178762082	3
0	13825	3275.488561869842	2
0	13831	3276.165265615835	3
0	13836	3277.963743540408	4
0	13838	3279.556373982928	3
0	13844	3280.265656287033	4
0	13845	3280.451361629629	3
0	13851	3281.731298429133	4
0	13854	3281.847516376234	3
0	13860	3282.453686006913	4
0	13862	3282.958707773382	3
0	13867	3283.031374411716	2
0	13873	3283.310675663977	3
0	13877	3285.943871492546	2
0	13882	3288.367949561459	1
0	13888	3289.033984268371	0
0	13901	3291.606080184268	1
0	13903	3292.429037132473	2
0	13904	3292.824301621695	1
0	13910	3293.191570534195	2
0	13911	3293.275477245297	1
0	13917	3293.670615096732	0
0	13925	3294.279127670362	1
0	13927	3294.672002849501	2
0	13929	3295.689791281762	1
0	13934	3295.993494410907	0
0	13973	3307.114967537932	1
0	13975	3307.41756542551	2
0	13976	3307.786287681752	1
0	13982	3308.355361782641	2
0	13986	3309.739541708492	1
0	13992	3310.927988345255	0
0	14034	3323.225144074657	1
0	14035	3323.474752242809	0
0	14111	3352.128483860847	1
0	14112	3352.814942125163	0
0	14126	3354.604840986183	1
0	14129	3355.340286124901	2
0	14131	3356.937383802001	1
0	14136	3356.943831093842	0
0	14154	3359.127027061776	1
0	14157	3359.882569462726	0
0	14175	3364.164461940984	1
0	14180	3366.484862855608	0
0	14201	3368.977684366968	1
0	14202	3369.205018620833	0
0	14242	3379.487943431712	1
0	14243	3379.497004843627	0
0	14303	3390.359905632105	1
0	14305	3390.591205153379	0
0	14326	3392.267905980417	1
0	14329	3392.955865584767	2
0	14330	3392.960963297227	1
0	14335	3393.158279675917	0
0	14339	3393.905518783863	1
0	14342	3395.342990948354	0
0	14350	3397.042363224645	1
0	14352	3398.844793245779	0
0	14374	3403.04411646537	1
0	14376	3403.523885169264	0
0	14389	3405.185495726499	1
0	14391	3405.861101758666	0
0	14414	3409.091991542182	1
0	14415	3409.171725345946	0
0	14437	3419.582618219657	1
0	14439	3420.529342914965	0
0	14462	3430.967625967654	1
0	14463	3431.627867045715	0
0	14479	3438.721928183756	1
0	14482	3438.86384326564	0
0	14495	3439.974685064997	1
0	14496	3440.597302853562	0
0	14505	3441.897603900126	1
0	14508	3443.022984796864	0
0	14514	3443.582781667356	1
0	14515	3445.947301165735	0
0	14521	3446.223743543119	1
0	14523	3446.374277229568	2
0	14526	3449.529230498302	1
0	14533	3450.640105146949	0
0	14568	3454.616107225973	1
0	14576	3457.986175776576	2
0	14579	3458.220842208047	3
0	14580	3458.328869877905	2
0	14589	3459.748843359502	3
0	14593	3462.169279375643	4
0	14596	3462.52776595442	3
0	14601	3463.137606206439	2
0	14608	3464.25407143973	1
0	14616	3464.632776811878	0
0	14634	3466.318493455562	1
0	14635	3467.824269484428	0
0	14643	3468.612272711497	1
0	14645	3469.031388159102	2
0	14647	3469.041854090394	3
0	14650	3470.055638338244	2
0	14656	3473.7558444144	1
0	14663	3473.930365011572	2
0	14664	3475.615209228308	1
0	14670	3476.466713729712	0
0	14727	3485.198297400043	1
0	14728	3485.261707262607	0
0	14789	3516.338750180783	1
0	14790	3517.533985041673	0
0	14836	3529.005653582009	1
0	14837	3529.838432044811	0
0	14867	3532.840677814854	1
0	14869	3532.850745171667	2
0	14871	3533.043641792522	3
0	14873	3533.509440248207	2
0	14878	3534.03494566575	1
0	14886	3537.805094914635	0
0	14893	3538.311143961806	1
0	14894	3538.413644805742	0
0	14919	3540.675401226995	1
0	14922	3542.188283122698	0
0	14939	3546.553934196841	1
0	14942	3547.070144753639	0
0	14969	3551.411095953797	1
0	14973	3554.018550872798	0
0	14987	3555.966631113326	1
0	14994	3562.24230166093	0
0	15015	3567.959787499152	1
0	15022	3568.967121041702	2
0	15023	3569.949540351021	1
0	15028	3570.095643295547	0
0	15048	3576.25973100609	1
0	15049	3577.59613275194	0
0	15058	3577.83519915694	1
0	15060	3578.975176540874	2
0	15064	3580.410812739271	1
0	15070	3583.005154819376	0
0	15081	3584.147370441647	1
0	15084	3585.750497824089	2
0	15086	3586.688573247863	3
0	15087	3586.692742744692	2
0	15093	3586.841093201414	3
0	15094	3587.055831666366	2
0	15099	3587.071398882778	1
0	15106	3588.235272291047	2
0	15108	3588.24017643403	3
0	15110	3589.141259560385	2
0	15117	3591.645588912713	1
0	15122	3591.753661870809	0
0	15130	3596.204032626768	1
0	15132	3596.753354340332	0
0	15158	3601.346975299757	1
0	15163	3602.832534379186	0
0	15183	3604.338529201159	1
0	15185	3604.735963103556	0
0	15192	3606.301134967209	1
0	15193	3607.068599020107	0
0	15213	3609.335774663473	1
0	15214	3609.41618184307	0
0	15225	3615.101985057553	1
0	15229	3618.051589737508	0
0	15236	3618.256210294306	1
0	15238	3619.448964659471	2
0	15240	3620.613133709304	3
0	15242	3621.554510685756	4
0	15244	3621.80524593933	5
0	15245	3622.561431992447	4
0	15250	3622.662194974404	3
0	15256	3624.193754864045	2
0	15261	3625.66243066723	1
0	15266	3627.605268506766	0
0	15273	3630.131755481004	1
0	15275	3630.587894125513	0
0	15323	3649.61389498126	1
0	15324	3649.689636378189	0
0	15360	3653.835791252743	1
0	15361	3655.594758023943	0
0	15409	3667.947539892462	1
0	15410	3668.909870682986	0
0	15423	3670.216548280386	1
0	15424	3671.678514211828	0
0	15430	3672.05381551391	1
0	15435	3674.354130844128	2
0	15439	3676.730230799311	3
0	15442	3676.774227816144	2
0	15448	3676.904027055988	3
0	15452	3678.95807970885	2
0	15457	3679.082462893789	1
0	15463	3679.347435786927	2
0	15465	3679.81820873829	1
0	15470	3680.052511856512	0
0	15551	3699.005895380734	1
0	15555	3699.49752904335	0
0	15575	3704.353500467271	1
0	15577	3704.539396932103	2
0	15578	3705.273224024341	1
0	15584	3706.339073498743	2
0	15585	3706.926470449624	1
0	15591	3707.044023959994	2
0	15593	3707.793165496047	1
0	15601	3709.957769401318	2
0	15602	3710.225465246759	1
0	15607	3710.786090078176	0
0	15651	3727.391240047848	1
0	15654	3728.320689603412	2
0	15655	3728.980428272632	1
0	15661	3729.09237364445	2
0	15662	3730.129647103814	1
0	15669	3730.792675712331	2
0	15670	3731.541880638265	1
0	15677	3732.170338056419	2
0	15678	3732.448100692278	1
0	15685	3733.62480141733	2
0	15687	3734.503768035448	3
0	15688	3734.633897130965	2
0	15696	3735.946966342786	3
0	15699	3736.741947485387	4
0	15703	3739.085370729247	3
0	15708	3739.869750225935	2
0	15714	3740.301597511013	3
0	15715	3740.352199854004	2
0	15720	3740.479037981099	1
0	15727	3741.200329887081	0
0	15739	3743.124208610128	1
0	15741	3743.936293972602	0
0	15771	3748.766666361035	1
0	15772	3748.937484716566	0
0	15808	3754.837484685143	1
0	15810	3755.600288334936	2
0	15812	3755.712116995157	3
0	15813	3755.782653220946	2
0	15821	3757.809553353231	3
0	15823	3758.575991479877	2
0	15828	3758.933607126349	1
0	15833	3759.144054267156	0
0	15843	3760.872900431163	1
0	15844	3761.326279236114	0
0	15850	3761.412450964969	1
0	15852	3761.69894959064	0
0	15858	3761.874222498342	1
0	15859	3761.875127081375	0
0	15893	3769.560184554412	1
0	15894	3770.861736388713	0
0	15912	3777.752310978312	1
0	15915	3778.631438865363	0
0	16008	3802.005818656545	1
0	16011	3802.889702716688	2
0	16012	3802.934765550714	1
0	16017	3804.631497054198	0
0	16030	3806.254490362586	1
0	16031	3806.316866414946	0
0	16039	3808.351665255302	1
0	16041	3808.729661692262	0
0	16048	3810.737634768284	1
0	16049	3810.76748643893	0
0	16088	3816.367753738557	1
0	16091	3816.922885274004	2
0	16094	3817.169830041065	1
0	16099	3817.47100083629	0
0	16129	3830.028722391216	1
0	16130	3830.109380829693	0
0	16159	3841.196179112461	1
0	16160	3841.74013495694	0
0	16167	3844.396703790498	1
0	16169	3844.987920174942	2
0	16171	3846.653645997436	3
0	16172	3847.385120824336	2
0	16178	3847.791182109592	3
0	16179	3848.172045273173	2
0	16185	3848.281794225274	3
0	16186	3848.395115702425	2
0	16193	3849.05568310888	3
0	16196	3849.516506361547	4
0	16197	3850.082168863585	3
0	16203	3850.195709869671	4
0	16205	3850.582928677173	3
0	16211	3850.80889290206	4
0	16214	3852.298564939748	3
0	16219	3852.351482870337	2
0	16225	3852.737954573876	1
0	16230	3853.891278413881	0
0	16246	3858.378864694838	1
0	16247	3858.745100663113	0
0	16261	3861.319929514425	1
0	16263	3861.848041398725	0
0	16349	3891.489067919845	1
0	16350	3892.546095528903	0
0	16403	3900.536601428102	1
0	16404	3901.177826062347	0
0	16417	3903.846422535703	1
0	16421	3905.762102002915	2
0	16423	3906.379784504643	3
0	16425	3906.626145158167	4
0	16427	3907.506256006816	3
0	16439	3913.438451770517	2
0	16446	3913.748398467686	3
0	16447	3914.229074707272	2
0	16454	3914.465903351481	3
0	16456	3915.158593587125	2
0	16461	3915.933946893158	1
0	16466	3917.000754901924	0
0	16473	3918.059204488842	1
0	16475	3919.36933506278	0
0	16481	3919.670621252273	1
0	16483	3920.095626115619	2
0	16484	3921.106819002081	1
0	16489	3921.575012872256	0
0	16505	3926.320269826138	1
0	16506	3927.092675284288	0
0	16527	3930.730329167333	1
0	16535	3936.255729746091	2
0	16540	3937.375436333673	3
0	16543	3940.795607218103	2
0	16548	3940.906209917186	1
0	16554	3941.490574356029	0
0	16561	3941.850550605199	1
0	16564	3943.229362163045	0
0	16584	3949.420650006151	1
0	16585	3949.487175304762	0
0	16604	3954.373448785429	1
0	16607	3957.125013585349	0
0	16616	3957.291966311265	1
0	16618	3957.560842483046	2
0	16622	3960.1016509372	3
0	16625	3962.117294865807	2
0	16630	3962.292597258934	1
0	16637	3964.809266125955	0
0	16686	3977.205571050586	1
0	16688	3978.928168215981	2
0	16690	3981.556935396777	3
0	16692	3982.271293195825	4
0	16693	3982.705028078062	3
0	16700	3983.294976025023	4
0	16703	3984.522831453146	3
0	16708	3984.806662784768	2
0	16716	3985.290021757283	3
0	16717	3986.108709866684	2
0	16725	3988.985586337941	1
0	16730	3991.638523113128	0
0	16762	3998.278248398946	1
0	16765	3998.999833892875	0
0	16804	4012.085655861047	1
0	16806	4012.86761797543	2
0	16808	4015.379187818577	3
0	16809	4015.621036783404	2
0	16815	4015.817481305857	3
0	16816	4015.987531063327	2
0	16821	4017.446235563507	1
0	16826	4018.340085562079	0
0	16830	4018.392621944719	1
0	16834	4019.733832006665	2
0	16841	4022.56687328079	1
0	16845	4023.087989402244	2
0	16847	4023.756980267089	3
0	16850	4024.257552922546	2
0	16854	4025.172883291923	3
0	16857	4026.020158901905	2
0	16861	4026.328927902276	3
0	16865	4027.322313704305	4
0	16868	4028.604401172807	3
0	16873	4028.63187637094	2
0	16878	4028.924035224817	1
0	16883	4029.52877916911	0
0	16920	4038.358260739302	1
0	16922	4038.476405154175	2
0	16924	4038.649885022873	3
0	16926	4039.477335425589	4
0	16927	4040.845007560661	3
0	16933	4042.145654271171	2
0	16939	4042.181670933842	3
0	16946	4043.434454463804	4
0	16948	4044.263610754272	5
0	16950	4045.822493453056	6
0	16952	4047.252374421288	7
0	16953	4048.219846604096	6
0	16959	4048.787613358472	5
0	16964	4048.789186947624	4
0	16969	4049.412072948711	3
0	16976	4049.654279740951	2
0	16981	4049.868689564038	1
0	16986	4051.803568174787	0
0	16990	4053.793756622657	1
0	16992	4054.484646076308	2
0	16995	4055.338694045212	1
0	17004	4057.825379601097	0
0	17010	4058.105337907348	1
0	17011	4058.134167579101	0
0	17028	4059.789337732465	1
0	17029	4060.132183418856	0
0	17058	4066.605453434803	1
0	17060	4067.992226973598	2
0	17061	4068.079352967126	1
0	17074	4069.324037841887	2
0	17076	4070.404949598494	1
0	17081	4070.463848186644	0
0	17087	4071.137591771948	1
0	17088	4071.83738105837	0
0	17092	4073.432947483464	1
0	17094	4074.214572473096	2
0	17098	4075.347852922084	3
0	17099	4075.606334767541	2
0	17105	4076.545515355075	3
0	17109	4078.44614290908	4
0	17112	4078.989789944842	5
0	17114	4079.177025203696	4
0	17119	4080.587160158638	3
0	17126	4081.778321435321	2
0	17132	4081.818576907521	3
0	17137	4083.884406699799	2
0	17143	4085.412927126701	1
0	17148	4085.6103337635	0
0	17154	4085.796887057946	1
0	17155	4085.899669290881	0
0	17161	4086.426624990312	1
0	17163	4086.873016304947	0
0	17185	4089.441999763062	1
0	17188	4090.29370169987	2
0	17189	4090.801444077317	1
0	17195	4091.07214359519	0
0	17201	4091.395256060253	1
0	17203	4092.267039261489	0
0	17220	4094.370735607714	1
0	17225	4095.990440400906	0
0	17240	4098.322857962226	1
0	17245	4104.697887483755	2
0	17248	4107.274052847994	1
0	17261	4108.735518082389	2
0	17262	4108.8740393387	1
0	17269	4109.469749565894	2
0	17275	4110.169081058155	3
0	17276	4110.568700275069	2
0	17282	4110.995235230249	3
0	17284	4111.322900569319	2
0	17290	4111.742456258441	3
0	17292	4112.076152829918	4
0	17295	4112.834579595775	3
0	17300	4112.871800027635	2
0	17306	4114.05186129622	3
0	17308	4114.442721857489	4
0	17310	4114.450310989854	5
0	17311	4114.626159415836	4
0	17316	4116.715271880061	3
0	17320	4117.027591825529	4
0	17322	4117.144802200064	5
0	17330	4118.106029987664	6
0	17332	4119.610304286063	5
0	17337	4119.766430874272	4
0	17341	4120.431711691115	5
0	17344	4121.090177816055	4
0	17350	4124.492721063896	5
0	17351	4124.829292217967	4
0	17357	4127.125395592954	3
0	17362	4127.146520896509	2
0	17366	4128.599998058132	3
0	17370	4129.298247784767	2
0	17377	4129.767161526465	3
0	17384	4131.961051834975	2
0	17391	4134.043333072471	1
0	17397	4134.509646054641	0
0	17412	4135.693263378642	1
0	17413	4135.732736194294	0
0	17445	4141.13850503299	1
0	17446	4141.501098353091	0
0	17480	4147.412400176288	1
0	17486	4148.692511102928	2
0	17489	4149.164521870183	1
0	17496	4150.879711351038	0
0	17508	4151.631331378885	1
0	17513	4153.617172249895	2
0	17516	4154.563102535631	1
0	17525	4155.236637944152	2
0	17526	4155.309331984784	1
0	17533	4156.675012818791	2
0	17534	4156.982314453914	1
0	17539	4157.300561807131	0
0	17552	4159.104068510392	1
0	17556	4160.184540514358	0
0	17562	4161.97950269391	1
0	17567	4162.556273345758	0
0	17574	4167.322931891976	1
0	17578	4168.159445426995	0
0	17586	4171.198409877394	1
0	17587	4171.21219483573	0
0	17593	4171.632280531051	1
0	17596	4172.216243691714	0
0	17617	4172.828354382016	1
0	17619	4173.167475894219	2
0	17620	4173.709604884421	1
0	17627	4175.660006039499	0
0	17631	4177.842897276718	1
0	17634	4178.519295822162	0
0	17646	4180.263166903465	1
0	17647	4181.899939578195	0
0	17660	4183.246557935345	1
0	17661	4183.791510360766	0
0	17670	4184.508509243326	1
0	17676	4191.013239208868	0
0	17690	4193.637354669234	1
0	17694	4196.40785432962	2
0	17697	4199.327543378219	1
0	17702	4199.333556453782	0
0	17713	4199.993424706662	1
0	17720	4203.128582955809	0
0	17746	4207.315521435625	1
0	17748	4207.623757621831	2
0	17756	4216.299235523123	1
0	17761	4217.143046852145	0
0	17802	4223.327606145448	1
0	17805	4227.479003096881	0
0	17816	4230.386385218836	1
0	17818	4231.624581991368	2
0	17820	4232.955513859713	1
0	17826	4232.970047286866	2
0	17828	4232.98935419175	3
0	17831	4234.595598326278	2
0	17836	4234.672684605308	1
0	17845	4235.882906142855	2
0	17847	4236.172972754556	3
0	17848	4236.281904845617	2
0	17855	4237.762402796193	3
0	17857	4237.817720421857	4
0	17863	4238.274164840289	5
0	17864	4238.736299285226	4
0	17869	4238.748232218404	3
0	17873	4239.202681686937	4
0	17875	4239.273676024548	5
0	17878	4239.576822644297	4
0	17884	4240.118548233492	5
0	17886	4240.295669477176	4
0	17892	4240.329992029913	5
0	17894	4241.003600692681	6
0	17897	4241.650623545266	5
0	17901	4243.797303059025	6
0	17905	4244.129066156134	7
0	17906	4244.466624616565	6
0	17910	4244.862966298866	7
0	17912	4246.011962959554	8
0	17916	4246.863927044352	7
0	17922	4247.692165362845	6
0	17928	4248.758043456642	7
0	17929	4251.762626518912	6
0	17936	4253.635691105074	5
0	17940	4254.027508588501	6
0	17943	4254.380005675065	5
0	17948	4255.213938978328	4
0	17952	4255.737464475604	5
0	17955	4257.272460499525	4
0	17959	4257.293089648969	5
0	17961	4257.471406659014	6
0	17966	4261.09845259922	5
0	17972	4261.65491790596	6
0	17974	4262.426754174372	7
0	17976	4262.441256357403	8
0	17979	4265.526133747413	7
0	17985	4267.01746315627	6
0	17993	4267.566700765336	5
0	17998	4269.300183917576	4
0	18007	4272.010732012831	3
0	18012	4272.529476426076	2
0	18021	4276.771869318336	1
0	18026	4277.320063933391	0
0	18030	4277.886904770268	1
0	18035	4282.406823397078	0
0	18052	4286.813961670566	1
0	18054	4286.89639839872	2
0	18055	4288.42173944122	1
0	18062	4288.516111025789	2
0	18063	4288.670873685792	1
0	18068	4289.602709951396	0
0	18118	4303.116992045498	1
0	18120	4303.235660331519	2
0	18121	4303.854375188584	1
0	18127	4304.140861539957	0
0	18133	4304.188505490789	1
0	18135	4305.135385820608	0
0	18147	4308.573021279749	1
0	18148	4308.86356103124	0
0	18166	4309.839159919606	1
0	18167	4311.197224062669	0
0	18179	4312.965079903471	1
0	18180	4313.546946088054	0
0	18192	4315.228199764021	1
0	18193	4316.382236414473	0
0	18204	4317.71012715056	1
0	18208	4319.925767600231	0
0	18223	4321.60883314108	1
0	18227	4323.116384663509	2
0	18231	4323.663249198082	3
0	18232	4324.143165321528	2
0	18239	4325.810942317659	3
0	18240	4325.947922796605	2
0	18245	4326.320940625964	1
0	18250	4327.090086832851	0
0	18276	4332.275152883326	1
0	18278	4332.458204835578	0
0	18289	4333.80788835633	1
0	18293	4335.775531780645	2
0	18295	4336.939418640311	1
0	18302	4338.031230194692	2
0	18306	4339.054198796047	3
0	18307	4339.299205044323	2
0	18314	4339.953535816231	3
0	18317	4340.275398257386	2
0	18322	4341.158855101331	1
0	18329	4341.438106228089	2
0	18330	4341.862578145557	1
0	18335	4341.937430721827	0
0	18347	4343.823201016343	1
0	18352	4348.998638532655	0
0	18367	4352.005771783174	1
0	18371	4355.443394378943	2
0	18373	4356.187160651993	3
0	18374	4356.358653489977	2
0	18381	4358.145281187963	1
0	18389	4359.204400059419	2
0	18390	4359.654448915703	1
0	18397	4362.139810455177	0
0	18403	4362.565595015722	1
0	18405	4362.771679966165	0
0	18426	4366.657853382166	1
0	18428	4369.414587442407	2
0	18429	4370.409553098945	1
0	18435	4371.234336737204	2
0	18437	4371.765236849756	3
0	18440	4372.984405463727	4
0	18441	4373.751496711338	3
0	18447	4374.861863141662	2
0	18453	4375.392631389524	1
0	18458	4376.444142846638	0
0	18464	4376.603888261009	1
0	18466	4377.32828004964	0
0	18495	4380.220249928603	1
0	18500	4382.367821842067	0
0	18511	4384.292203573427	1
0	18513	4384.64942982779	2
0	18517	4385.781194705216	1
0	18523	4386.51958650205	0
0	18537	4391.782445380398	1
0	18538	4392.145584504276	0
0	18553	4394.552152228484	1
0	18554	4395.504848651401	0
0	18575	4400.624951190352	1
0	18577	4401.817673371301	2
0	18583	4402.51376364288	3
0	18586	4403.362939410811	2
0	18592	4404.409716948951	1
0	18597	4404.622031279322	0
0	18609	4406.310638474334	1
0	18613	4407.760480486438	0
0	18629	4408.583722462732	1
0	18633	4409.465941707837	0
0	18640	4410.260325362118	1
0	18641	4410.629978749541	0
0	18652	4412.382241104699	1
0	18656	4412.732905509522	0
0	18662	4413.53664681523	1
0	18665	4416.762966938999	0
0	18687	4420.103643207578	1
0	18691	4422.307728030981	2
0	18692	4422.788160639568	1
0	18698	4422.956169716237	0
0	18725	4431.392639946455	1
0	18730	4433.131696863154	0
0	18741	4435.804979305618	1
0	18747	4437.180119553745	0
0	18756	4438.802323923072	1
0	18760	4439.751974712247	2
0	18761	4441.230075089017	1
0	18770	4442.374579674033	0
0	18795	4446.134261227215	1
0	18798	4447.478895051026	0
0	18819	4451.104718217628	1
0	18828	4457.959119549615	0
0	18848	4460.899366330858	1
0	18851	4461.281369481981	0
0	18865	4462.845778645215	1
0	18867	4463.179144495961	2
0	18871	4463.539727385625	3
0	18872	4463.663776410137	2
0	18878	4463.815589879695	3
0	18881	4465.305137689497	2
0	18886	4465.657211210513	1
0	18896	4467.666577568434	2
0	18897	4468.323731501097	1
0	18903	4469.223306756214	0
0	18909	4470.241767640425	1
0	18911	4470.404588872228	2
0	18913	4472.595850275583	1
0	18920	4473.833150087114	0
0	18942	4476.418740186307	1
0	18943	4477.331046260198	0
0	18980	4485.576278145901	1
0	18981	4486.963615101798	0
0	19003	4488.827261285164	1
0	19004	4489.18019225069	0
0	19010	4492.349976546948	1
0	19013	4494.778100873774	0
0	19017	4494.826009357628	1
0	19019	4496.403704159401	2
0	19022	4496.940636472961	1
0	19026	4497.014783366956	2
0	19030	4500.831367238294	1
0	19038	4502.356946054674	2
0	19039	4503.329755987397	1
0	19043	4503.399238857175	2
0	19045	4503.780862019406	3
0	19049	4504.937192938229	2
0	19056	4505.48451365859	3
0	19058	4506.988397926237	4
0	19059	4507.109484458803	3
0	19066	4508.077948843541	2
0	19071	4508.640528174869	1
0	19076	4508.729449497978	0
0	19082	4511.787241856682	1
0	19086	4512.844821916807	0
0	19109	4515.445464961203	1
0	19110	4515.749405957731	0
0	19114	4518.02506807654	1
0	19117	4518.814406081804	0
0	19125	4520.675814312955	1
0	19134	4527.432404076394	0
0	19146	4529.150355665408	1
0	19147	4530.202553984727	0
0	19159	4531.255899558472	1
0	19160	4531.712200440985	0
0	19206	4543.808855821415	1
0	19209	4545.548170966798	0
0	19223	4551.410116939896	1
0	19224	4553.387682239488	0
0	19234	4555.510892485031	1
0	19237	4557.652521144576	0
0	19244	4559.627450643868	1
0	19248	4561.916901608504	0
0	19307	4581.91582577718	1
0	19310	4582.22243164521	2
0	19314	4583.328750519433	3
0	19316	4584.374728238959	4
0	19317	4584.652564395842	3
0	19327	4585.856956076276	4
0	19328	4587.200605679208	3
0	19333	4587.262386455383	2
0	19338	4587.377703043664	1
0	19343	4587.579181185107	0
0	19398	4600.830588524423	1
0	19402	4603.804876071407	2
0	19403	4604.198682472565	1
0	19409	4605.737026475796	0
0	19443	4616.403265074969	1
0	19444	4617.280482628295	0
0	19453	4617.871736425601	1
0	19455	4618.741237249825	2
0	19457	4618.899711694495	3
0	19464	4623.991645859797	2
0	19472	4626.777605654489	3
0	19473	4628.209023245569	2
0	19479	4628.435704117466	1
0	19484	4629.105301590254	0
0	19490	4630.81878503024	1
0	19495	4635.644155549206	0
0	19508	4639.046607960075	1
0	19512	4639.363173340274	0
0	19534	4642.513521754777	1
0	19540	4643.77104142595	2
0	19541	4643.931815924829	1
0	19546	4643.934395034245	0
0	19557	4646.178995475706	1
0	19559	4646.663346399742	2
0	19564	4646.94091444733	3
0	19565	4647.201970103985	2
0	19576	4647.976726570234	1
0	19582	4648.241491310429	0
0	19598	4654.924889245868	1
0	19599	4655.039474073826	0
0	19678	4675.938133035396	1
0	19679	4677.352926576288	0
0	19705	4687.420545745059	1
0	19707	4688.400584259123	2
0	19709	4688.768706759156	1
0	19715	4688.857140480014	2
0	19718	4690.010320181804	3
0	19719	4690.558491810527	2
0	19724	4691.686263413517	1
0	19730	4692.721759655582	0
0	19749	4697.842386342133	1
0	19752	4698.359089709576	0
0	19782	4703.574537053004	1
0	19787	4704.155330662905	0
0	19796	4705.450398019021	1
0	19799	4707.050265380835	0
0	19805	4708.100148079812	1
0	19809	4709.581860283937	0
0	19830	4712.786519771267	1
0	19832	4712.871157262251	0
0	19924	4738.414215211791	1
0	19925	4739.197084167846	0
0	19938	4739.891019371958	1
0	19942	4740.259570451604	2
0	19945	4741.071409839395	3
0	19946	4741.222465551122	2
0	19952	4741.740933492693	3
0	19956	4744.101733271651	4
0	19957	4744.883442813006	3
0	19964	4745.28270757117	4
0	19965	4745.953275520273	3
0	19970	4746.116596553941	2
0	19978	4746.82510898045	1
0	19987	4747.736930319479	2
0	19989	4747.807067878037	3
0	19991	4747.977020493835	4
0	19995	4749.04277923474	5
0	19996	4749.095923688816	4
0	20001	4750.300007455656	3
0	20007	4751.675828950737	2
0	20014	4753.219410704115	3
0	20016	4753.250627300087	4
0	20017	4753.606980741306	3
0	20022	4754.773580711646	2
0	20027	4755.563289887511	1
0	20037	4757.322449831648	2
0	20038	4757.584122464612	1
0	20042	4757.960057985466	2
0	20049	4760.94739170334	1
0	20056	4762.947199592157	0
0	20085	4765.947331093808	1
0	20087	4767.16360633897	0
0	20096	4767.52858128052	1
0	20100	4770.224436446377	2
0	20107	4776.386428268132	1
0	20113	4776.503425519096	2
0	20115	4777.355960156909	1
0	20123	4778.890088686283	0
0	20135	4779.667261396596	1
0	20136	4779.911740917518	0
0	20160	4787.581082217195	1
0	20161	4787.805730029281	0
0	20191	4791.118755182917	1
0	20194	4792.868160770935	0
0	20205	4793.595168228851	1
0	20211	4794.988771834996	0
0	20218	4796.181607989974	1
0	20220	4796.791285299367	2
0	20222	4796.912388059446	3
0	20227	4798.798249378819	4
0	20229	4799.368692330851	5
0	20230	4800.564627132193	4
0	20238	4801.246576720172	3
0	20249	4802.932100502515	2
0	20258	4804.744975810461	1
0	20264	4806.290249973426	0
0	20270	4806.526383748429	1
0	20271	4808.913643995994	0
0	20285	4809.451073808575	1
0	20289	4810.487038118535	2
0	20291	4810.529254511529	3
0	20293	4810.849153049797	4
0	20298	4813.000636678718	3
0	20304	4813.473361206667	2
0	20309	4813.623479292181	1
0	20314	4813.949427232327	0
0	20320	4814.841168408137	1
0	20321	4815.019838222886	0
0	20340	4819.691672793322	1
0	20341	4819.908916020387	0
0	20348	4821.488682604805	1
0	20349	4821.549590296585	0
0	20372	4828.381125819909	1
0	20373	4828.835491779616	0
0	20393	4835.466426936935	1
0	20394	4836.05817724865	0
0	20401	4839.024995914831	1
0	20405	4839.305186848565	2
0	20406	4839.381588354073	1
0	20413	4840.975212377045	0
0	20421	4842.753591977836	1
0	20422	4843.814885053017	0
0	20444	4846.718671058262	1
0	20446	4847.875505261933	2
0	20447	4848.404742038023	1
0	20455	4848.813476300487	0
0	20479	4849.795550410819	1
0	20481	4850.007783237316	2
0	20487	4854.32528328434	3
0	20494	4856.074327155587	2
0	20500	4856.60318398594	3
0	20502	4858.131344133792	2
0	20508	4858.74812736606	3
0	20512	4862.868419192074	2
0	20516	4864.135885773788	3
0	20518	4865.105690117665	4
0	20522	4865.732634125061	5
0	20523	4865.834877427373	4
0	20530	4866.632821803695	5
0	20532	4867.4556304603	4
0	20539	4867.848315946513	5
0	20541	4868.305576040572	6
0	20543	4868.769275538479	5
0	20548	4869.053134553302	4
0	20557	4870.888978104506	5
0	20558	4871.460369519558	4
0	20564	4872.02226924906	5
0	20566	4872.213284769707	6
0	20569	4873.683749208312	7
0	20572	4874.17252217278	8
0	20573	4878.132736935718	7
0	20579	4879.294545527068	6
0	20584	4879.976774547607	5
0	20589	4880.00872167487	4
0	20595	4880.693583855494	3
0	20602	4882.362251228113	2
0	20608	4882.547662287625	3
0	20609	4882.730963442679	2
0	20614	4883.23634987555	1
0	20618	4884.135369206061	2
0	20621	4885.569799197541	1
0	20626	4886.173128526244	0
0	20641	4890.983871803804	1
0	20642	4891.105687602329	0
0	20677	4896.802754249528	1
0	20678	4897.333885953063	0
0	20687	4901.464427807197	1
0	20689	4901.50209454154	2
0	20691	4902.452564586172	1
0	20697	4903.243310585911	0
0	20718	4905.709282192499	1
0	20721	4905.920593173155	2
0	20722	4906.974754078676	1
0	20728	4907.435267448986	0
0	20738	4908.778001845272	1
0	20747	4913.166743373207	2
0	20748	4913.537869749354	1
0	20754	4915.115402862897	0
0	20760	4915.272444286752	1
0	20765	4917.877647043827	0
0	20776	4919.15226057907	1
0	20777	4919.442395084207	0
0	20816	4932.532844783907	1
0	20822	4936.666953821957	2
0	20823	4938.246546576528	1
0	20828	4938.294449070731	0
0	20858	4946.510673402496	1
0	20860	4949.220693638237	0
0	20867	4950.900676100684	1
0	20868	4951.929034524073	0
0	20904	4974.946458666783	1
0	20906	4975.073788391624	0
0	20948	4987.374429214199	1
0	20950	4987.631629881219	2
0	20953	4988.755324420216	1
0	20959	4989.344986531852	2
0	20960	4989.58269428157	1
0	20966	4990.613686408155	0
0	21015	5007.14393736378	1
0	21018	5007.46373500324	2
0	21019	5007.552116759679	1
0	21025	5009.953894021763	0
0	21063	5017.007385546709	1
0	21065	5017.275558672735	0
0	21086	5024.956935103193	1
0	21088	5026.064644639749	0
0	21117	5030.307023115333	1
0	21119	5030.560379768283	2
0	21121	5031.69053491549	1
0	21127	5031.774369338217	2
0	21129	5032.069599155788	1
0	21138	5032.815406938824	0
0	21166	5036.370447038844	1
0	21168	5037.135364720701	2
0	21169	5038.062119929883	1
0	21175	5038.627101428523	0
0	21181	5038.805688883186	1
0	21182	5039.240696999969	0
0	21188	5039.438859189398	1
0	21189	5039.779132457148	0
0	21261	5061.186017737397	1
0	21263	5061.245909688463	2
0	21267	5062.565165493568	1
0	21274	5062.608455323256	0
0	21285	5063.203342060661	1
0	21286	5063.22326128279	0
0	21297	5064.322515909366	1
0	21303	5071.275099584777	2
0	21305	5074.23476737787	3
0	21312	5079.973889186151	4
0	21313	5080.101946300504	3
0	21319	5081.055848213053	4
0	21323	5082.905428663061	3
0	21328	5084.493813400537	2
0	21333	5085.18294957796	1
0	21339	5085.651955153217	2
0	21341	5086.326697489323	3
0	21343	5087.008614539416	4
0	21347	5088.53021067082	3
0	21352	5088.805762996175	2
0	21358	5089.952832796197	3
0	21360	5090.095656450966	4
0	21361	5090.356091405362	3
0	21367	5092.892450785604	2
0	21372	5093.015031709027	1
0	21379	5098.706628993396	0
0	21399	5101.828495281932	1
0	21403	5103.05803365457	0
0	21409	5104.292989403503	1
0	21411	5104.333882526264	2
0	21412	5104.376140696799	1
0	21418	5105.069269009532	0
0	21428	5106.123749290859	1
0	21429	5106.708768418787	0
0	21449	5113.205482654833	1
0	21450	5113.608919393036	0
0	21482	5117.766560360399	1
0	21484	5117.868566775841	2
0	21485	5118.08344917683	1
0	21490	5118.940056432448	0
0	21498	5119.577694670897	1
0	21502	5120.456752031421	0
0	21516	5122.28932295338	1
0	21519	5125.344762488507	0
0	21529	5127.834078432607	1
0	21532	5128.61589569191	2
0	21534	5130.11857086555	1
0	21540	5131.843897684174	0
0	21551	5131.917909700216	1
0	21554	5137.502311178342	0
0	21567	5141.194893370588	1
0	21572	5141.623116974633	0
0	21595	5143.698702549934	1
0	21596	5143.873914129667	0
0	21605	5144.517913904894	1
0	21608	5147.48242700362	0
0	21631	5152.452291356657	1
0	21632	5152.621767452589	0
0	21646	5154.573921347504	1
0	21648	5154.77365208329	0
0	21654	5154.77452358704	1
0	21656	5154.858523918816	0
0	21662	5155.334912748306	1
0	21663	5155.336513725367	0
0	21679	5156.992808591295	1
0	21681	5157.021431414077	2
0	21688	5159.637822577649	1
0	21694	5159.824589567546	2
0	21695	5160.127539183926	1
0	21701	5160.774378245185	0
0	21707	5160.903771177115	1
0	21710	5161.841481706741	2
0	21713	5163.032871708014	1
0	21719	5164.624973062716	0
0	21734	5165.886389564871	1
0	21736	5166.930898046161	0
0	21755	5170.357942151728	1
0	21757	5170.468165535844	2
0	21759	5171.209440197028	3
[...]
4	115311	27714.01296004355	49.520521799079
4	115316	27714.929306946093	49.267517797319
4	115324	27717.816920244396	44.640592620956
4	115337	27721.866446335848	36.634348598265
4	115343	27722.822021782952	37.12644918872
4	115348	27723.066997679154	30.355591555089
4	115359	27725.641140540002	32.545769057499
4	115390	27729.580053210759	25.410235866333
4	115395	27729.778070347391	21.337631151183
4	115404	27733.087257636081	14.247844156856
4	115423	27738.058344467298	12.482360082768
4	115429	27740.246577957848	13.893239791292
4	115438	27742.509223408101	14.1063377587
4	115447	27745.808931577217	9.004490694063
4	115546	27783.897802239096	2.189452166793
4	115572	27788.45683929513	5.50611348578
4	115576	27788.601727887894	5.517774235531
4	115583	27790.725896601503	0.285885827436
4	115597	27793.908539320561	2.030476758508
4	115626	27799.919286099044	7.812967814676
4	115633	27801.08575873138	3.760483059105
4	115640	27803.41279113158	4.557073570826
4	115660	27807.663212088423	7.442344661512
4	115719	27816.916319761878	14.624902708442
4	115724	27817.00419500059	11.3729620612
4	115729	27819.375993576696	13.236251032031
4	115748	27824.454725037691	15.61223294343
4	115798	27832.726335397271	22.206861264232
4	115810	27835.874058728315	20.921305616511
4	115817	27837.839924892821	16.36031475177
4	115838	27842.973388223406	16.165430346701
4	115847	27845.384875249769	6.301890563622
4	115908	27857.356749782538	2.344094528581
4	115912	27858.405497819479	1.051720404629
4	115931	27862.832349706032	3.031355125929
4	115940	27865.343099889852	5.201377837807
4	115969	27870.390773546414	4.223582194658
4	116025	27881.610858768815	4.346185854174
4	116031	27882.795544825768	2.340885524589
4	116043	27891.385327301831	4.663027509876
4	116061	27893.62982351075	6.763584529637
4	116078	27898.274485499383	4.297397737828
4	116088	27899.952535515062	5.516262244172
4	116093	27902.354858212763	4.979908042076
4	116118	27913.493761934709	0.250692788944
4	116128	27913.935237435257	0.180036301893
4	116152	27917.171778798571	1.589078567555
4	116159	27918.604679653481	1.915317095359
4	116259	27952.512972642345	9.912890909592
4	116273	27955.815049502407	9.91645080672
4	116277	27955.867789610955	9.919009990098
4	116287	27958.1677194772	1.867403598565
4	116304	27971.998347868783	2.498127799396
4	116313	27972.307746470756	2.635556319435
4	116323	27973.549307221737	1.296343397391
4	116342	27975.950309301317	2.310200348275
4	116351	27977.784616840927	2.268818541323
4	116410	27988.733098792258	5.108281938475
4	116445	28007.332226196805	5.573310076792
4	116451	28009.561579682679	3.259757069799
4	116458	28011.258674287161	1.217274396075
4	116465	28015.279651249136	0.615374252117
4	116481	28017.609799853722	0.550539862534
4	116494	28022.330257889021	1.814080202425
4	116517	28024.499929261297	0.882620672114
4	116536	28029.801360220166	0.78550197082
4	116546	28033.483779994698	4.169815367379
4	116614	28049.175025119745	10.11012314745
4	116666	28057.285663534721	14.531707417553
4	116673	28057.502444892604	12.520856214849
4	116678	28057.591224862826	8.675118150631
4	116683	28058.353229554722	1.980781419559
4	116687	28059.304615480704	1.968690824817
4	116701	28064.595413270184	1.926119399732
4	116712	28068.215211728078	1.312485520493
4	116719	28071.819034472127	1.528963377752
4	116726	28073.197339555522	0.90442093797
4	116738	28077.876125361094	3.377276235377
4	116747	28078.802594113336	2.377892052966
4	116811	28092.037343989215	3.872556073845
4	116834	28096.666541387707	2.845991897721
4	116842	28100.733505601609	0.343479144795
4	116887	28117.323216109014	1.00884028935
4	116891	28118.08781861344	1.44506348618
4	116906	28120.858281995893	0.590307377352
4	116946	28131.046301743665	1.186155953891
4	116981	28138.826048262513	5.202618102746
4	117061	28154.428198844924	4.765538106266
4	117066	28155.615484640181	4.52459662642
4	117081	28159.51238776299	7.670579176174
4	117099	28160.416901126816	6.425049611551
4	117105	28161.201255421838	3.520075397842
4	117113	28162.504514286823	2.887022607747
4	117166	28172.678389140411	4.277575367002
4	117208	28182.000712663356	4.020748078032
4	117342	28219.898287449989	22.292716388801
4	117347	28220.374182184115	18.65603865815
4	117354	28221.641702436605	14.709962062402
4	117368	28226.531308261701	17.160488856677
4	117389	28229.434865719175	19.717241151617
4	117444	28240.583997410634	29.950323678679
4	117449	28240.612934894476	29.066140827684
4	117458	28242.247725016107	23.84641558396
4	117476	28245.1741039086	15.422111765069
4	117483	28246.189532710832	15.089215589029
4	117492	28248.241153412093	4.605804551432
4	117515	28251.625029413429	4.401790213377
4	117528	28254.877529895789	3.873227194953
4	117535	28257.388872409315	5.6043505812
4	117558	28267.469611793175	10.048450529315
4	117576	28268.714659830553	10.381000547688
4	117581	28269.320219888018	10.983825297278
4	117588	28270.184902430053	2.354172582374
4	117608	28274.202204268601	2.880644970526
4	117641	28283.12059658401	2.388089532747
4	117657	28286.04020009147	1.190996730346
4	117698	28299.930194473343	3.797930502577
4	117713	28301.270983689942	3.893940908623
4	117718	28301.327832029574	1.147961785475
4	117722	28301.920403847267	1.045559849493
4	117741	28314.91265284121	3.217113818114
4	117766	28318.077558012911	6.258271627559
4	117830	28333.501105708156	16.393481457269
4	117849	28337.179633838826	17.581798381595
4	117926	28349.87719013467	18.163130821285
4	117933	28350.817223595549	12.547414323547
4	117938	28350.83369342598	6.308064985838
4	117950	28354.062864323697	6.499201998251
4	117961	28359.660965800242	11.238968308783
4	117970	28363.961593914884	12.728941049765
4	117984	28364.814903649802	12.01222456667
4	117994	28371.789525882608	2.443060171715
4	118002	28373.854120100729	0.378497294842
4	118025	28378.224364676406	4.122267846711
4	118074	28384.581972729944	10.103624755083
4	118098	28390.290295843634	3.008250247954
4	118117	28396.189667823487	7.183526512724
4	118125	28397.227576693986	7.087285587441
4	118187	28414.912045759827	2.108825714925
4	118206	28420.709031934	0.982793733213
4	118213	28422.658423042482	2.827799167676
4	118217	28422.795045597904	2.030129937839
4	118237	28427.609266780523	4.429705718124
4	118268	28432.928397914987	5.724129382182
4	118278	28436.542160805755	8.904669696851
4	118287	28439.093794764528	1.480176609132
4	118294	28444.268715900392	0.415418159184
4	118348	28462.935484043767	6.17048331806
4	118364	28466.594085562135	0.063913444667
4	118418	28474.165158899304	1.145565666963
4	118422	28474.255415251695	1.221425577706
4	118437	28483.842735970038	1.580694599726
4	118448	28489.114722458086	3.821064876589
4	118460	28497.762712878767	1.316820173165
4	118485	28504.518005202035	0.32123497011
4	118515	28511.287021121767	3.031084947033
4	118525	28512.729333262591	3.06367087149
4	118536	28513.663916094058	0.724809400334
4	118553	28518.442017288742	4.343870373399
4	118572	28524.654223103446	7.790254779616
4	118582	28525.781504949769	6.58184696731
4	118591	28527.841364836136	8.148288211097
4	118626	28535.096317310604	13.316222146537
4	118635	28536.257931171529	9.274784424003
4	118667	28541.671542202018	11.263220064658
4	118682	28548.098266866005	15.871550644405
4	118705	28553.809889732361	14.320082497761
4	118714	28556.563201972254	16.787316863547
4	118732	28560.98397727654	20.032071505225
4	118737	28562.174515791553	20.195739917344
4	118742	28563.317744250368	19.344087712966
4	118747	28566.747629408484	12.120165505922
4	118754	28568.724940523275	11.089928362201
4	118764	28569.666146603664	11.950561751577
4	118770	28571.311866008563	12.026657439982
4	118785	28579.780363757022	0.568699925199
4	118823	28587.281515187287	3.756300842724
4	118847	28589.904960132553	0.116063398202
4	118879	28602.223886194491	1.974104812028
4	118908	28606.81729058141	0.391940221034
4	118930	28613.365230597423	0.859057012265
4	118937	28614.344386817721	0.53528884754
4	118944	28618.689274188902	1.560692665988
4	118954	28624.32038257654	2.964977756345
4	118968	28626.608786788995	0.912039963783
4	118975	28628.32409919446	1.157974505594
4	118982	28631.459019850282	1.208281003661
4	118992	28633.946838933441	2.094276669817
4	118999	28636.037427549235	3.456428009376
4	119010	28638.986848288033	4.632847594465
4	119030	28642.097017105685	4.326571708304
4	119052	28648.062191595149	7.594189187764
4	119061	28651.384027140219	8.985686789659
4	119071	28653.337758632812	2.447391275432
4	119116	28667.564490241714	2.710639930591
4	119196	28686.576278631781	4.348953854409
4	119231	28691.306606701833	1.167372785638
4	119256	28699.325962737015	1.326105769833
4	119286	28706.484055401048	4.264200050594
4	119314	28712.955488676698	3.210491181938
4	119325	28714.021530313754	0.292171548469
4	119382	28726.94772078634	0.93090606241
4	119394	28732.03313599019	2.455721130528
4	119424	28742.252281551155	1.458821079971
4	119431	28743.347010694128	0.203104603733
4	119508	28762.918152469287	2.143027207003
4	119563	28785.041282927527	1.075618512429
4	119575	28789.371074646978	1.675576630522
4	119585	28791.214837162199	1.608223940103
4	119589	28791.225453404839	0.836525777618
4	119617	28796.854493284529	3.096178943662
4	119634	28798.918908488389	3.010430645641
4	119646	28803.36167461817	5.55269741384
4	119650	28803.530082813901	5.532029285532
4	119668	28809.651908014899	3.069699714765
4	119687	28815.374480529107	5.502859435841
4	119702	28818.412114881423	5.8909279615
4	119725	28824.517906546243	10.263166448668
4	119734	28825.295320464822	5.607424349373
4	119751	28828.581456123193	5.972068119754
4	119777	28831.271332063839	6.912542036117
4	119782	28831.381106825391	6.554426999715
4	119789	28832.013876870526	7.139968243132
4	119794	28833.257088000218	7.697549822115
4	119807	28839.733176563334	11.816890404412
4	119822	28840.790863373865	11.511346261696
4	119829	28844.340995315437	14.593390025401
4	119835	28846.198935801154	14.761086749299
4	119847	28852.273341098559	15.93266852865
4	119857	28854.44330792837	13.544883763094
4	119871	28859.27267756275	10.03849515946
4	119905	28866.10335918648	15.120684109108
4	119910	28866.749375903359	7.918615168986
4	119916	28868.201723454094	5.033542831083
4	119963	28882.818039992114	8.828529795242
4	119977	28885.145278649236	5.21254148214
4	120014	28892.666042808875	0.20633724438
4	120026	28897.121186711277	3.467577901293
4	120038	28897.662574057698	0.601992349213
4	120067	28906.170302423318	1.769495375449
4	120100	28912.566332280217	7.281433510336
4	120105	28913.156603596984	5.623721293981
4	120114	28916.551177267341	8.213409247828
4	120139	28922.878013106471	14.136997888358
4	120213	28938.134997720292	23.778213517402
4	120222	28940.721482655821	22.458751432529
4	120241	28943.445657710422	21.020131299141
4	120262	28948.072494988018	12.50769751966
4	120268	28950.677044902486	11.528724897823
4	120274	28952.350341095922	9.984950242322
4	120283	28953.608740452031	10.416511648477
4	120298	28955.587916036724	11.666936228407
4	120318	28961.263529946352	16.765761512365
4	120325	28962.183471697592	7.511047796517
4	120373	28967.806726088477	1.828690241489
4	120377	28969.409960608317	2.55087193585
4	120395	28975.688276731162	1.15965806579
4	120407	28977.977033797372	1.207163154076
4	120421	28979.941007958429	2.347164026092
4	120428	28982.072625609214	3.87097911265
4	120441	28987.140453294094	5.708337079817
4	120460	28993.212301461968	9.996105563239
4	120470	28993.935979384843	9.728222286237
4	120504	28999.834355517172	4.257860706067
4	120508	29000.562413249502	2.704183608917
4	120517	29003.734048992875	0.261061147343
4	120525	29004.785635252499	0.171796442798
4	120562	29014.158202334229	1.310948146872
4	120582	29015.779590996356	1.176158636167
4	120592	29022.017467718604	6.299298031515
4	120624	29035.776934928081	0.653177520047
4	120650	29042.387538826187	2.082781444478
4	120677	29047.573664363528	6.995642082675
4	120685	29049.626381563785	6.68983066958
4	120696	29049.966431572248	6.345721764322
4	120721	29054.236933039733	9.628548965791
4	120728	29054.8135296334	8.885833476084
4	120745	29058.440655421277	10.814200617798
4	120771	29061.530508858678	10.950005991378
4	120775	29062.188091268472	7.062375028591
4	120793	29066.853711101987	3.011294835676
4	120809	29069.790277496694	1.223659788202
4	120818	29070.717233449324	1.132923776343
4	120843	29080.323315508599	6.496404472793
4	120865	29084.479677479523	6.168312161536
4	120869	29084.688148824119	1.097791455279
4	120922	29099.108731475603	4.742644492221
4	120954	29111.138585797064	12.928980272394
4	120959	29112.019080329263	8.735012087549
4	120970	29115.066826881791	2.14582572369
4	120981	29117.351843179818	1.274175404624
4	121009	29125.212354648734	2.303495046741
4	121030	29128.482678445805	0.26013671632
4	121040	29136.147431720206	2.658568830878
4	121108	29155.279991815937	0.31213419791
4	121121	29160.304417270917	3.141969375592
4	121141	29164.059220564758	3.592654985334
4	121161	29172.424257276099	9.740286284965
4	121186	29175.353883983237	8.309955623372
4	121309	29198.265464700711	29.719376963921
4	121320	29199.35591630157	30.475042370993
4	121371	29213.271440482586	39.952859022504
4	121379	29214.398212764202	38.023951419411
4	121389	29215.287875868998	38.695130100835
4	121394	29215.347625537046	28.025543147628
4	121401	29216.714781230678	21.689020136758
4	121418	29219.802443133773	20.101795660775
4	121430	29221.710351973954	20.319311052001
4	121441	29224.549097602985	20.96408538205
4	121629	29273.518886406384	68.769951966548
4	121641	29276.691122126668	67.110158233315
4	121654	29282.139404389649	71.534663381485
4	121685	29284.801263568058	50.730456510313
4	121694	29287.167925552438	47.734210502567
4	121699	29287.678656565048	44.698342774542
4	121708	29292.783278351666	47.152033796617
4	121715	29294.716035540389	40.411586273334
4	121722	29296.211569544333	39.855919550997
4	121728	29296.760811407228	28.712716842535
4	121733	29299.26519848316	28.551047342514
4	121738	29300.975539478307	26.823246397536
4	121746	29302.693056801524	20.422911441403
4	121770	29307.492588725894	21.061716770686
4	121782	29309.01602624452	22.451752431167
4	121788	29309.976770839134	21.081297888629
4	121792	29310.597131384138	16.059578990313
4	121815	29329.132788836389	0.425502072157
4	121824	29334.680330575237	0.864319294844
4	121831	29337.06796717677	0.399500100173
4	121846	29339.971116310764	1.305082634843
4	121892	29352.169220775337	7.372111227028
4	121907	29353.032864345828	4.80691123046
4	121921	29355.601220831085	1.355143243722
4	121958	29361.26030225623	2.964469687251
4	121974	29365.204414834614	4.61997509039
4	122058	29386.650133063606	0.468688528345
4	122082	29391.160800376347	1.461062733534
4	122089	29393.866001052628	1.734309559131
4	122179	29411.390885195165	15.795126371315
4	122195	29415.958772866565	18.940603340385
4	122210	29421.695776811535	24.202727449236
4	122246	29427.319711996482	27.745685272698
4	122295	29437.953040894706	36.844723193776
4	122319	29443.295281093515	37.545784427219
4	122389	29457.51438453886	50.84095562695
4	122394	29457.570633755599	50.660218132677
4	122400	29458.277568090082	42.93509100569
4	122405	29458.313560810145	24.445022394217
4	122413	29460.876128470163	22.561406773465
4	122441	29466.115623380934	20.777480180012
4	122463	29471.518896630939	25.678430393185
4	122470	29473.062562617633	22.365253468514
4	122475	29474.671604390493	11.997696856712
4	122486	29477.394182124871	14.096310621446
4	122537	29482.594245731293	13.271752183933
4	122600	29498.541742290182	25.957841237269
4	122625	29504.865161401734	27.823484257626
4	122639	29505.647993578244	27.901328306798
4	122654	29508.022168383037	25.418181701271
4	122659	29508.204461319125	20.554911607305
4	122667	29510.12302123062	17.321704669284
4	122681	29512.281528354871	18.517308667099
4	122688	29512.836163738789	16.93999039021
4	122714	29520.219263771049	16.079735703464
4	122792	29531.424972839743	24.811688282337
4	122799	29532.741821901956	25.230476258963
4	122805	29534.575874994213	23.914087030903
4	122810	29535.255486215991	24.045053692111
4	122816	29536.201472766385	23.423850008807
4	122824	29539.01236293993	24.808833741383
4	122843	29540.735698563693	25.907432041705
4	122850	29541.536928481573	25.486810824866
4	122855	29541.59103543619	20.673995918668
4	122865	29548.618396001865	24.653083169022
4	122885	29555.182826679667	27.715374883855
4	122906	29559.854394546901	30.394251788897
4	122943	29569.758630127486	21.215971424366
4	122950	29571.134007453198	20.428856390924
4	122955	29571.254568819087	20.243582731992
4	122965	29574.707953628431	23.245532595138
4	122980	29577.148258180966	19.834330867856
4	122985	29577.697592344629	13.144018006202
4	122996	29583.74572636109	7.094597085283
4	123007	29584.409964593394	5.695347380179
4	123011	29584.983305155645	4.246697278782
4	123031	29587.123838093979	1.911462304091
4	123049	29594.203644672174	3.24904727405
4	123057	29595.344617468938	0.696393276076
4	123080	29608.309885933616	0.869884987783
4	123092	29611.908196284586	1.899201096527
4	123098	29612.784467107116	2.506856734381
4	123106	29615.023291911573	3.57773878787
4	123110	29616.162647440802	2.601155098333
4	123153	29634.338115021477	3.8507581246
4	123221	29647.331341333435	3.902119439207
4	123232	29650.153680090377	4.957126814265
4	123254	29654.504407196012	7.299535887838
4	123264	29658.184366714848	10.174115160959
4	123272	29661.419936648241	0.90305209898
4	123279	29664.275736024314	0.553393126006
4	123286	29668.393711920709	0.078329535592
4	123313	29675.408306127001	1.378897866671
4	123317	29675.956003663258	1.745707809756
4	123339	29682.000242262168	1.779037904176
4	123357	29688.226147656447	4.793003576489
4	123379	29693.920592266659	8.806964852648
4	123389	29696.617591621445	7.331050105507
4	123430	29708.175135383334	0.2896166688
4	123461	29719.190276841094	2.712512998346
4	123483	29722.683913753916	4.261658616871
4	123490	29724.139866462022	4.755340525923
4	123494	29724.231694371472	3.270472679161
4	123502	29726.426300852225	0.313331262712
4	123527	29734.784842693566	0.920611038763
4	123535	29739.917987324793	0.472700978122
4	123542	29742.312654306094	1.344478289929
4	123567	29753.221301591721	1.410360134937
4	123591	29756.839828654017	1.848819177081
4	123597	29757.733793104006	2.044892760808
4	123628	29770.221001378234	2.250085663928
4	123642	29771.443001040869	1.763570002992
4	123663	29781.050547926472	0.523915182867
4	123679	29786.810401869724	0.481801959016
4	123689	29790.154701611178	1.792494395896
4	123715	29792.617498116183	1.152190393811
4	123768	29809.329525766932	11.658941923202
4	123780	29810.254392891841	0.44854185727
4	123825	29819.603855176169	1.383708019264
4	123843	29825.643716836364	0.080222232762
4	123858	29833.420588781616	4.887337827883
4	123865	29838.918456457644	2.856243787999
4	123880	29842.889486950777	2.031768340817
4	123913	29851.365869200565	0.226198815201
4	123920	29855.347133707475	0.264230447102
4	123958	29868.801382390553	3.313306967748
4	123975	29873.228871961506	7.714943611869
4	123993	29882.357337973017	4.729252072581
4	124002	29884.496447681393	3.0539436317
4	124021	29886.94896395266	1.675201713265
4	124029	29888.522975169266	2.915606214965
4	124036	29888.863031659568	0.782859635238
4	124069	29893.884255616995	3.433344375168
4	124073	29896.155896069247	3.810992225287
4	124103	29903.119428952733	5.625678752643
4	124185	29930.638859389847	1.507517868881
4	124238	29938.718858305193	6.393935218873
4	124244	29940.810955760527	6.767845844169
4	124248	29940.993865732613	6.486268710802
4	124285	29946.942038908856	0.308732386848
4	124292	29949.373376910464	2.546364084656
4	124296	29949.574476226313	0.648589501837
4	124314	29952.767365290879	1.77613006123
4	124325	29958.012740147706	5.363698982951
4	124330	29958.993289142632	3.532164467303
4	124339	29961.851550716586	5.550863289904
4	124354	29967.735734704157	10.740018547345
4	124364	29969.267847589788	8.809148229822
4	124371	29969.877436661327	6.96434318956
4	124445	29983.908353467714	10.541595770709
4	124450	29985.66047244188	6.959116888679
4	124455	29988.042707626754	5.604634086958
4	124464	29992.472716739723	9.892814369536
4	124487	29996.926660061652	3.54532927998

