version 2
run Second-n4-9-20191016-17:04:20-11052
attr configname Second-n4
attr datetime 20191016-17:04:20
attr experiment Second-n4
attr inifile omnetpp.ini
attr iterationvars ""
attr iterationvarsf ""
attr measurement ""
attr network org.omnetpp.queueing.Pizza
attr processid 11052
attr repetition 9
attr replication ""
attr resultdir results
attr runnumber 9
attr seedset 9
param **.PS.maxInventoriedPS 4
param **.U1.interArrivalTime exponential(3s)
param **.U2.interArrivalTime exponential(5s)
param **.PS.serviceTimeForInventoryU1 exponential(1.0s)
param **.PS.serviceTimeForInventoryU2 exponential(1.2s)
param **.PS.serviceTimeDirectU1 exponential(1.4s)
param **.PS.serviceTimeDirectU2 exponential(1.4s)
param **.PS.probabilityProducing 0.7
param **.CS.serviceTimeU1 exponential(1.1s)
param **.CS.serviceTimeU2 exponential(1.4s)

vector 0 Pizza.EntryQueueU1 queueLength:vector ETV
attr interpolationmode sample-hold
attr title "queue length, vector"
vector 1 Pizza.CS queueLength:vector ETV
attr interpolationmode sample-hold
attr title "queue length, vector"
vector 2 Pizza.EntryQueueU2 queueLength:vector ETV
attr interpolationmode sample-hold
attr title "queue length, vector"
vector 3 Pizza.sink lifeTime:vector ETV
attr interpolationmode none
attr title "lifetime of arrived jobs, vector"
attr unit s
vector 4 Pizza.sink lifeTimeU1:vector ETV
attr interpolationmode none
attr title "lifetime of arrived jobs, vector"
attr unit s
vector 5 Pizza.sink lifeTimeU2:vector ETV
attr interpolationmode none
attr title "lifetime of arrived jobs, vector"
attr unit s
0	0	0	0
0	20	2.569630456354	1
0	21	2.588265067867	0
0	32	3.11699001608	1
0	33	3.158751378979	0
0	89	25.721771339875	1
0	90	26.508585636568	0
0	118	32.178233057485	1
0	124	38.308332496996	2
0	125	38.573380904643	1
0	130	38.949097332491	0
0	139	41.799456687737	1
0	141	44.924310426876	2
0	143	45.05570114757	3
0	146	45.521353357278	2
0	151	45.564621281617	1
0	157	45.86593482859	0
0	208	55.282437051884	1
0	209	56.305802590822	0
0	231	61.147371237993	1
0	233	61.911438798297	2
0	235	64.352473022851	3
0	238	64.599421877043	2
0	244	64.800651116003	3
0	245	65.344269222058	2
0	250	65.471604575365	1
0	255	65.516084124388	0
0	264	67.320366978586	1
0	270	69.343941240367	2
0	272	69.605663052462	3
0	273	69.66462832123	2
0	280	70.918655079039	3
0	282	71.225491402573	2
0	290	72.02705254368	1
0	295	72.895857533205	0
0	309	77.053255605475	1
0	310	77.648515111206	0
0	314	78.410896698414	1
0	317	79.464980001261	0
0	356	87.625708113	1
0	358	88.437578048558	0
0	387	102.357442087462	1
0	388	103.627433444186	0
0	402	105.465360346508	1
0	404	106.74804525085	0
0	419	107.768250040955	1
0	421	109.54195466726	0
0	427	109.627998412023	1
0	430	110.321212310681	0
0	452	118.915694473633	1
0	454	120.232611428875	2
0	456	120.310316443656	3
0	457	120.836276294935	2
0	462	121.549053306531	1
0	467	121.812234800848	0
0	509	134.727748483051	1
0	510	135.151085023085	0
0	588	159.617558244727	1
0	591	160.142946704284	0
0	605	162.918617151774	1
0	609	163.165832035308	2
0	610	163.372708838403	1
0	617	163.826919852315	0
0	623	164.351970716583	1
0	624	164.71246683665	0
0	660	168.413606038673	1
0	661	168.920595259166	0
0	703	181.161939639658	1
0	704	182.437628432121	0
0	785	207.935092801312	1
0	787	208.018474716242	2
0	789	208.48392200494	3
0	790	209.021465159014	2
0	795	209.120807592491	1
0	801	209.222538084183	2
0	805	213.3528249784	1
0	810	213.380700034532	0
0	843	216.778216072033	1
0	845	216.873661387456	2
0	848	219.320055386795	1
0	855	219.931049640324	2
0	857	221.379543529481	1
0	864	222.401788391196	2
0	866	224.146774849758	1
0	871	224.327819997291	0
0	922	241.84945794876	1
0	923	242.152259766904	0
0	942	245.535334471775	1
0	943	245.645559330889	0
0	959	248.399312915622	1
0	963	249.530189717863	0
0	999	258.805348526116	1
0	1003	260.424907958811	0
0	1030	267.159886977581	1
0	1033	267.731764112992	0
0	1067	279.97363538456	1
0	1073	283.369423915376	2
0	1075	284.218098341222	3
0	1077	284.704104363763	4
0	1078	284.835234039334	3
0	1083	285.02246917374	2
0	1089	285.320921956152	1
0	1094	285.552422960491	0
0	1108	288.319648889663	1
0	1111	289.316855935567	2
0	1113	289.373608908707	3
0	1115	289.516532019767	4
0	1116	289.68658059688	3
0	1126	291.87020646004	2
0	1131	292.102912610699	1
0	1137	292.140634912088	2
0	1138	292.442042776641	1
0	1146	294.704563649845	0
0	1176	296.879479596265	1
0	1178	297.787732772687	2
0	1181	298.271245887737	1
0	1186	299.69906613587	0
0	1237	324.582251301449	1
0	1239	324.970483906559	2
0	1242	326.795282874258	1
0	1247	327.092077670694	0
0	1270	337.975157476127	1
0	1273	339.279788238878	0
0	1303	343.768327910848	1
0	1307	345.370837835053	2
0	1308	345.678257471532	1
0	1314	346.600433213786	0
0	1321	349.693826767694	1
0	1322	349.858770434124	0
0	1350	356.531805413835	1
0	1351	356.649331422924	0
0	1358	357.196025472909	1
0	1360	358.513377513023	0
0	1376	361.908289885988	1
0	1381	362.581040150028	0
0	1394	363.720498334519	1
0	1395	364.100673873218	0
0	1401	364.401834954311	1
0	1403	364.882657764167	2
0	1404	365.521345765961	1
0	1409	365.654722208074	0
0	1432	368.304013519235	1
0	1434	369.3750218324	0
0	1465	378.231285116093	1
0	1466	378.274306405548	0
0	1472	378.279424913748	1
0	1475	378.627322309055	0
0	1489	379.920481336956	1
0	1492	381.136308516222	0
0	1498	381.404518206704	1
0	1499	381.642961622187	0
0	1515	384.699833391396	1
0	1518	385.317816942649	2
0	1524	387.181436015635	1
0	1529	387.369171976602	0
0	1535	387.553893039355	1
0	1536	388.34734733802	0
0	1552	391.23068607492	1
0	1554	391.3642665699	2
0	1556	391.998220961756	3
0	1559	394.028604791318	2
0	1565	395.01135349434	1
0	1574	396.513890709591	2
0	1576	396.731272656374	3
0	1577	397.62981785575	2
0	1583	398.204593168913	1
0	1588	398.398515716566	0
0	1614	402.573493387811	1
0	1615	403.615744991986	0
0	1648	411.489529053803	1
0	1653	413.588988667028	0
0	1672	416.614045907619	1
0	1676	420.40835155195	2
0	1678	420.830182045031	3
0	1679	420.830214067612	2
0	1687	421.43363369687	3
0	1690	424.203615252819	2
0	1695	424.333152804041	1
0	1701	424.758397886868	0
0	1733	434.053722872032	1
0	1738	436.219465348951	0
0	1747	437.496601135846	1
0	1749	437.781017861774	2
0	1756	439.305228732592	1
0	1762	439.594978644298	0
0	1768	439.864137662638	1
0	1771	439.980509615028	0
0	1801	442.320103243693	1
0	1805	443.643075135536	0
0	1859	455.534784877395	1
0	1861	455.571011708186	2
0	1866	456.570287005817	1
0	1873	458.624390084296	0
0	1879	458.862552515568	1
0	1881	459.573733907335	0
0	1887	460.003365791829	1
0	1895	462.47497397405	0
0	1924	471.556789349328	1
0	1928	472.13264346579	2
0	1929	472.882038081037	1
0	1934	473.567480376157	0
0	1940	473.680403938575	1
0	1942	473.932905595121	2
0	1944	474.207278849333	3
0	1945	474.868027087149	2
0	1956	476.65392292055	1
0	1962	477.695165028834	0
0	1968	477.809903069669	1
0	1970	478.166538855956	0
0	1989	480.824901820474	1
0	1992	481.453641882549	0
0	1998	481.774369818824	1
0	1999	481.841703096909	0
0	2006	482.186301873625	1
0	2008	482.389901792747	0
0	2015	483.27326209897	1
0	2019	485.205857095677	2
0	2021	485.356763434097	3
0	2022	485.622528167828	2
0	2028	486.166408948233	1
0	2035	486.246963494863	2
0	2036	486.802084286775	1
0	2042	487.228829932341	0
0	2054	488.460849622867	1
0	2055	488.843328274345	0
0	2077	494.264986298589	1
0	2082	495.786219963083	0
0	2094	497.860666211872	1
0	2095	498.602060127249	0
0	2214	535.041927997247	1
0	2216	535.048232436017	2
0	2220	537.789823527992	3
0	2224	538.250733244688	4
0	2227	540.468755496466	3
0	2232	540.701906177438	2
0	2239	541.265872796396	3
0	2240	541.651909069602	2
0	2247	542.001926894362	3
0	2252	543.314585177634	4
0	2253	544.948215409924	3
0	2260	546.1484587662	4
0	2261	546.318754502313	3
0	2266	546.342360028736	2
0	2273	547.120028976967	3
0	2275	547.223422198182	4
0	2276	547.639086712625	3
0	2284	548.220348370837	4
0	2286	548.438983446574	5
0	2287	548.594527686617	4
0	2292	548.71896064904	3
0	2300	549.148683143204	4
0	2304	550.401578602927	5
0	2305	551.777477023822	4
0	2311	552.748587101782	3
0	2317	552.798590544477	4
0	2318	552.966003522475	3
0	2323	553.240308028812	2
0	2330	554.086343525194	3
0	2333	554.862849423205	2
0	2339	556.549354755625	1
0	2344	556.993054749809	0
0	2348	557.528259466597	1
0	2351	557.601612022598	0
0	2357	558.593819852216	1
0	2363	560.761924831302	2
0	2365	561.260822993412	1
0	2371	561.322477807573	2
0	2374	563.014583743044	1
0	2382	565.237079969446	0
0	2399	567.495378065658	1
0	2402	568.897440473056	0
0	2431	575.750532166369	1
0	2433	576.211541610683	2
0	2435	578.2078509383	3
0	2443	582.348981993513	4
0	2444	583.75286189482	3
0	2450	583.98649930182	4
0	2454	585.468023977994	5
0	2455	586.191172347077	4
0	2463	588.711894379357	3
0	2468	588.923631317931	2
0	2474	589.472306590114	1
0	2480	589.683261201862	2
0	2481	590.048973419885	1
0	2486	590.154837825494	0
0	2499	591.581082549531	1
0	2505	593.368417377202	2
0	2506	593.452318191475	1
0	2511	593.608447378078	0
0	2522	594.107925872823	1
0	2526	595.742178505054	0
0	2546	598.602005465278	1
0	2549	599.789675937656	0
0	2583	606.039183891036	1
0	2584	606.749418525554	0
0	2600	609.896716545525	1
0	2601	610.751635191961	0
0	2607	610.967897487675	1
0	2608	611.36691106665	0
0	2622	612.159627044389	1
0	2623	612.672192962267	0
0	2635	615.343906600481	1
0	2637	616.35003902095	0
0	2649	617.879158770024	1
0	2650	619.251436231926	0
0	2665	624.777735793125	1
0	2668	627.242319053217	0
0	2677	632.469383269408	1
0	2684	633.073795352507	2
0	2688	636.592857432185	3
0	2690	637.586977788766	4
0	2691	638.529927378237	3
0	2701	639.738783754895	4
0	2702	640.049820698757	3
0	2710	640.572629699614	4
0	2711	641.065122853747	3
0	2717	641.162117861394	4
0	2718	642.298355686323	3
0	2723	643.097827768269	2
0	2731	644.789680522968	1
0	2736	644.949921994515	0
0	2750	647.328158082161	1
0	2751	647.523500169896	0
0	2814	662.253845965874	1
0	2816	664.209019678866	2
0	2817	664.383458960302	1
0	2823	665.298423348155	0
0	2862	673.47859530403	1
0	2866	675.5548951226	2
0	2868	676.403512663164	3
0	2869	677.020725551951	2
0	2874	677.637710510822	1
0	2880	679.778908616496	0
0	2886	679.892428949029	1
0	2889	680.356820303002	0
0	2909	682.467250920644	1
0	2915	683.798286350258	2
0	2916	683.866247843363	1
0	2925	685.912669252241	0
0	2931	686.55033567569	1
0	2932	686.732824876799	0
0	3008	705.531740990863	1
0	3012	706.332947988021	2
0	3013	707.165093611174	1
0	3020	708.886788651756	0
0	3048	712.623499078148	1
0	3049	713.280947720037	0
0	3078	721.291213985104	1
0	3081	722.307293917069	0
0	3118	730.343770339644	1
0	3119	730.417971682342	0
0	3196	758.12933736993	1
0	3198	758.310139981343	2
0	3202	759.021540079991	3
0	3207	759.994671100539	2
0	3212	761.340541140283	1
0	3217	762.038446417785	0
0	3234	764.787286270829	1
0	3237	765.409823967795	2
0	3240	767.542110204535	1
0	3250	769.083872667592	2
0	3253	769.719695107126	3
0	3254	770.100392899487	2
0	3261	773.518236081108	3
0	3262	773.837960232747	2
0	3269	774.881469831301	3
0	3271	775.709585253358	2
0	3276	776.241021279145	1
0	3281	776.531104374505	0
0	3287	776.566194019299	1
0	3292	777.961098676333	2
0	3296	779.061740149336	1
0	3301	779.866490188113	0
0	3329	783.50558396334	1
0	3331	783.755917529616	2
0	3332	784.503573347215	1
0	3337	785.363872453449	0
0	3359	787.49382194322	1
0	3363	789.378741030629	0
0	3417	804.975354537242	1
0	3420	807.17648504734	0
0	3426	808.159303740984	1
0	3427	808.190608553708	0
0	3439	809.153928592699	1
0	3441	809.508815277216	2
0	3442	809.569450095219	1
0	3447	809.803501302581	0
0	3464	814.699005614069	1
0	3472	816.631853830505	2
0	3475	818.916901351661	3
0	3477	818.964538670186	4
0	3478	820.742204111432	3
0	3486	821.408173937003	2
0	3492	821.980510689677	1
0	3498	822.492407167824	2
0	3500	823.313607674339	3
0	3502	823.625095721032	4
0	3503	823.784253043899	3
0	3512	824.84999199291	2
0	3517	825.40315452971	1
0	3524	825.896595197927	0
0	3564	832.818512362793	1
0	3565	833.385616947721	0
0	3574	833.759430864372	1
0	3578	836.045947827768	2
0	3580	836.458270154707	1
0	3586	837.010775786951	0
0	3602	841.823935377988	1
0	3605	845.823338954776	0
0	3611	845.944762683259	1
0	3614	846.159148944041	2
0	3618	847.068119748865	1
0	3625	847.528197637767	0
0	3644	849.988843749004	1
0	3645	851.652405592509	0
0	3675	855.830895358023	1
0	3681	860.658998221736	2
0	3682	861.048061707491	1
0	3689	861.524962380019	2
0	3693	862.828046115772	3
0	3697	864.657937101664	2
0	3703	864.792789354242	3
0	3705	864.905908387381	2
0	3711	865.572917297958	3
0	3714	865.958328703393	4
0	3716	867.123694276955	5
0	3717	867.141781091001	4
0	3723	869.095781289392	3
0	3730	869.500449719422	4
0	3733	876.393384711471	5
0	3734	876.404898541754	4
0	3739	877.751459465395	3
0	3744	877.928860975708	2
0	3750	879.876144819419	3
0	3751	879.990004799538	2
0	3756	880.798850093505	1
0	3764	883.049278918866	2
0	3765	883.338850288854	1
0	3770	884.356113186658	0
0	3798	891.909806948365	1
0	3799	893.288106108257	0
0	3820	898.887834245249	1
0	3827	899.178864241087	2
0	3829	899.54934542045	3
0	3832	901.087219448576	4
0	3834	901.267471777411	5
0	3836	901.597343929123	6
0	3838	902.220692100077	7
0	3840	902.581383761334	8
0	3841	902.829354571824	7
0	3847	903.123056994363	6
0	3854	904.169946622452	5
0	3859	904.206577542873	4
0	3865	904.316405487003	5
0	3868	905.081266327419	6
0	3869	905.407380425855	5
0	3874	905.497545114659	4
0	3879	907.111703541785	3
0	3884	908.42046885653	2
0	3890	909.479234331981	1
0	3897	910.26936406921	0
0	3943	921.52767884038	1
0	3949	925.187978671625	2
0	3951	926.04381653897	3
0	3953	926.219512894004	4
0	3954	927.86903111574	3
0	3960	930.480152224947	2
0	3966	930.734265550269	1
0	3971	931.267604697323	0
0	4033	951.398151706717	1
0	4036	952.700849966723	0
0	4068	959.606180096896	1
0	4070	959.617091524497	2
0	4071	959.945234789989	1
0	4077	960.067285757259	2
0	4079	960.506395322261	3
0	4080	960.53791632381	2
0	4085	960.631330596005	1
0	4091	961.441896089798	2
0	4094	962.895508252647	1
0	4099	964.376683499671	0
0	4123	969.064457745051	1
0	4125	969.343011270026	2
0	4129	970.617057292379	1
0	4135	972.178770930775	0
0	4170	984.282974462749	1
0	4173	985.334199920335	0
0	4211	991.796302848678	1
0	4213	991.982157639057	2
0	4216	993.407499792611	1
0	4221	994.129381444799	0
0	4235	995.104603615064	1
0	4237	996.688869761025	0
0	4245	996.881954507857	1
0	4246	997.513686784436	0
0	4262	1000.053865007182	1
0	4263	1000.274733913363	0
0	4281	1004.52323417247	1
0	4285	1006.026629898893	2
0	4286	1006.301521813726	1
0	4296	1007.736425177617	2
0	4297	1008.738237646139	1
0	4303	1010.314060285516	2
0	4305	1010.723255046782	1
0	4311	1012.177059307348	0
0	4317	1012.369515996574	1
0	4319	1013.571019313278	0
0	4379	1039.677050427305	1
0	4381	1040.456312730287	2
0	4390	1043.427502486622	1
0	4400	1045.670104032961	0
0	4409	1046.657475150598	1
0	4410	1047.02302325423	0
0	4429	1050.267172201164	1
0	4430	1051.327110014332	0
0	4436	1052.576654890592	1
0	4437	1052.779063395123	0
0	4476	1062.498830558187	1
0	4477	1062.574201076101	0
0	4493	1068.002554356538	1
0	4494	1068.872312403992	0
0	4500	1068.933096515732	1
0	4502	1069.095325526519	2
0	4505	1069.51544009414	1
0	4511	1070.576498688558	0
0	4517	1070.741724845199	1
0	4518	1071.677979489844	0
0	4531	1072.193039538059	1
0	4533	1075.728533577054	2
0	4534	1077.846384092662	1
0	4539	1079.195506353468	0
0	4546	1079.521358605312	1
0	4547	1079.636218008852	0
0	4571	1086.181683120727	1
0	4573	1086.595827583103	2
0	4576	1087.773166814551	1
0	4587	1090.408513839536	0
0	4614	1100.301479422938	1
0	4617	1101.033689574052	0
0	4626	1101.777772189147	1
0	4627	1102.075681376153	0
0	4644	1105.082710967693	1
0	4645	1106.161268467899	0
0	4657	1109.122885844311	1
0	4658	1110.530757188618	0
0	4697	1119.24222556046	1
0	4699	1119.705668773536	2
0	4701	1119.750109464926	3
0	4702	1119.940149815924	2
0	4708	1120.109248303689	3
0	4709	1120.710142131001	2
0	4716	1121.264566032252	1
0	4721	1122.131763312066	0
0	4794	1154.090068927756	1
0	4796	1155.512039569477	2
0	4800	1156.716486713923	3
0	4804	1158.063130265366	4
0	4806	1159.122425863622	5
0	4807	1159.148860721559	4
0	4812	1159.158413562291	3
0	4817	1159.796447592548	2
0	4823	1159.802113876678	3
0	4824	1159.881120968519	2
0	4829	1159.930008584813	1
0	4833	1159.943061745544	2
0	4836	1161.121263573826	1
0	4844	1163.035072777081	0
0	4871	1168.832818221809	1
0	4872	1169.585918444439	0
0	4886	1171.325474902013	1
0	4890	1171.66006640371	2
0	4892	1171.801601072451	3
0	4893	1173.265278877986	2
0	4899	1174.410801461031	1
0	4905	1175.433410099095	0
0	4953	1184.466877144368	1
0	4955	1184.916982267299	2
0	4962	1186.626393973309	3
0	4963	1187.317369540738	2
0	4969	1187.445024900502	3
0	4971	1188.752844028688	2
0	4978	1188.881254754198	3
0	4979	1189.555397825917	2
0	4984	1189.695650882228	1
0	4989	1190.03412844071	0
0	5013	1194.053397726956	1
0	5017	1196.500939785694	0
0	5061	1207.599186559459	1
0	5062	1207.792293449478	0
0	5074	1211.212046412057	1
0	5076	1212.477460237457	2
0	5081	1216.867726427631	3
0	5083	1217.489923764022	4
0	5084	1217.640231732558	3
0	5090	1217.670384851362	4
0	5096	1220.104031842709	5
0	5097	1220.195653631376	4
0	5104	1221.08788511827	3
0	5112	1221.864174551807	4
0	5113	1223.190126497637	3
0	5118	1223.24036560361	2
0	5124	1224.509048524662	1
0	5133	1227.464215868319	0
0	5150	1228.247511187774	1
0	5152	1228.737055247772	2
0	5154	1229.175616860344	3
0	5157	1229.487346593252	2
0	5163	1230.060412049487	3
0	5164	1230.357257626734	2
0	5172	1231.758394649416	1
0	5178	1231.961765229499	2
0	5179	1232.12933635072	1
0	5184	1232.810341347619	0
0	5219	1238.516743914047	1
0	5221	1238.786590544496	0
0	5243	1244.592761391026	1
0	5245	1244.782474191102	2
0	5254	1248.122962663058	1
0	5260	1249.309650495647	0
0	5292	1256.260051955833	1
0	5293	1256.929613827033	0
0	5314	1262.456412592076	1
0	5315	1263.192377047493	0
0	5321	1264.674125147435	1
0	5322	1264.766859674879	0
0	5417	1282.708850366017	1
0	5418	1282.928825703429	0
0	5425	1284.259171279687	1
0	5427	1286.231379739803	0
0	5442	1288.594376052564	1
0	5444	1290.968150849683	2
0	5445	1291.304070636022	1
0	5451	1291.758853964509	0
0	5458	1292.695637502672	1
0	5460	1293.96341167432	2
0	5463	1295.831132011807	3
0	5465	1296.751382847854	4
0	5466	1296.763243472927	3
0	5473	1297.802236241268	4
0	5474	1298.047873332089	3
0	5481	1298.595485458229	2
0	5487	1299.13766146144	1
0	5493	1299.511322438726	2
0	5497	1301.318810656678	1
0	5503	1302.069337445621	0
0	5514	1302.80663338082	1
0	5518	1304.111650294248	2
0	5520	1304.213293336031	3
0	5521	1304.486362726673	2
0	5528	1305.056114436427	1
0	5533	1305.593219183587	0
0	5541	1308.176596868027	1
0	5548	1310.296579014213	0
0	5552	1310.337982443643	1
0	5555	1311.851559107049	0
0	5586	1317.252800698295	1
0	5587	1317.303837578231	0
0	5596	1318.192210706676	1
0	5601	1318.985421873196	2
0	5602	1319.14883781968	1
0	5607	1319.549222300812	0
0	5637	1326.158137293845	1
0	5639	1326.70994123759	0
0	5647	1328.094573134516	1
0	5650	1328.322366838759	0
0	5656	1328.896242854024	1
0	5658	1329.224234357073	2
0	5660	1329.96830776854	1
0	5666	1330.639613996968	0
0	5682	1331.973315900476	1
0	5683	1332.034359861146	0
0	5696	1334.596998584683	1
0	5699	1335.120855776134	0
0	5710	1335.340534104576	1
0	5713	1337.478901950695	0
0	5720	1337.612000479527	1
0	5725	1339.904124862708	0
0	5732	1340.579152435537	1
0	5733	1340.856593648765	0
0	5750	1344.495812551925	1
0	5751	1344.894224048428	0
0	5757	1345.001628857217	1
0	5759	1345.079826716456	2
0	5760	1345.337264089971	1
0	5770	1347.146150372599	2
0	5774	1347.926650955282	1
0	5782	1348.846132080384	0
0	5847	1368.82247668587	1
0	5852	1371.410792038431	0
0	5864	1372.745024678377	1
0	5865	1373.440916230819	0
0	5871	1373.630158268251	1
0	5874	1374.968665209542	0
0	5887	1376.912529447255	1
0	5890	1378.862531693331	0
0	5896	1379.127190658313	1
0	5897	1380.112220204529	0
0	5905	1380.612815212965	1
0	5910	1381.825526602195	2
0	5913	1382.170087432106	1
0	5918	1382.603922938416	0
0	5963	1396.063839632697	1
0	5965	1397.593270510314	2
0	5967	1397.993126441128	3
0	5968	1399.693046982807	2
0	5975	1400.073039936862	1
0	5983	1400.663223513469	0
0	5989	1401.239537972192	1
0	5990	1401.266130191659	0
0	6008	1402.818488372594	1
0	6012	1403.713541351142	2
0	6016	1405.207005116821	3
0	6018	1405.416984473631	2
0	6023	1405.602545401326	1
0	6028	1407.096356365601	0
0	6032	1409.234153388743	1
0	6034	1409.454337174536	2
0	6043	1412.519656607924	1
0	6048	1412.756173512732	0
0	6058	1415.029436532969	1
0	6060	1415.443822981909	2
0	6061	1415.752990801344	1
0	6066	1415.983348055146	0
0	6080	1418.27246520507	1
0	6081	1418.741925706854	0
0	6096	1421.227707279782	1
0	6099	1422.065023293071	0
0	6118	1424.396798949347	1
0	6120	1426.303679133948	2
0	6121	1427.188263613638	1
0	6128	1429.591228550476	0
0	6138	1429.952809527997	1
0	6140	1431.62364740035	2
0	6145	1432.561471352007	1
0	6151	1432.574833477296	2
0	6152	1433.348375944754	1
0	6158	1435.163933876669	2
0	6160	1436.599327626505	1
0	6166	1437.403952007794	2
0	6168	1437.688984916886	3
0	6169	1437.717136191314	2
0	6175	1438.153816114113	1
0	6180	1438.776295681787	0
0	6184	1440.230946039485	1
0	6188	1441.150413023306	2
0	6192	1441.777388203486	3
0	6194	1442.144643843215	2
0	6201	1442.765708134402	3
0	6206	1443.870135457854	4
0	6207	1444.915710367227	3
0	6215	1446.43705692285	2
0	6224	1447.514366365023	3
0	6225	1447.601599487337	2
0	6232	1450.29933085128	3
0	6233	1450.680666571477	2
0	6238	1451.407976885089	1
0	6243	1452.292538176023	0
0	6249	1452.488221017352	1
0	6251	1452.673975290113	0
0	6264	1453.585683769589	1
0	6265	1453.699155258887	0
0	6283	1460.869174829819	1
0	6286	1463.320277714097	0
0	6302	1467.413948816635	1
0	6304	1468.181082186066	2
0	6306	1471.859465427857	3
0	6310	1473.622018458464	4
0	6316	1474.438912252585	5
0	6317	1475.187259014494	4
0	6323	1476.375491687466	3
0	6329	1476.569656124615	2
0	6339	1477.152222675763	1
0	6344	1478.30450227172	0
0	6367	1482.880715882925	1
0	6368	1482.951178134675	0
0	6376	1483.712669488198	1
0	6378	1483.783261524371	2
0	6380	1484.478945993516	1
0	6387	1485.285807481455	2
0	6388	1485.458405507933	1
0	6395	1486.843577164717	0
0	6406	1488.631957324038	1
0	6407	1488.763601950673	0
0	6429	1494.395253771665	1
0	6432	1494.717745409334	2
0	6433	1495.332961255278	1
0	6440	1496.96752237843	0
0	6467	1499.949815506024	1
0	6470	1501.152553732013	0
0	6492	1503.369149231134	1
0	6496	1507.317920566765	0
0	6508	1508.33863562214	1
0	6510	1509.735636898634	2
0	6511	1512.536169895812	1
0	6516	1512.741235867028	0
0	6522	1512.793655607918	1
0	6524	1513.367120654077	0
0	6530	1513.983961090316	1
0	6533	1514.322795112732	0
0	6572	1525.103003845289	1
0	6575	1531.568625738159	0
0	6604	1538.03537232672	1
0	6607	1540.225541944074	0
0	6613	1540.357201767887	1
0	6616	1542.328471870151	0
0	6624	1543.066591735637	1
0	6626	1543.53222848668	0
0	6654	1546.712382714159	1
0	6656	1547.055025238806	2
0	6657	1547.876192696425	1
0	6662	1548.264807348822	0
0	6690	1563.105049108521	1
0	6694	1563.767299013447	2
0	6695	1563.785236806747	1
0	6700	1563.94235581978	0
0	6721	1568.132829443017	1
0	6724	1568.360480644192	0
0	6740	1570.340014332275	1
0	6741	1570.682872227358	0
0	6799	1593.829216783627	1
0	6800	1594.112227024067	0
0	6847	1606.072826152237	1
0	6848	1606.500047789453	0
0	6885	1612.360183710648	1
0	6886	1612.509041647923	0
0	6899	1615.824987608269	1
0	6903	1617.254133060847	0
0	6909	1617.839165253882	1
0	6911	1617.980085800465	2
0	6916	1618.227966895057	3
0	6918	1618.509994803116	4
0	6919	1619.55780604232	3
0	6924	1621.681044421885	2
0	6929	1623.031845443092	1
0	6933	1623.40760028243	2
0	6938	1628.230283862986	1
0	6943	1628.915697615641	0
0	6965	1631.061203716416	1
0	6967	1632.751763592563	2
0	6968	1634.232119210985	1
0	6975	1634.953428784784	0
0	6991	1635.602672180405	1
0	6993	1636.827764331238	0
0	6999	1636.984171332992	1
0	7001	1637.324037863856	0
0	7032	1643.895708993423	1
0	7034	1645.550534458455	2
0	7038	1649.238334231179	3
0	7039	1649.490840270184	2
0	7044	1650.05744822129	1
0	7052	1651.488420109447	2
0	7053	1651.971797091286	1
0	7060	1654.38177086993	0
0	7092	1660.32903112408	1
0	7094	1660.40204835584	2
0	7096	1660.577422891263	3
0	7099	1663.084627829632	2
0	7104	1663.734401215927	1
0	7114	1666.406724428752	0
0	7136	1675.368508667118	1
0	7141	1678.167919989472	0
0	7148	1678.58711756301	1
0	7149	1678.677115054977	0
0	7161	1680.842319955179	1
0	7165	1682.026929285866	2
0	7168	1683.131255034857	1
0	7174	1683.454917716136	2
0	7175	1683.922187835057	1
0	7180	1684.150735942605	0
0	7229	1694.764523490065	1
0	7230	1694.975419204186	0
0	7238	1696.78431944461	1
0	7240	1697.043853185479	0
0	7253	1698.399886773668	1
0	7256	1699.286789602716	2
0	7259	1699.685819205454	1
0	7265	1700.206876833272	0
0	7271	1701.333686336998	1
0	7273	1701.464535267422	2
0	7274	1701.678526347832	1
0	7280	1701.968729129018	2
0	7281	1702.047329100803	1
0	7286	1702.048792751556	0
0	7303	1709.701527314541	1
0	7308	1711.70803772625	0
0	7329	1716.27813367124	1
0	7330	1716.286320105574	0
0	7349	1718.702436470678	1
0	7351	1719.277084580794	2
0	7353	1721.235386922645	1
0	7358	1721.542247747435	0
0	7421	1741.215112672648	1
0	7422	1741.288882442515	0
0	7455	1748.143331934847	1
0	7458	1748.540021985628	2
0	7460	1750.772539071179	3
0	7461	1750.944609029818	2
0	7467	1752.04549180037	3
0	7468	1752.340605669731	2
0	7473	1752.820519856384	1
0	7478	1754.201443853419	0
0	7493	1756.583273946931	1
0	7494	1756.915805990152	0
0	7506	1760.139058288811	1
0	7508	1760.792173574866	2
0	7509	1761.405100145593	1
0	7514	1761.538327601257	0
0	7582	1774.8598617216	1
0	7586	1777.287732163413	2
0	7588	1777.550562069796	3
0	7589	1778.117525475165	2
0	7594	1778.146102650537	1
0	7600	1778.600847980751	0
0	7606	1778.786259069028	1
0	7607	1779.418685126823	0
0	7669	1794.909705169339	1
0	7670	1796.957955330768	0
0	7729	1820.005031747423	1
0	7737	1823.758047731154	0
0	7752	1829.434018079212	1
0	7754	1831.717349864607	2
0	7759	1834.538092768907	1
0	7764	1835.101093195734	0
0	7774	1836.534637394112	1
0	7775	1836.820761804091	0
0	7781	1836.924932584517	1
0	7782	1838.210195803216	0
0	7788	1838.380572817122	1
0	7789	1838.932472611576	0
0	7800	1842.345920909894	1
0	7802	1843.365648856312	0
0	7808	1844.900198421605	1
0	7811	1845.63643097818	2
0	7813	1846.548427613107	1
0	7819	1847.559195729056	0
0	7825	1847.740612864074	1
0	7829	1847.986990076446	0
0	7843	1848.767313467153	1
0	7846	1849.267135427546	0
0	7869	1854.579883033141	1
0	7871	1856.21530659309	0
0	7920	1867.173461886357	1
0	7923	1867.89545472313	0
0	7932	1868.671330821955	1
0	7934	1869.685621573169	2
0	7937	1870.366791327891	3
0	7938	1871.165159171605	2
0	7943	1871.459213704769	1
0	7948	1871.546146552278	0
0	7982	1877.312861908716	1
0	7986	1879.514317649628	0
0	8020	1886.637196107858	1
0	8023	1891.813729393663	0
0	8032	1893.0381390115	1
0	8034	1893.391937608561	2
0	8036	1894.062380077137	3
0	8037	1894.632324801128	2
0	8043	1894.858252838285	3
0	8044	1894.975186463843	2
0	8049	1895.603519539442	1
0	8057	1898.545056999544	0
0	8063	1898.682430084329	1
0	8068	1900.668304705714	0
0	8075	1901.336094647265	1
0	8076	1901.646267397954	0
0	8082	1902.394349348882	1
0	8084	1902.701514628589	0
0	8100	1906.650972734705	1
0	8105	1908.069424884795	0
0	8117	1909.169648172947	1
0	8120	1909.861620218389	0
0	8138	1914.998425514345	1
0	8139	1915.256232054197	0
0	8147	1915.464094202045	1
0	8149	1916.716729277196	0
0	8196	1926.945554697369	1
0	8197	1927.440204670949	0
0	8215	1931.776329330447	1
0	8220	1932.044199338287	0
0	8235	1933.96297414164	1
0	8240	1934.320814679378	0
0	8250	1935.886435688072	1
0	8252	1936.045907238325	2
0	8254	1937.34152239663	3
0	8255	1938.394741698545	2
0	8261	1940.452309358074	1
0	8267	1940.780696020374	0
0	8283	1943.707094699714	1
0	8285	1944.313780871662	2
0	8290	1946.810376551735	1
0	8298	1947.808310821769	2
0	8301	1948.70589266932	1
0	8309	1951.111658968726	0
0	8315	1951.858619503953	1
0	8319	1953.433192851433	2
0	8320	1954.150557128055	1
0	8327	1954.219117348166	0
0	8333	1954.888749940063	1
0	8334	1955.058800634045	0
0	8350	1955.858390289746	1
0	8353	1957.904837151948	0
0	8360	1958.506240950448	1
0	8361	1959.248247484211	0
0	8448	1982.841587442545	1
0	8449	1982.959720255129	0
0	8549	2008.129647470969	1
0	8554	2009.87100925573	0
0	8575	2013.915369551464	1
0	8576	2014.668241046147	0
0	8582	2015.0985981807	1
0	8584	2015.638799418871	0
0	8593	2017.595396484962	1
0	8597	2020.77381245824	0
0	8609	2023.804287931129	1
0	8610	2024.106195341129	0
0	8651	2035.320633155197	1
0	8653	2035.558885121607	2
0	8654	2035.632243022252	1
0	8660	2036.547710454885	0
0	8666	2037.054778754016	1
0	8668	2037.103908702107	2
0	8670	2038.046312741679	3
0	8672	2038.179931053835	4
0	8673	2038.442149494896	3
0	8678	2038.667968524342	2
0	8684	2038.882160098144	1
0	8690	2040.928251128441	0
0	8696	2041.027372460555	1
0	8699	2041.641097325964	0
0	8715	2044.088802833486	1
0	8716	2044.171820746219	0
0	8748	2054.165997319545	1
0	8754	2057.14025030885	0
0	8792	2068.759830397269	1
0	8793	2069.049778168741	0
0	8869	2089.227792845812	1
0	8871	2089.259237008178	2
0	8872	2089.690841269205	1
0	8877	2089.796000054081	0
0	8900	2093.348068119061	1
0	8903	2093.556140369269	2
0	8904	2093.586199704779	1
0	8909	2093.676790514006	0
0	8955	2103.772296834257	1
0	8956	2105.279587371057	0
0	8962	2105.331896940615	1
0	8963	2105.403411411617	0
0	8971	2107.465671242299	1
0	8973	2108.107300833266	2
0	8974	2108.574565528968	1
0	8979	2108.767137164313	0
0	8987	2110.457826110697	1
0	8988	2110.647693613181	0
0	9010	2126.009235803234	1
0	9011	2126.442584048396	0
0	9064	2138.694273999941	1
0	9065	2138.711252191918	0
0	9080	2143.573545921372	1
0	9082	2144.157034733415	0
0	9106	2149.780555352638	1
0	9108	2149.84561471445	0
0	9134	2158.262202854771	1
0	9135	2158.630736849529	0
0	9151	2159.740040284015	1
0	9155	2161.264225623437	0
0	9168	2161.873259059669	1
0	9169	2162.738396351111	0
0	9181	2166.16358106499	1
0	9183	2166.496026468348	2
0	9185	2166.705023765594	3
0	9187	2167.572958175469	4
0	9192	2168.456161364687	3
0	9197	2169.009715441156	2
0	9202	2169.011412234209	1
0	9208	2169.824130249813	0
0	9214	2169.986290087482	1
0	9215	2171.694643448298	0
0	9224	2174.126881476164	1
0	9227	2177.879927225	0
0	9259	2187.388408899679	1
0	9268	2189.722526092612	2
0	9271	2190.915742006236	3
0	9272	2191.725396474493	2
0	9277	2192.056492197313	1
0	9290	2198.121336579332	0
0	9296	2198.598403292752	1
0	9297	2198.971483098577	0
0	9339	2211.773488438168	1
0	9342	2212.154279929943	2
0	9343	2212.24686601146	1
0	9348	2212.305636294369	0
0	9386	2220.394925913511	1
0	9387	2220.801145147914	0
0	9393	2221.191600188514	1
0	9395	2221.282991514489	2
0	9399	2221.587666657114	3
0	9400	2222.306690464631	2
0	9405	2222.459861953228	1
0	9413	2224.21841069707	0
0	9442	2236.150963636991	1
0	9443	2237.206008229126	0
0	9525	2253.056491649343	1
0	9530	2255.807786032006	2
0	9532	2256.511485422759	1
0	9538	2257.424661169205	0
0	9563	2261.602429971462	1
0	9565	2261.736857587399	0
0	9623	2278.305594010627	1
0	9628	2278.80137236914	2
0	9632	2281.516372923145	1
0	9637	2281.607836223697	0
0	9643	2281.762835333266	1
0	9644	2283.077466008892	0
0	9650	2283.235066298667	1
0	9651	2283.617220132974	0
0	9666	2288.353933270277	1
0	9667	2288.63433372079	0
0	9679	2289.617610380063	1
0	9682	2290.011684073867	0
0	9702	2292.220899016793	1
0	9705	2292.981857928615	0
0	9744	2307.813779641419	1
0	9745	2308.387904081147	0
0	9759	2310.100310791677	1
0	9762	2311.000601666369	0
0	9774	2311.983811472579	1
0	9777	2314.217800386742	2
0	9778	2314.557176423974	1
0	9783	2314.647094700913	0
0	9900	2360.114813790764	1
0	9903	2360.724984253556	0
0	9909	2361.191179356466	1
0	9910	2361.337574841783	0
0	9916	2361.433829054031	1
0	9917	2361.468232899147	0
0	9934	2363.635914895125	1
0	9938	2364.161348925314	2
0	9939	2364.17584433872	1
0	9945	2365.395838589345	0
0	9966	2370.746792100859	1
0	9967	2371.323581747039	0
0	10003	2382.670931491103	1
0	10005	2384.094310882571	2
0	10007	2385.961972340582	3
0	10009	2386.045048787542	4
0	10010	2387.438794215297	3
0	10016	2387.980570125526	4
0	10018	2388.533839220602	3
0	10023	2389.475935280401	2
0	10030	2389.701063116873	1
0	10036	2389.962278178681	0
0	10058	2394.338197172113	1
0	10059	2395.313974735318	0
0	10073	2396.677483487837	1
0	10074	2397.603911994632	0
0	10105	2403.713026701586	1
0	10106	2403.800877057928	0
0	10113	2404.610038573198	1
0	10114	2404.645398933597	0
0	10120	2405.018476300101	1
0	10124	2406.326619771937	0
0	10141	2408.548485008892	1
0	10143	2410.258629548965	0
0	10155	2410.650353309222	1
0	10157	2411.203027078816	0
0	10163	2411.771373488435	1
0	10167	2412.619853756375	0
0	10217	2425.042783390422	1
0	10221	2427.63985870601	2
0	10222	2429.254807955096	1
0	10228	2431.59733023694	0
0	10298	2449.559767906187	1
0	10301	2453.152332819099	0
0	10323	2466.479145743928	1
0	10324	2466.48767548868	0
0	10330	2466.845276873834	1
0	10332	2467.584564203002	2
0	10334	2469.245132530172	3
0	10335	2470.66335137888	2
0	10343	2471.872230076881	3
0	10344	2472.364708801265	2
0	10350	2472.676031164871	3
0	10351	2472.848725178211	2
0	10357	2473.77194947551	1
0	10362	2474.290143468359	0
0	10382	2477.441670383052	1
0	10383	2477.666973274098	0
0	10392	2479.697524445063	1
0	10393	2479.699249341959	0
0	10399	2479.806129064322	1
0	10400	2479.815473919483	0
0	10420	2484.131871274588	1
0	10421	2484.171035597402	0
0	10442	2489.43955032512	1
0	10444	2491.175155087119	0
0	10470	2499.532358399823	1
0	10471	2499.739376783021	0
0	10478	2501.471621253667	1
0	10480	2502.018542887755	2
0	10481	2502.445507919992	1
0	10486	2502.566335301732	0
0	10512	2506.687831765085	1
0	10514	2507.268261423607	0
0	10528	2508.732025566263	1
0	10530	2508.998847137321	0
0	10554	2513.349596170442	1
0	10556	2513.418582884402	2
0	10558	2513.536975146796	3
0	10559	2513.668548705651	2
0	10564	2514.567496393032	1
0	10569	2515.032108189136	0
0	10573	2515.544045488385	1
0	10576	2515.767944986423	0
0	10582	2516.177693915155	1
0	10585	2517.295473104707	0
0	10593	2517.497413691542	1
0	10594	2517.922592546415	0
0	10625	2523.051077799308	1
0	10628	2526.355623399422	0
0	10636	2527.40506472593	1
0	10638	2529.074868733179	0
0	10669	2537.296516377253	1
0	10670	2537.493062538218	0
0	10681	2538.132440072797	1
0	10684	2539.528632938697	0
0	10696	2542.035414422976	1
0	10698	2542.1695106136	2
0	10700	2542.856035607649	3
0	10701	2543.019328300832	2
0	10707	2543.411358310252	1
0	10713	2543.627591153594	2
0	10715	2545.371572511918	1
0	10720	2547.485232020103	0
0	10746	2551.40313442542	1
0	10748	2551.556135236185	2
0	10750	2551.80095845017	3
0	10751	2551.837125466574	2
0	10758	2553.384357209574	1
0	10763	2553.495213324071	0
0	10796	2562.759484703559	1
0	10797	2562.837971836577	0
0	10803	2563.715287382585	1
0	10804	2563.966003559604	0
0	10834	2569.881125729589	1
0	10837	2570.500709152779	0
0	10847	2572.992272050418	1
0	10850	2575.702522302031	0
0	10888	2583.783666074715	1
0	10889	2583.899446479531	0
0	10928	2596.917056122442	1
0	10930	2597.335395587906	2
0	10931	2599.795932158124	1
0	10936	2599.81510267888	0
0	10942	2601.097430808385	1
0	10944	2601.32650868926	2
0	10945	2602.10759492997	1
0	10952	2603.131453756049	2
0	10953	2604.30935360149	1
0	10958	2605.065024651226	0
0	10987	2618.423582514335	1
0	10990	2618.593553228112	0
0	10996	2618.77983522479	1
0	10998	2619.29664083236	0
0	11018	2623.175829431912	1
0	11023	2628.521655819816	0
0	11029	2628.539351830511	1
0	11032	2628.941950335821	2
0	11036	2630.762436728535	3
0	11039	2631.817959642814	2
0	11046	2632.957988013129	1
0	11051	2633.276092146413	0
0	11064	2635.547663945733	1
0	11068	2636.405097032177	0
0	11074	2636.93761916292	1
0	11075	2637.37351733631	0
0	11083	2638.186762341811	1
0	11084	2638.411526228169	0
0	11108	2641.018606747163	1
0	11110	2642.077748591666	0
0	11116	2642.5106961747	1
0	11121	2643.602834105858	0
0	11137	2645.674725452996	1
0	11146	2649.268930515925	2
0	11147	2649.781350663415	1
0	11155	2650.538817074036	0
0	11172	2652.996074649532	1
0	11174	2653.420833758412	2
0	11175	2653.453970654411	1
0	11181	2654.122785571276	2
0	11184	2654.270215071512	3
0	11185	2655.263681318929	2
0	11193	2655.454264866956	3
0	11195	2655.469028492185	4
0	11198	2657.365508222439	5
0	11199	2657.708569267422	4
0	11205	2657.846866653655	5
0	11208	2658.171292469671	6
0	11209	2658.264794376325	5
0	11214	2658.511958771076	4
0	11220	2659.595182696096	3
0	11226	2659.997990447237	2
0	11234	2660.255905384013	3
0	11235	2660.39271783271	2
0	11240	2660.68180910607	1
0	11246	2661.173619567895	0
0	11267	2664.189777389421	1
0	11270	2665.783070293505	0
0	11277	2668.415712999938	1
0	11278	2668.870405215817	0
0	11295	2674.159198333108	1
0	11297	2675.158146115656	2
0	11299	2675.797580216899	3
0	11301	2676.457729762004	4
0	11304	2677.109541144997	3
0	11310	2678.106770048407	2
0	11315	2678.165433452914	1
0	11324	2679.34940641562	2
0	11325	2679.36176184821	1
0	11332	2680.873579677672	2
0	11333	2680.885012646671	1
0	11338	2681.128752979532	0
0	11344	2681.348285288193	1
0	11345	2681.46717692318	0
0	11356	2682.722506455396	1
0	11361	2683.841916141032	0
0	11368	2684.391780442613	1
0	11376	2687.23906592517	2
0	11379	2690.236099629187	1
0	11384	2691.980498210519	0
0	11424	2705.722544679079	1
0	11426	2705.783130352497	2
0	11428	2705.78847496115	3
0	11431	2708.391954024813	2
0	11443	2711.151753858774	1
0	11452	2711.750656272692	2
0	11455	2712.658848350142	1
0	11460	2712.705965929348	0
0	11466	2713.027455518652	1
0	11468	2713.60661860869	2
0	11472	2714.605987173887	3
0	11473	2714.684450268632	2
0	11478	2715.504165799514	1
0	11487	2716.915508058725	2
0	11490	2717.477386709536	3
0	11491	2717.565430510919	2
0	11498	2717.676249810589	1
0	11504	2717.688711719474	2
0	11507	2717.894210213991	3
0	11510	2719.345540265247	2
0	11515	2719.413353489557	1
0	11520	2719.802849902986	0
0	11524	2720.066529986664	1
0	11526	2721.294432622492	2
0	11528	2722.312370752533	3
0	11535	2725.616228551512	2
0	11539	2727.125507986691	3
0	11545	2729.230080582135	2
0	11550	2729.798063239546	1
0	11554	2730.408880431241	2
0	11558	2731.774369357934	3
0	11560	2731.997580375203	4
0	11562	2734.01728339119	5
0	11564	2734.142041370657	6
0	11569	2735.458362587994	5
0	11573	2735.804519553934	6
0	11576	2737.582336035868	5
0	11580	2739.79200349759	6
0	11582	2739.973900142563	7
0	11590	2742.417046336196	6
0	11596	2742.662624593791	5
0	11601	2743.012051562378	4
0	11605	2743.533285108997	5
0	11612	2746.699793920532	4
0	11618	2748.716614108332	3
0	11623	2748.848482507244	2
0	11629	2749.709282290875	3
0	11631	2749.714726109241	4
0	11636	2753.175762828555	3
0	11640	2753.962244807814	4
0	11645	2756.955928132717	3
0	11650	2757.194697265114	2
0	11656	2757.355838104613	3
0	11657	2758.383610558641	2
0	11662	2758.853555836532	1
0	11671	2762.470052851468	0
0	11701	2766.245787322371	1
0	11702	2766.487725672381	0
0	11721	2771.209954581575	1
0	11722	2771.757542122524	0
0	11735	2774.423317561283	1
0	11739	2775.844506308057	2
0	11740	2775.861437174771	1
0	11749	2777.251932990449	2
0	11750	2777.454527626937	1
0	11755	2777.602555979632	0
0	11775	2779.852363309769	1
0	11776	2780.650762406035	0
0	11798	2781.991521067711	1
0	11801	2781.997037589982	2
0	11802	2782.49577867447	1
0	11807	2783.011572010747	0
0	11820	2789.021299824066	1
0	11824	2792.067724656418	2
0	11825	2793.111881494134	1
0	11833	2794.67918775856	0
0	11842	2795.605462993501	1
0	11843	2795.840878515997	0
0	11861	2801.748989376091	1
0	11863	2802.205608776986	2
0	11864	2802.926414970916	1
0	11870	2804.35485103905	0
0	11876	2804.809781239562	1
0	11877	2804.824267536438	0
0	11922	2811.355848010128	1
0	11924	2811.45007838821	2
0	11925	2811.475916819796	1
0	11930	2811.757530894103	0
0	11955	2818.494933952867	1
0	11957	2818.871789721019	2
0	11960	2819.435964729358	1
0	11969	2821.27134155831	0
0	11981	2822.584781353357	1
0	11984	2823.407228518561	0
0	11999	2825.188685931813	1
0	12000	2825.300361118607	0
0	12020	2828.57156184413	1
0	12023	2829.675966196054	0
0	12031	2830.309750999023	1
0	12036	2830.619039621418	0
0	12073	2837.49210120562	1
0	12074	2837.588562736157	0
0	12085	2839.423503984788	1
0	12087	2840.035940203708	0
0	12110	2846.308983961379	1
0	12116	2849.117524530483	2
0	12118	2849.678674930859	3
0	12119	2851.760079570428	2
0	12124	2852.154249461959	1
0	12129	2852.299669920918	0
0	12135	2852.409336629488	1
0	12137	2854.550836163799	0
0	12143	2854.96068300881	1
0	12145	2857.632816590293	0
0	12154	2858.517798752607	1
0	12158	2858.685679327586	2
0	12166	2860.677250886391	1
0	12172	2861.774102565788	0
0	12196	2864.913378272673	1
0	12198	2865.371730819993	0
0	12220	2868.468140878252	1
0	12224	2869.258218170755	2
0	12225	2869.642540630713	1
0	12233	2872.113602566701	0
0	12239	2872.175127849984	1
0	12242	2873.135664286167	0
0	12250	2875.790655428672	1
0	12251	2876.149167679174	0
0	12262	2876.769018432645	1
0	12264	2878.212339431959	0
0	12274	2878.867803919892	1
0	12278	2882.396544160561	0
0	12314	2888.882336064803	1
0	12316	2889.614394756546	2
0	12317	2889.873420479054	1
0	12322	2890.635548871886	0
0	12331	2891.356364542888	1
0	12336	2892.212743175596	0
0	12400	2910.643033873408	1
0	12403	2911.845516537452	2
0	12404	2912.414953589502	1
0	12415	2914.061419449076	0
0	12444	2920.707282388581	1
0	12445	2923.010300625796	0
0	12451	2923.022036065647	1
0	12453	2923.109077554587	2
0	12454	2923.409215153111	1
0	12459	2923.435270842736	0
0	12472	2926.749933178794	1
0	12476	2930.857846436431	0
0	12482	2932.983693961236	1
0	12488	2935.59918646585	2
0	12489	2936.121695277106	1
0	12496	2936.676128220031	2
0	12497	2936.95983936483	1
0	12503	2937.675528043367	2
0	12504	2937.931923240178	1
0	12510	2938.064074852101	2
0	12515	2939.683780959326	3
0	12517	2939.691909888241	4
0	12519	2940.681369787489	3
0	12525	2940.875643869847	4
0	12526	2941.234774136112	3
0	12531	2942.10746070003	2
0	12540	2944.282672327841	1
0	12545	2944.352584036404	0
0	12578	2947.681614607304	1
0	12579	2947.756102021514	0
0	12609	2960.491678782016	1
0	12610	2960.781774836211	0
0	12667	2973.055439719779	1
0	12668	2973.30882153568	0
0	12695	2982.207721952877	1
0	12698	2984.024667398118	0
0	12712	2986.251241275333	1
0	12713	2987.412616974133	0
0	12720	2988.548937003735	1
0	12721	2988.79840727929	0
0	12778	3005.585681735814	1
0	12779	3005.954205041052	0
0	12826	3025.033603176739	1
0	12828	3026.579535268328	0
0	12872	3032.684169224635	1
0	12876	3035.791912492629	0
0	12898	3040.542078490902	1
0	12900	3040.987612653145	2
0	12901	3042.25748029241	1
0	12908	3043.708634342767	2
0	12909	3044.610340250158	1
0	12914	3045.094494392918	0
0	12931	3048.109479977635	1
0	12932	3051.68341678393	0
0	12954	3055.617121970236	1
0	12955	3055.924714953966	0
0	13003	3068.440752298998	1
0	13004	3068.832154072197	0
0	13010	3068.977938756715	1
0	13012	3069.420980537967	0
0	13027	3070.403844608895	1
0	13029	3072.36443148846	2
0	13032	3072.490090209424	1
0	13037	3072.534468024714	0
0	13062	3075.953477453838	1
0	13067	3077.635215805626	2
0	13068	3078.470516481429	1
0	13074	3078.796018932405	2
0	13077	3080.339958797408	1
0	13083	3080.706803609451	2
0	13087	3081.629259416267	1
0	13092	3082.244294358114	0
0	13115	3087.081707608133	1
0	13116	3087.23441883462	0
0	13130	3089.126901595659	1
0	13131	3089.157992491173	0
0	13233	3120.268273072496	1
0	13234	3120.29122994676	0
0	13248	3121.486793712213	1
0	13251	3121.939950806783	2
0	13252	3122.75861517319	1
0	13260	3123.302118112618	2
0	13261	3123.741279321816	1
0	13268	3123.995979121096	0
0	13287	3125.703918789878	1
0	13289	3126.885593879369	2
0	13290	3127.883574672421	1
0	13295	3127.968116882036	0
0	13346	3142.287613330583	1
0	13347	3142.572785402002	0
0	13356	3145.755448655584	1
0	13357	3145.768504578413	0
0	13404	3155.747580418602	1
0	13405	3156.061134501552	0
0	13412	3156.646051242139	1
0	13414	3157.042651651053	0
0	13450	3164.169334042975	1
0	13451	3164.755779700042	0
0	13465	3166.060270423923	1
0	13467	3166.879614988274	0
0	13506	3172.659107439153	1
0	13507	3174.061847944252	0
0	13542	3188.377997276978	1
0	13546	3193.144188526335	2
0	13547	3194.656636544774	1
0	13552	3194.870056596643	0
0	13583	3198.40587566481	1
0	13586	3198.907801678579	0
0	13592	3199.051587902086	1
0	13593	3199.122482072361	0
0	13631	3216.545512496732	1
0	13632	3216.597948072546	0
0	13664	3226.501869331941	1
0	13665	3226.735679548374	0
0	13686	3231.929128708445	1
0	13687	3233.792485857353	0
0	13703	3236.636844999149	1
0	13704	3237.370061124766	0
0	13710	3237.869991168347	1
0	13712	3238.431799246764	0
0	13718	3238.616421484692	1
0	13719	3238.719210985173	0
0	13725	3238.799139689346	1
0	13728	3240.659679737732	0
0	13782	3248.981406126783	1
0	13783	3249.192656109098	0
0	13863	3271.229070518215	1
0	13864	3271.753702808446	0
0	13871	3272.824933797201	1
0	13872	3273.043503796306	0
0	13901	3284.278016773912	1
0	13902	3285.17754611963	0
0	13910	3286.105289293838	1
0	13912	3286.604656629606	2
0	13913	3287.310422879785	1
0	13921	3287.528873916671	0
0	13940	3293.038924519296	1
0	13941	3293.521042285787	0
0	13992	3312.284151402321	1
0	13995	3312.599666296949	0
0	14051	3337.846718354089	1
0	14053	3338.462380187338	0
0	14120	3361.931200313889	1
0	14124	3363.607907613363	2
0	14128	3364.190631261388	3
0	14129	3365.040258833035	2
0	14136	3365.527508880777	1
0	14141	3365.616440061191	0
0	14162	3368.11469966542	1
0	14163	3368.470456853195	0
0	14179	3371.85940890185	1
0	14180	3372.321077310031	0
0	14186	3372.434612888456	1
0	14191	3373.144212901462	0
0	14215	3379.127048597134	1
0	14217	3379.922025958721	2
0	14221	3382.059104711428	3
0	14224	3382.221132478455	2
0	14230	3382.843553339303	1
0	14236	3382.891761429962	2
0	14241	3384.15168638722	3
0	14246	3387.0479025725	2
0	14252	3390.086604501029	1
0	14259	3392.273531334868	2
0	14260	3392.337138923987	1
0	14266	3393.002272201299	0
0	14287	3395.496678442087	1
0	14289	3398.364419402463	0
0	14301	3399.503904026516	1
0	14304	3400.496490441121	2
0	14306	3401.536848507375	3
0	14308	3401.698632190254	4
0	14309	3401.751561991901	3
0	14315	3401.941813533645	2
0	14321	3403.190908472746	1
0	14326	3403.936423454066	0
0	14396	3427.047094250634	1
0	14400	3428.523409520342	0
0	14412	3429.536709337958	1
0	14414	3429.641387677216	2
0	14416	3429.669420761916	3
0	14418	3430.377976292128	4
0	14419	3430.758958190372	3
0	14426	3431.571330387209	2
0	14432	3432.168781962218	3
0	14433	3433.84862185932	2
0	14440	3435.33754174114	1
0	14445	3436.734182184179	0
0	14489	3456.134149150048	1
0	14492	3457.643155833024	0
0	14514	3459.492408930561	1
0	14517	3462.224108135663	2
0	14520	3462.47612812788	3
0	14521	3463.881996508505	2
0	14526	3463.912711263015	1
0	14532	3464.386053604623	2
0	14535	3466.101971149721	1
0	14542	3467.292830856181	0
0	14573	3472.040874420594	1
0	14574	3472.504360226451	0
0	14581	3472.659441852753	1
0	14587	3474.776504708747	2
0	14589	3474.789488010974	3
0	14590	3475.772792157487	2
0	14598	3482.340370803271	1
0	14603	3482.348635246948	0
0	14650	3492.71504576456	1
0	14655	3494.903407216063	2
0	14656	3495.153285434377	1
0	14662	3496.183514746184	0
0	14675	3501.347756129321	1
0	14678	3502.792463497732	2
0	14679	3503.292006131362	1
0	14688	3504.542136889408	0
0	14715	3510.604640604841	1
0	14718	3511.130244014219	2
0	14719	3512.00940540558	1
0	14724	3512.341120343351	0
0	14748	3521.301548963322	1
0	14749	3522.568816866282	0
0	14793	3541.481835124389	1
0	14796	3542.386883330249	2
0	14797	3542.742083439875	1
0	14803	3544.013572761776	0
0	14817	3545.069915655579	1
0	14818	3545.419735504299	0
0	14825	3546.794525634628	1
0	14828	3547.536145282489	0
0	14872	3557.853070276741	1
0	14875	3558.423082625631	0
0	14882	3559.896424176176	1
0	14883	3560.044655746556	0
0	14931	3573.612876937743	1
0	14933	3575.051738562288	2
0	14934	3577.263840181135	1
0	14940	3577.732289596417	2
0	14941	3578.18048444797	1
0	14947	3579.206944633819	0
0	14973	3594.16614410681	1
0	14974	3595.740593764119	0
0	14988	3600.155021442494	1
0	14990	3601.465574743439	2
0	14991	3602.154514555787	1
0	14996	3602.729390471896	0
0	15003	3603.710317115184	1
0	15006	3604.629711945229	2
0	15007	3606.224794182	1
0	15013	3606.927062995231	2
0	15014	3607.41283350943	1
0	15019	3607.655107804401	0
0	15033	3611.07167456144	1
0	15034	3611.841183251941	0
0	15063	3620.490117911064	1
0	15064	3620.741190922007	0
0	15073	3622.597352825967	1
0	15075	3622.919047633072	0
0	15097	3625.021519339857	1
0	15100	3629.894697282924	0
0	15148	3639.62251880035	1
0	15151	3639.756046905786	2
0	15152	3640.453510377291	1
0	15157	3641.115001993726	0
0	15196	3646.697386605468	1
0	15197	3647.480880943464	0
0	15229	3658.724309076185	1
0	15230	3659.23686632414	0
0	15299	3683.297147493546	1
0	15301	3683.419346043859	2
0	15302	3683.531884921045	1
0	15314	3685.196530183958	0
0	15323	3686.703146055738	1
0	15328	3689.038912819977	0
0	15336	3689.858645362187	1
0	15341	3691.204372430473	2
0	15342	3694.955967241928	1
0	15347	3694.967030694252	0
0	15358	3695.509150276622	1
0	15360	3695.608434225318	2
0	15362	3697.009314250018	3
0	15364	3697.664454252049	2
0	15371	3698.018368932343	1
0	15377	3698.210068805469	0
0	15384	3698.517289871833	1
0	15385	3698.713373129772	0
0	15404	3701.396337785306	1
0	15408	3705.421515915377	2
0	15409	3705.431261039568	1
0	15414	3705.520222476371	0
0	15447	3710.319673152822	1
0	15454	3712.364783856182	0
0	15460	3712.427583283214	1
0	15461	3712.827061183678	0
0	15472	3714.330822820871	1
0	15473	3714.616104727701	0
0	15508	3722.826235751469	1
0	15511	3724.216688542043	0
0	15517	3724.45025866244	1
0	15518	3724.746225534258	0
0	15526	3725.952584273114	1
0	15527	3726.033675231578	0
0	15567	3736.314510631674	1
0	15568	3736.752346745648	0
0	15583	3748.863552604477	1
0	15584	3750.025944250175	0
0	15598	3753.734233057734	1
0	15599	3754.347067706178	0
0	15633	3764.427447630674	1
0	15634	3765.207586165012	0
0	15641	3766.21253550165	1
0	15642	3767.50700254594	0
0	15711	3787.532081643244	1
0	15712	3789.461114185403	0
0	15718	3789.60172700123	1
0	15719	3789.768588377972	0
0	15753	3804.443461888146	1
0	15754	3804.908838321713	0
0	15777	3808.727987660675	1
0	15779	3811.038981579436	0
0	15805	3816.21319022657	1
0	15808	3816.588069561229	0
0	15831	3819.487606853568	1
0	15832	3819.752867764477	0
0	15858	3823.365782118007	1
0	15861	3823.682744975509	0
0	15874	3826.142553253679	1
0	15878	3827.395781676632	2
0	15883	3827.804527172981	3
0	15887	3827.976791107419	4
0	15893	3830.098841251659	3
0	15899	3830.253649878444	4
0	15900	3830.408523036692	3
0	15905	3830.421352938826	2
0	15912	3832.908035983078	3
0	15914	3833.622305685424	4
0	15915	3834.817277964091	3
0	15920	3836.276595108494	2
0	15926	3836.664634211561	1
0	15932	3839.318646977184	0
0	15938	3839.887530505743	1
0	15940	3841.312237615272	0
0	15951	3841.690368468743	1
0	15959	3844.356721720031	0
0	15967	3846.365857133325	1
0	15971	3847.041357066268	2
0	15974	3847.877637894622	3
0	15975	3847.897639377287	2
0	15981	3849.989425922101	3
0	15982	3850.923080791751	2
0	15987	3850.981517889042	1
0	15993	3852.055413871266	2
0	15996	3852.395207209954	3
0	16000	3852.5302771241	4
0	16001	3852.557603244228	3
0	16006	3853.118346871216	2
0	16013	3854.118882046486	3
0	16016	3858.206973460535	4
0	16018	3859.050629362343	5
0	16019	3859.227867072727	4
0	16029	3860.731189677463	3
0	16034	3861.371352699486	2
0	16043	3861.611269265352	1
0	16053	3864.997233871745	0
0	16073	3867.006007448517	1
0	16076	3867.807675369562	2
0	16077	3869.542713054699	1
0	16083	3870.026670083355	0
0	16089	3870.664042900529	1
0	16090	3871.265167354662	0
0	16114	3876.488935519543	1
0	16115	3877.003948512581	0
0	16127	3879.2621453553	1
0	16128	3880.603323906546	0
0	16137	3880.895798795564	1
0	16152	3885.859268371555	2
0	16155	3888.592790865854	1
0	16162	3889.425865025757	0
0	16177	3894.711277831605	1
0	16178	3897.019593650753	0
0	16201	3899.418433834137	1
0	16202	3900.303032926455	0
0	16216	3902.345118122923	1
0	16219	3903.664028921409	2
0	16220	3904.524821018361	1
0	16225	3904.562820153535	0
0	16242	3905.3320254919	1
0	16245	3905.92398715799	0
0	16262	3907.8300048874	1
0	16263	3908.20441847753	0
0	16283	3910.343032399684	1
0	16284	3910.716359076022	0
0	16290	3911.394510000507	1
0	16292	3911.661324832907	0
0	16299	3911.966674020443	1
0	16302	3912.964637861109	0
0	16378	3929.984567381296	1
0	16379	3931.085387335114	0
0	16388	3931.798543586931	1
0	16392	3933.600164819238	0
0	16412	3936.248014520385	1
0	16413	3937.138198631896	0
0	16449	3946.218947330572	1
0	16456	3949.1717662869	0
0	16462	3949.33934055917	1
0	16463	3949.640056638251	0
0	16489	3955.891532557922	1
0	16490	3956.379808196053	0
0	16507	3962.440114028166	1
0	16508	3963.273672985786	0
0	16520	3963.741481787728	1
0	16522	3963.934266216926	2
0	16526	3964.137085409703	3
0	16527	3965.22002887179	2
0	16532	3965.955884947845	1
0	16537	3966.229398183311	0
0	16551	3967.784086464374	1
0	16552	3969.704567708641	0
0	16558	3969.928224200476	1
0	16560	3970.859640810731	2
0	16563	3971.585222064048	3
0	16564	3971.978244446541	2
0	16570	3972.952003973319	1
0	16576	3974.983657343583	2
0	16578	3975.274993719718	3
0	16580	3976.411474430397	2
0	16585	3976.52702360504	1
0	16591	3976.97580760806	0
0	16606	3979.502237489909	1
0	16609	3980.811880715501	0
0	16644	3986.87160654845	1
0	16645	3986.976996033332	0
0	16664	3991.57623670684	1
0	16665	3991.746446338831	0
0	16674	3993.74091691017	1
0	16678	3997.155388258905	2
0	16683	3999.730259655517	1
0	16689	4001.609304686337	0
0	16745	4022.231369033788	1
0	16746	4023.40960420876	0
0	16761	4027.162534571061	1
0	16762	4028.151740730047	0
0	16784	4030.20527022266	1
0	16787	4031.056577523705	0
0	16840	4041.422445466971	1
0	16841	4043.432280099301	0
0	16887	4054.58271777545	1
0	16889	4054.656695685644	2
0	16893	4055.74507354039	3
0	16895	4056.332727887302	2
0	16901	4058.459308409005	3
0	16903	4061.584635003076	2
0	16908	4061.703731775113	1
0	16918	4064.300240296158	0
0	16929	4065.157269478759	1
0	16935	4070.391154757626	0
0	16949	4074.285808980757	1
0	16950	4074.443878120539	0
0	16970	4082.141562281616	1
0	16974	4083.591608497474	2
0	16977	4084.397124575963	1
0	16982	4084.531245958338	0
0	17011	4088.435291595228	1
0	17012	4088.928360212612	0
0	17047	4096.28574239281	1
0	17051	4097.308567502819	0
0	17059	4098.267493657221	1
0	17063	4100.080207640396	0
0	17069	4100.648367813696	1
0	17071	4103.76197971523	2
0	17072	4104.24808523054	1
0	17077	4104.324957675623	0
0	17089	4108.695224681379	1
0	17090	4109.230636181137	0
0	17114	4112.792640188103	1
0	17115	4113.071464451874	0
0	17129	4115.572289231629	1
0	17132	4116.003406490328	2
0	17134	4118.629506641935	1
0	17139	4119.593773023313	0
0	17157	4121.318985172944	1
0	17158	4121.430252664636	0
0	17167	4122.282308195197	1
0	17169	4123.111175345574	2
0	17176	4125.990114942296	3
0	17178	4127.346535689731	2
0	17185	4128.901154127566	1
0	17193	4129.470611781565	0
0	17245	4140.241331992546	1
0	17247	4140.763383974332	2
0	17248	4141.374062832286	1
0	17253	4141.786807517415	0
0	17267	4142.874854384645	1
0	17268	4143.265619193225	0
0	17295	4152.441022924164	1
0	17296	4154.07963064878	0
0	17323	4158.259263774883	1
0	17324	4158.307578755492	0
0	17330	4158.605880841125	1
0	17331	4158.813253135681	0
0	17356	4162.814948643971	1
0	17360	4163.159852911026	0
0	17370	4166.683810407632	1
0	17374	4167.830209903074	2
0	17376	4169.138335460146	1
0	17381	4169.188830078341	0
0	17387	4169.917367549757	1
0	17388	4170.063944459148	0
0	17406	4173.482232296774	1
0	17407	4173.606650265117	0
0	17416	4175.887797683971	1
0	17417	4175.999252788224	0
0	17424	4176.708482188161	1
0	17425	4177.868263721052	0
0	17444	4183.378816841399	1
0	17447	4184.659801306379	2
0	17448	4187.128913975606	1
0	17454	4188.166498068529	2
0	17455	4188.166642366234	1
0	17461	4188.307414275313	2
0	17463	4188.618382602282	3
0	17464	4190.093670765475	2
0	17469	4190.155054863639	1
0	17474	4190.354199103726	0
0	17487	4191.219960479733	1
0	17488	4191.485453835664	0
0	17494	4193.197382010828	1
0	17495	4195.206908904394	0
0	17501	4195.567357688011	1
0	17502	4196.363330574521	0
0	17517	4200.784342636042	1
0	17521	4201.004324275467	0
0	17542	4208.159868276238	1
0	17545	4208.803778831985	0
0	17556	4210.441659841066	1
0	17560	4211.650710896559	2
0	17565	4212.640936542269	3
0	17566	4213.0755997914	2
0	17572	4213.815273492657	3
0	17574	4214.421057437612	2
0	17579	4214.671625716432	1
0	17585	4215.592421578429	0
0	17609	4219.659441734692	1
0	17612	4220.548580459956	0
0	17621	4221.426827539503	1
0	17623	4223.930695104802	2
0	17625	4225.308396924635	3
0	17627	4228.520462129813	4
0	17631	4229.834183673005	3
0	17637	4230.197222971706	2
0	17642	4230.236927380431	1
0	17647	4230.297501016704	0
0	17656	4231.10982079069	1
0	17658	4231.380229036933	0
0	17675	4233.49081558315	1
0	17679	4235.346795028122	0
0	17688	4236.302358802176	1
0	17693	4236.674848616473	2
0	17695	4237.417960515769	1
0	17701	4238.173842150389	2
0	17705	4240.443750901372	1
0	17712	4242.201992181357	2
0	17713	4243.343781392492	1
0	17718	4243.474943147562	0
0	17737	4245.689836496523	1
0	17738	4245.700004909505	0
0	17744	4245.928658874535	1
0	17746	4247.829844953277	2
0	17747	4247.905849008294	1
0	17753	4248.532532333558	2
0	17754	4248.581547438183	1
0	17762	4249.166012848458	0
0	17768	4249.965442652516	1
0	17769	4250.924935719931	0
0	17780	4252.675420632594	1
0	17782	4253.009958835137	0
0	17831	4265.124753934692	1
0	17832	4265.333170309298	0
0	17869	4278.142613680903	1
0	17871	4278.352475430979	2
0	17875	4278.76246920298	3
0	17877	4279.733645825868	2
0	17882	4279.908846051811	1
0	17887	4280.416290740666	0
0	17904	4283.262335291418	1
0	17907	4283.414368886194	2
0	17911	4285.947004820038	1
0	17917	4286.171125038262	2
0	17918	4286.24146467656	1
0	17923	4288.639285548083	0
0	17967	4301.968315407421	1
0	17969	4302.283538566522	2
0	17971	4302.401432646511	3
0	17974	4305.672616703788	2
0	17979	4306.378823019375	1
0	17985	4307.282518058867	2
0	17987	4309.809265511806	1
0	17992	4309.963868151446	0
0	18022	4317.217808086706	1
0	18024	4320.620848599244	0
0	18047	4328.20344943635	1
0	18049	4329.437819796993	2
0	18052	4331.073554413769	1
0	18059	4331.376756188224	2
0	18060	4333.765187978611	1
0	18065	4333.905945316505	0
0	18089	4339.255874096992	1
0	18092	4340.894908378954	0
0	18099	4341.45496021263	1
0	18100	4342.915806993373	0
0	18109	4343.666632410269	1
0	18111	4344.621888885923	0
0	18140	4349.777333315679	1
0	18144	4351.085564810013	2
0	18145	4352.627857487957	1
0	18150	4352.786760050265	0
0	18156	4353.170028789144	1
0	18157	4353.316890411862	0
0	18175	4355.98603541984	1
0	18176	4356.032906725004	0
0	18186	4358.852440956753	1
0	18189	4359.209758021848	0
0	18229	4365.235182192278	1
0	18230	4366.201526112906	0
0	18236	4366.285390586189	1
0	18239	4366.942552251496	0
0	18260	4368.946536567979	1
0	18261	4368.972377875721	0
0	18301	4391.882567785805	1
0	18303	4392.131201742316	2
0	18304	4392.136112287357	1
0	18311	4394.697826349364	0
0	18366	4405.730511657706	1
0	18367	4407.555423350279	0
0	18381	4409.085527813507	1
0	18382	4409.212936244067	0
0	18388	4409.472578579715	1
0	18391	4409.787522315238	0
0	18418	4414.351385322277	1
0	18421	4415.739367162905	0
0	18437	4417.342427876311	1
0	18439	4418.476799603379	0
0	18492	4437.305796762014	1
0	18494	4437.385744435465	2
0	18495	4437.560735328649	1
0	18501	4438.873803107437	0
0	18547	4448.826819416284	1
0	18548	4449.472343915913	0
0	18644	4480.712853684727	1
0	18646	4481.717958574265	0
0	18653	4481.828675092628	1
0	18656	4482.753079020304	2
0	18662	4484.262676398662	1
0	18667	4484.317919124234	0
0	18675	4486.243361198528	1
0	18678	4486.783610255713	0
0	18746	4496.449446969974	1
0	18748	4497.363453647293	2
0	18749	4498.520885057197	1
0	18754	4498.595588170824	0
0	18793	4519.196078215344	1
0	18796	4520.009804374765	0
0	18805	4521.228759590225	1
0	18811	4524.096799124918	0
0	18819	4524.642648357488	1
0	18821	4525.780348937686	2
0	18822	4526.663718108946	1
0	18827	4526.809945344484	0
0	18859	4532.682774010193	1
0	18866	4536.317937967413	2
0	18873	4537.132583475739	3
0	18875	4537.350539567136	4
0	18876	4537.38737048772	3
0	18881	4538.321712459715	2
0	18889	4539.316771395948	1
0	18898	4542.368646791536	0
0	18925	4546.807231864486	1
0	18927	4546.914158105315	2
0	18930	4547.960949742065	1
0	18935	4548.604252578572	0
0	18944	4549.02371550089	1
0	18949	4551.476551207168	2
0	18951	4552.485665275916	1
0	18956	4552.675002931005	0
0	18972	4556.57167806597	1
0	18975	4561.584635134761	0
0	18982	4565.297934397651	1
0	18984	4566.008288090621	0
0	19003	4571.29293304738	1
0	19007	4573.823139500268	2
0	19015	4576.021595490263	3
0	19016	4577.069818554065	2
0	19021	4577.160152203878	1
0	19027	4578.207093123272	0
0	19033	4579.490345767304	1
0	19035	4579.585349852397	2
0	19037	4580.484158115862	3
0	19038	4580.516701319982	2
0	19045	4582.294841494057	3
0	19048	4582.939817675138	4
0	19050	4583.031274161334	5
0	19056	4586.673173531277	4
0	19061	4586.928449665603	3
0	19067	4587.209535582703	2
0	19076	4588.937584172787	1
0	19082	4590.090509012813	0
0	19101	4592.926397923371	1
0	19102	4593.169815867371	0
0	19126	4596.721600525475	1
0	19130	4597.17333533232	2
0	19131	4598.179833422568	1
0	19140	4598.521117909763	0
0	19166	4602.395436630624	1
0	19170	4605.076228958288	2
0	19171	4605.420116024738	1
0	19176	4605.589610144443	0
0	19201	4610.133279186622	1
0	19202	4612.66803806127	0
0	19220	4616.816144914402	1
0	19222	4618.562121337176	0
0	19229	4619.060856580093	1
0	19231	4620.360294699187	0
0	19238	4623.119370682872	1
0	19239	4623.386088781253	0
0	19252	4625.067766662874	1
0	19253	4625.084348872941	0
0	19301	4641.466067497741	1
0	19303	4642.309754781099	2
0	19304	4643.462860727567	1
0	19309	4643.691541505099	0
0	19348	4652.115624463739	1
0	19351	4653.823639768641	2
0	19353	4654.155339615465	1
0	19360	4655.694552275043	0
0	19372	4657.65165978878	1
0	19376	4659.57500465961	0
0	19415	4675.692276070581	1
0	19416	4675.811681148099	0
0	19422	4676.862905658676	1
0	19424	4677.343970290051	0
0	19446	4686.737544062672	1
0	19448	4687.050978197219	0
0	19464	4688.612559436774	1
0	19465	4688.690092992872	0
0	19503	4699.821971283424	1
0	19509	4700.851199266018	0
0	19539	4707.743348962391	1
0	19540	4708.32419055721	0
0	19559	4716.30826416285	1
0	19560	4716.77909146184	0
0	19589	4721.411501115953	1
0	19595	4722.459126048591	2
0	19596	4722.621826678876	1
0	19602	4724.046157336074	2
0	19604	4724.410067891159	1
0	19609	4724.822461993021	0
0	19647	4732.580559716301	1
0	19651	4733.263406526611	2
0	19653	4734.371220105142	3
0	19654	4735.76153491059	2
0	19660	4736.474695755711	3
0	19661	4737.895175674236	2
0	19666	4738.254377545667	1
0	19671	4738.400463454335	0
0	19700	4749.945717767605	1
0	19701	4750.122245267927	0
0	19714	4751.484250456108	1
0	19721	4753.48422438672	0
0	19731	4756.834681101353	1
0	19733	4757.450403435339	2
0	19737	4760.762401041436	3
0	19738	4761.07490143304	2
0	19745	4762.621389476369	3
0	19746	4764.395013899172	2
0	19751	4764.436481020183	1
0	19757	4764.446711373149	2
0	19758	4764.696628829978	1
0	19763	4764.791652653821	0
0	19779	4767.229793841858	1
0	19782	4768.03743952999	0
0	19813	4776.555852843548	1
0	19817	4777.211986175812	2
0	19820	4779.331470623196	1
0	19826	4779.522678405456	2
0	19828	4782.469877730037	1
0	19836	4783.942388879393	2
0	19838	4784.566013314316	3
0	19839	4784.646065936102	2
0	19844	4785.107703875955	1
0	19849	4785.288067528048	0
0	19866	4786.71451040595	1
0	19872	4792.607889808741	0
0	19882	4794.243818697635	1
0	19885	4794.842994381451	0
0	19903	4796.612089882072	1
0	19906	4797.594854127269	2
0	19908	4798.060751460309	3
0	19909	4798.177680502745	2
0	19914	4798.362988489526	1
0	19919	4798.896724062788	0
0	19933	4801.148392042491	1
0	19938	4801.868104833974	0
0	19944	4802.021464417136	1
0	19945	4802.47410088095	0
0	19966	4803.546629796387	1
0	19968	4804.317266804776	0
0	19990	4808.605371624954	1
0	19993	4809.470968197153	2
0	19995	4809.612056245886	3
0	19997	4810.443644672251	4
0	19999	4810.534138081038	5
0	20001	4812.032472587333	6
0	20004	4815.847191944987	5
0	20010	4822.072651552524	4
0	20015	4822.311742583137	3
0	20020	4822.359002985437	2
0	20026	4823.983295743174	1
0	20031	4824.243488653853	0
0	20060	4828.427523317183	1
0	20062	4829.413638682002	2
0	20063	4831.6912478143	1
0	20071	4832.275773599402	2
0	20072	4832.319890847926	1
0	20078	4832.692209147339	0
0	20099	4837.336366107829	1
0	20100	4837.427890499495	0
0	20114	4839.182207951288	1
0	20116	4843.647575596081	2
0	20120	4845.6834885699	1
0	20125	4845.708723356751	0
0	20139	4848.229792931703	1
0	20141	4848.749760477109	2
0	20147	4851.972721630659	1
0	20152	4852.31856045637	0
0	20188	4860.67719704583	1
0	20189	4861.054096967957	0
0	20213	4865.8796452906	1
0	20214	4866.016824945864	0
0	20284	4887.566927740202	1
0	20286	4888.318077249682	2
0	20288	4889.155900819041	3
0	20289	4889.252496077813	2
0	20296	4889.84416659944	3
0	20297	4889.904433480892	2
0	20304	4891.672939177828	3
0	20306	4893.466565823521	2
0	20311	4894.321445169909	1
0	20316	4894.524963931114	0
0	20322	4894.690211236459	1
0	20323	4894.841689693206	0
0	20365	4903.369175017658	1
0	20366	4903.40326562451	0
0	20379	4905.341848201943	1
0	20380	4905.444109604783	0
0	20440	4919.628177172322	1
0	20443	4920.248216400373	0
0	20449	4920.455314462197	1
0	20450	4921.48465966699	0
0	20474	4927.952021385946	1
0	20476	4928.235658897693	2
0	20480	4928.883291923902	3
0	20482	4929.238634097005	4
0	20484	4929.263330660921	5
0	20487	4931.132667023876	6
0	20488	4931.382047609768	5
0	20494	4932.514242331271	6
0	20498	4934.063649491827	7
0	20499	4934.367223411851	6
0	20506	4934.636915958621	7
0	20508	4934.77875077023	8
0	20509	4934.901252942642	7
0	20515	4936.705268466577	6
0	20520	4937.344399849784	5
0	20527	4939.743483952155	4
0	20535	4940.956902349681	3
0	20540	4941.381310129916	2
0	20545	4942.081468505008	1
0	20551	4943.170774980154	2
0	20558	4947.629137578632	1
0	20564	4948.408349276623	0
0	20578	4950.748451422685	1
0	20581	4952.121829797123	0
0	20600	4954.72573315752	1
0	20603	4956.134531548508	2
0	20606	4956.836694169378	3
0	20607	4958.540645146205	2
0	20612	4958.626662516892	1
0	20618	4959.061921982572	2
0	20621	4959.991834834438	3
0	20623	4960.113512208012	2
0	20628	4960.417339391953	1
0	20636	4963.582833865401	2
0	20637	4963.58301456856	1
0	20644	4964.499259157899	0
0	20658	4968.817408053378	1
0	20661	4969.079506947295	0
0	20667	4969.979681832587	1
0	20668	4971.029657810588	0
0	20672	4971.058181064869	1
0	20677	4971.679470166791	0
0	20688	4973.832248675854	1
0	20689	4974.297707309187	0
0	20709	4980.15871750325	1
0	20711	4982.390373984843	2
0	20713	4982.707848256336	3
0	20714	4982.767953198722	2
0	20719	4983.193105836789	1
0	20727	4983.57880853689	2
0	20729	4984.158590060952	1
0	20735	4984.335924208205	2
0	20737	4984.415878241744	3
0	20739	4985.508341270847	2
0	20744	4986.805015632579	1
0	20750	4986.927867279979	2
0	20751	4987.099971769407	1
0	20757	4987.436828215992	0
0	20789	4994.230897266067	1
0	20791	4994.738260394335	2
0	20797	4995.470963469172	1
0	20802	4995.766025769493	0
0	20831	5000.243747184167	1
0	20832	5000.448627144481	0
0	20839	5000.621969077562	1
0	20841	5001.099120910377	0
0	20854	5002.470649391412	1
0	20855	5002.565695550917	0
0	20861	5003.086265966074	1
0	20862	5003.145517064357	0
0	20868	5003.161247853812	1
0	20873	5003.607476030229	0
0	20893	5006.396984179567	1
0	20898	5008.284868835435	2
0	20902	5009.127223076193	3
0	20903	5009.428065811434	2
0	20908	5009.553646414339	1
0	20913	5009.743226055732	0
0	20919	5010.547313862298	1
0	20924	5011.701697187088	0
0	20947	5016.758861216854	1
0	20952	5018.013323029852	0
0	20958	5018.232094990003	1
0	20959	5018.525795241889	0
0	20973	5019.955510100011	1
0	20977	5020.907850092893	2
0	20978	5021.42848422664	1
0	20984	5021.649195051305	2
0	20985	5021.730463453478	1
0	20991	5024.447531033653	2
0	20994	5026.315588296437	3
0	20995	5026.512434415949	2
0	21002	5027.310550436147	1
0	21010	5029.790779000421	0
0	21022	5031.720924110313	1
0	21023	5031.871307525762	0
0	21029	5032.045346244365	1
0	21033	5033.210300665115	2
0	21036	5033.578510011047	3
0	21037	5034.718111828262	2
0	21044	5035.761407863842	1
0	21051	5037.157494930997	2
0	21053	5037.452463580531	1
0	21058	5038.910172953705	0
0	21082	5043.767054466095	1
0	21083	5044.100730662002	0
0	21097	5047.744794130549	1
0	21100	5048.879712930295	2
0	21101	5049.495131154254	1
0	21108	5050.440209751801	0
0	21121	5052.020355996722	1
0	21123	5052.507846822247	0
0	21129	5053.479162860318	1
0	21133	5053.776957443982	2
0	21134	5054.071112474535	1
0	21140	5054.355436044619	2
0	21141	5056.034796933809	1
0	21146	5056.233298159956	0
0	21198	5066.24928257017	1
0	21200	5068.01111192785	0
0	21224	5077.545012010342	1
0	21225	5077.912798568058	0
0	21247	5082.952427748411	1
0	21248	5084.843248127572	0
0	21264	5088.352635554266	1
0	21265	5088.415219266142	0
0	21350	5110.693610333551	1
0	21354	5110.908363245043	2
0	21355	5111.333265177123	1
0	21360	5111.520357345713	0
0	21372	5112.326407666139	1
0	21373	5112.327237942874	0
0	21402	5117.151423514301	1
0	21405	5118.640410316455	0
0	21413	5119.447780898733	1
0	21415	5120.615377098716	0
0	21445	5129.374354779609	1
0	21447	5129.952685467556	2
0	21448	5130.020875552833	1
0	21453	5132.079091557801	0
0	21505	5141.833908070567	1
0	21506	5141.865239243611	0
0	21513	5142.044793382628	1
0	21518	5145.080669275788	2
0	21520	5145.385600594015	3
0	21522	5145.764092248825	4
0	21523	5146.07701339233	3
0	21528	5146.275014976452	2
0	21533	5146.307545087772	1
0	21542	5147.848822957005	0
0	21559	5153.285704202446	1
0	21569	5156.023067084137	0
0	21599	5159.665108073145	1
0	21601	5160.504327330659	2
0	21603	5161.973453457559	1
0	21609	5162.614572379739	2
0	21612	5164.168258537302	1
0	21619	5168.131248450754	2
0	21620	5168.281657268279	1
0	21626	5168.414442242676	2
0	21630	5172.237797859403	1
0	21635	5172.537763078664	0
0	21652	5175.121857756904	1
0	21654	5175.367777819281	2
0	21656	5175.775749675121	1
0	21665	5177.693229257701	0
0	21706	5188.808599836503	1
0	21708	5189.446172699256	2
0	21709	5189.840796010628	1
0	21715	5190.171152092163	0
0	21732	5191.731377060466	1
0	21733	5192.922949016079	0
0	21749	5195.123747194379	1
0	21750	5195.727777472815	0
0	21796	5213.510778521767	1
0	21797	5213.939823404808	0
0	21801	5214.221824083823	1
0	21807	5216.610534314316	0
0	21813	5216.762130662955	1
0	21814	5217.34298695983	0
0	21818	5218.536815293751	1
0	21820	5219.009055116211	2
0	21822	5219.247161531454	3
0	21827	5220.975481368915	2
0	21833	5221.640671768924	1
0	21842	5222.779595981402	0
0	21848	5224.007206127537	1
0	21851	5224.782778501793	0
0	21867	5229.048109463677	1
0	21868	5230.207867759011	0
0	21884	5232.355604226087	1
0	21886	5232.651808573361	0
0	21921	5243.186775945658	1
0	21922	5243.839764741612	0
0	21935	5245.580103717335	1
0	21936	5247.034031820582	0
0	22018	5271.867128676307	1
0	22019	5272.304106472043	0
0	22025	5273.031363243863	1
0	22027	5273.421997823972	2
0	22029	5274.134711564663	3
0	22031	5275.834527357751	2
0	22036	5276.164225103381	1
0	22041	5276.793414043507	0
0	22065	5279.432758238424	1
0	22067	5279.481548980566	2
0	22073	5280.331678275825	1
0	22078	5280.436164229349	0
0	22085	5282.837072002557	1
0	22086	5282.964997244061	0
0	22095	5284.902331444862	1
0	22096	5286.482452737092	0
0	22120	5291.598074749855	1
0	22122	5291.909239997619	2
0	22125	5294.927134624063	1
0	22130	5295.012292544974	0
0	22139	5295.497754111871	1
0	22142	5297.505781988587	0
0	22170	5302.66187402492	1
0	22172	5303.614013238394	2
0	22176	5305.323049739371	1
0	22183	5306.552896482937	2
0	22186	5308.31698129621	1
0	22197	5309.499039176097	2
0	22198	5310.105442633463	1
0	22203	5310.884468296522	0
0	22211	5312.394069515615	1
0	22213	5313.006269651512	0
0	22237	5315.963090114587	1
0	22239	5316.281942394732	2
0	22241	5316.459755209028	3
0	22243	5316.670598868235	4
0	22244	5316.909872311822	3
0	22250	5316.910097972961	4
0	22253	5318.583895547788	3
0	22259	5319.599437777559	4
0	22261	5320.304812984346	3
0	22266	5320.725587370596	2
0	22272	5321.714615515906	1
0	22279	5323.647119620799	2
0	22281	5323.976138677371	3
0	22282	5326.00460439009	2
0	22290	5326.439969601527	3
0	22292	5327.137048915127	2
0	22297	5327.297100734641	1
0	22304	5328.098665653718	0
0	22311	5328.544126192748	1
0	22312	5328.851865531434	0
0	22338	5331.941091319998	1
0	22340	5332.599051452931	0
0	22350	5333.104820370401	1
0	22351	5334.040227068328	0
0	22398	5346.437720860826	1
0	22401	5347.767742191153	0
0	22409	5348.755076280606	1
0	22410	5348.802773965119	0
0	22419	5351.377401704521	1
0	22421	5351.628704584402	2
0	22428	5352.775511715619	3
0	22434	5354.658523329714	2
0	22439	5354.949932149923	1
0	22447	5355.460823696763	0
0	22457	5358.583499713658	1
0	22460	5360.091768841687	2
0	22461	5360.349018548777	1
0	22466	5360.827534461	0
0	22503	5368.206931617793	1
0	22509	5369.552724683633	2
0	22510	5369.919109396662	1
0	22517	5370.230305211467	2
0	22521	5371.454933329719	3
0	22524	5373.025873618923	4
0	22525	5374.181340886081	3
0	22532	5376.7393779158	2
0	22537	5377.725515261313	1
0	22546	5380.283135290521	0
0	22566	5382.736585912296	1
0	22567	5382.793062848025	0
0	22582	5385.010389197908	1
0	22585	5386.947694879311	0
0	22603	5390.031682766966	1
0	22604	5390.23245354194	0
0	22618	5393.599700926812	1
0	22619	5393.642671789929	0
0	22640	5399.696748716264	1
0	22643	5400.512904189873	2
0	22646	5402.250089269403	1
0	22651	5402.355943583862	0
0	22664	5407.251895565106	1
0	22666	5407.647061712847	2
0	22667	5407.891791122833	1
0	22677	5409.860865347699	0
0	22689	5410.296514844358	1
0	22691	5410.666899731498	2
0	22692	5410.724120867578	1
0	22697	5411.438359864904	0
0	22707	5413.336275025375	1
0	22710	5414.100171607412	2
0	22716	5417.456423541669	1
0	22721	5417.490831552079	0
0	22729	5418.421546764641	1
0	22730	5418.744563862719	0
0	22736	5418.953973977751	1
0	22738	5419.475349302971	0
0	22750	5421.333972981988	1
0	22752	5423.127481223054	2
0	22754	5423.409003136892	3
0	22755	5423.433906934977	2
0	22760	5423.623712468613	1
0	22768	5424.708923889026	0
0	22790	5428.170433457238	1
0	22791	5430.432092461534	0
0	22809	5432.631871612103	1
0	22811	5433.163001874377	2
0	22812	5433.477111906251	1
0	22818	5433.628255919218	2
0	22819	5435.089109502171	1
0	22825	5435.142110565467	2
0	22827	5436.153446243651	1
0	22836	5438.094326519078	0
0	22853	5439.134266965595	1
0	22857	5441.526964607677	0
0	22873	5442.125767754935	1
0	22877	5443.522836518924	0
0	22902	5446.555298365348	1
0	22903	5446.881935943278	0
0	22921	5451.198229115687	1
0	22924	5455.150240492483	0
0	22935	5456.158048518018	1
0	22936	5456.378736584206	0
0	22961	5465.085115331759	1
0	22964	5466.003138144068	0
0	22994	5470.412425379725	1
0	22995	5470.566099980444	0
0	23012	5472.738939427755	1
0	23014	5473.185960807132	2
0	23016	5473.236581139244	3
0	23029	5478.311480819546	2
0	23034	5479.150873492129	1
0	23039	5479.736714238617	0
0	23050	5481.159412735884	1
0	23052	5481.513248030187	2
0	23055	5482.027527802777	1
0	23060	5482.113186523011	0
0	23066	5484.722383702936	1
0	23067	5484.756104614681	0
0	23071	5486.335705724049	1
0	23076	5489.212771420256	0
0	23080	5489.871910764669	1
0	23083	5491.263169771464	0
0	23093	5495.508511469213	1
0	23094	5495.594036029251	0
0	23116	5498.809946726978	1
0	23124	5502.462035086622	2
0	23126	5502.647974605247	1
0	23133	5505.683774335978	0
0	23163	5510.761314098676	1
0	23164	5511.688609716367	0
0	23192	5514.903486754973	1
0	23200	5516.694936631809	0
0	23216	5517.699846311392	1
0	23220	5518.503210198139	2
0	23221	5518.988024089622	1
0	23228	5519.579312018721	0
0	23240	5523.556669418944	1
0	23242	5523.839157133768	2
0	23250	5526.675515993687	3
0	23252	5528.646099111836	4
0	23253	5529.663322569771	3
0	23258	5530.056737807892	2
0	23265	5530.592552655465	3
0	23267	5531.27739035877	2
0	23272	5531.939363821355	1
0	23278	5532.30942311951	0
0	23289	5533.0619508993	1
0	23290	5533.137980355296	0
0	23297	5534.706880835062	1
0	23302	5535.898178420666	2
0	23305	5536.597299170776	1
0	23312	5536.790663848889	0
0	23328	5538.27355209206	1
0	23333	5538.939985379475	2
0	23334	5539.131987859983	1
0	23342	5539.853963826914	0
0	23360	5542.819897871048	1
0	23361	5543.211215008399	0
0	23372	5544.433797871211	1
0	23378	5546.141947366411	2
0	23386	5549.020991307933	3
0	23388	5549.078918177124	2
0	23393	5550.378640942092	1
0	23399	5550.425799212492	2
0	23401	5551.041430679313	1
0	23412	5553.235063810785	2
0	23413	5553.361960841714	1
0	23420	5553.396163841527	2
0	23421	5553.503942339397	1
0	23428	5554.563334853447	2
0	23432	5555.671082259483	3
0	23433	5556.426014828405	2
0	23439	5556.526315187416	3
0	23441	5557.636892272934	2
0	23447	5557.901866958619	3
0	23449	5558.579138824541	2
0	23454	5558.997645308845	1
0	23463	5561.008472511869	2
0	23464	5561.737910393572	1
0	23470	5561.791512214152	2
0	23473	5563.600946311212	1
0	23480	5564.60549098685	0
0	23486	5564.727071212568	1
0	23487	5564.840138489644	0
0	23527	5569.380405405623	1
0	23528	5569.823360587033	0
0	23542	5572.816479031766	1
0	23543	5575.319123543458	0
0	23550	5576.155433690389	1
0	23554	5579.828591094065	2
0	23557	5582.463333923617	1
0	23570	5584.804074421147	0
0	23591	5589.836284200646	1
0	23592	5590.048913221409	0
0	23598	5593.903172534794	1
0	23599	5593.966808038593	0
0	23606	5595.134443439203	1
0	23607	5596.137406897076	0
0	23640	5603.641634850795	1
0	23642	5603.794738725389	2
0	23644	5604.242465722475	3
0	23649	5607.453301735613	2
0	23654	5607.84018161456	1
0	23659	5608.047854805407	0
0	23666	5609.178313278204	1
0	23667	5609.458410574254	0
0	23675	5611.171542254885	1
0	23677	5612.186035985033	0
0	23696	5613.521021527022	1
0	23699	5615.392556272637	2
0	23703	5615.5991326358	3
0	23706	5616.173118237214	4
0	23707	5616.225423720963	3
0	23712	5616.299000542646	2
0	23718	5617.438694120951	1
0	23723	5617.800370119132	0
0	23744	5623.223113386935	1
0	23745	5623.351955344697	0
0	23759	5625.873432829794	1
0	23761	5626.252157762161	2
0	23763	5628.024082503652	3
0	23767	5629.308483427289	2
0	23773	5630.255688900342	1
0	23781	5632.278688734894	2
0	23783	5633.588578929106	3
0	23785	5635.420043953263	2
0	23796	5636.909944105155	3
0	23798	5638.566623835488	2
0	23805	5639.05187377273	1
0	23814	5640.154823954287	2
0	23818	5641.854456509173	1
0	23827	5642.765393989798	2
0	23830	5644.211313333397	1
0	23835	5644.30398296162	0
0	23852	5646.590414914811	1
0	23854	5646.839001483909	2
0	23855	5647.320530412533	1
0	23861	5649.023599017344	2
0	23863	5650.920040117152	1
0	23868	5653.016351252316	0
0	23890	5654.535895711472	1
0	23894	5656.594921255627	2
0	23895	5656.765345703478	1
0	23900	5657.100852258539	0
0	23921	5661.20034558051	1
0	23924	5662.407745873011	2
0	23925	5662.633762696714	1
0	23931	5662.684557823963	2
0	23934	5664.303574514932	1
0	23939	5666.491827872731	0
0	23969	5671.847899809587	1
0	23972	5674.352343691403	0
0	23979	5674.608014787168	1
0	23980	5675.223411135899	0
0	23991	5678.354212620029	1
0	23993	5678.596394238743	2
0	23996	5679.691933431923	1
0	24003	5680.5644800911	2
0	24005	5680.918438288632	3
0	24006	5681.287275507883	2
0	24013	5682.411978529969	1
0	24019	5682.479597889353	0
0	24030	5684.113940785339	1
0	24034	5686.003540920913	0
0	24058	5689.048244511095	1
0	24060	5689.468752415657	2
0	24062	5689.963882416491	3
0	24063	5690.33682022348	2
0	24069	5692.204756133082	1
0	24075	5692.312082387761	0
0	24088	5694.581001323959	1
0	24091	5696.843068829158	0
0	24118	5701.987837755224	1
0	24119	5702.22124315883	0
0	24125	5702.680517126353	1
0	24129	5704.181734797282	0
0	24136	5705.321512950722	1
0	24137	5705.952881411226	0
0	24154	5708.438295705106	1
0	24155	5709.6485515077	0
0	24185	5714.812404013572	1
0	24186	5717.630570618863	0
0	24192	5717.875733962454	1
0	24194	5717.91434481813	2
0	24196	5718.629796860384	1
0	24201	5718.76190306661	0
0	24207	5718.895008578783	1
0	24210	5719.089596483547	2
0	24212	5720.190519377213	1
0	24218	5721.397616013888	0
0	24226	5721.621312107842	1
0	24227	5721.957052311776	0
0	24233	5722.426138988289	1
0	24236	5722.723114136725	2
0	24239	5723.300151866831	1
0	24245	5724.099127077344	0
0	24288	5734.540819953946	1
0	24289	5734.727389806106	0
0	24295	5735.271345792933	1
0	24296	5735.281604193118	0
0	24305	5736.498869759595	1
0	24306	5737.594469452542	0
0	24342	5750.921955351154	1
0	24344	5751.262103625651	2
0	24347	5752.230677362758	1
0	24352	5752.575974904048	0
0	24378	5756.097725733147	1
0	24379	5757.297986785678	0
0	24395	5759.8912134528	1
0	24396	5761.632706505155	0
0	24407	5763.001828449604	1
0	24410	5763.791169662411	0
0	24416	5763.973811969635	1
0	24417	5764.170618929972	0
0	24466	5772.894100974962	1
0	24467	5772.926844121518	0
0	24483	5774.521107770896	1
0	24485	5775.035956411224	2
0	24486	5775.214489155382	1
0	24492	5775.361039371006	2
0	24496	5775.634739376189	3
0	24497	5775.7421006004	2
0	24507	5777.166063298002	3
0	24512	5778.728792877665	2
0	24520	5780.713309695632	1
[...]
5	115836	27723.710034787139	0.234010771117
5	115863	27726.007642777918	1.016295929837
5	115915	27739.027178452688	10.700903217674
5	115927	27739.851925991106	8.243663384788
5	115935	27741.092357547163	7.137212989558
5	115950	27744.99077981659	5.61519032597
5	115957	27745.600615027962	1.385640394171
5	115991	27752.621556121789	3.227634610306
5	116006	27757.303562983881	5.214037217711
5	116011	27757.320280150867	3.335482022654
5	116019	27759.033690784386	4.942143152911
5	116039	27767.752670781037	6.963031134024
5	116068	27771.113419934657	2.100001575892
5	116082	27773.799749755289	4.375616551129
5	116107	27780.077945981061	5.652938787769
5	116125	27783.894032176342	9.266768466692
5	116142	27785.63030710141	9.832833315406
5	116154	27790.610663277057	6.18708849458
5	116163	27793.422825089712	3.468850294795
5	116174	27806.641113760836	5.881352508845
5	116201	27809.111898237678	1.117586321438
5	116219	27815.170727047793	5.559829674528
5	116243	27823.367453239333	13.057861781035
5	116270	27828.167082028781	16.433442931904
5	116278	27829.120991948644	11.780914580479
5	116285	27829.859946395508	8.564209945989
5	116290	27830.337452952487	1.23431656567
5	116294	27831.654210722969	2.140824124328
5	116332	27840.820652235679	2.286251951524
5	116338	27841.070672597237	2.420612363114
5	116342	27842.963356629687	4.281331307738
5	116364	27850.339022529101	2.489205005383
5	116412	27857.513465670303	9.207227063949
5	116417	27857.847639443127	9.263051887167
5	116429	27860.113180969479	7.430763125617
5	116455	27866.504189944221	13.176377317793
5	116466	27868.013596527322	14.253529211802
5	116494	27871.40616404808	13.541083140315
5	116503	27872.643960163494	11.801772378726
5	116508	27873.384035516696	6.031545018514
5	116520	27876.118142295809	7.963024727785
5	116536	27877.197674707985	7.545999671599
5	116544	27878.363486757521	2.776461230039
5	116574	27883.212248694004	0.71564641037
5	116581	27883.915130834778	1.204467055683
5	116623	27898.15790749134	1.675887365441
5	116663	27906.479113595773	9.777894947114
5	116668	27909.47644070263	10.070147686639
5	116678	27910.280369353639	7.832169240072
5	116693	27914.839610530479	5.350501404484
5	116739	27920.953909583889	10.442860720831
5	116757	27923.918584309846	7.3634454446
5	116786	27927.995328625732	9.750144961336
5	116793	27929.241873370639	10.681466297726
5	116803	27930.35318597677	4.996777939681
5	116814	27933.025633012463	7.048695615156
5	116830	27934.615427357063	2.475894258632
5	116861	27937.581534346439	3.762166260304
5	116866	27937.588237079729	3.556307847589
5	116874	27941.01535383362	6.302387248954
5	116896	27948.709831410832	13.255321706419
5	116906	27950.314693740835	1.298889329195
5	116910	27950.915479150913	1.452750500134
5	116922	27953.443885275771	1.49887439237
5	116927	27954.165937007532	2.179268194423
5	116936	27956.08248730356	3.247227610659
5	116945	27957.161595613679	1.327643379918
5	116977	27961.589755352897	5.702484998537
5	116989	27964.575632098936	6.899873441998
5	117002	27967.492214963365	6.712513319575
5	117023	27968.69760980719	7.794261763764
5	117030	27969.930692852996	1.638212961869
5	117035	27970.647348215272	1.410196860346
5	117127	27993.186019997641	11.872166270401
5	117132	27993.937228603611	10.202252016655
5	117137	27996.678436265645	10.981997895268
5	117145	28000.623472855592	7.4476541583
5	117149	28001.15140791954	3.651169622171
5	117163	28007.46057147589	3.912121017987
5	117172	28011.816264645705	8.109838357138
5	117183	28013.237414531443	7.116462427485
5	117190	28018.45892589005	11.096641425389
5	117194	28019.948264671654	8.603587270234
5	117209	28024.484461642568	2.832099720836
5	117224	28028.462763814341	2.867066308322
5	117276	28036.432007125561	2.497565306658
5	117280	28037.291872152336	2.340567980169
5	117290	28043.266865014221	0.381616917741
5	117321	28058.44275490338	0.956858071507
5	117351	28070.017522559862	5.123585900042
5	117361	28072.104591517542	5.871739967666
5	117376	28077.08569003609	0.534181205965
5	117388	28080.617107721883	1.29278596036
5	117408	28084.647331602538	5.152431166019
5	117419	28090.726118475018	6.783286511394
5	117456	28096.607406739649	2.431839950551
5	117465	28101.554712086277	5.314360540784
5	117476	28104.754383621895	7.533730079025
5	117493	28107.410467377496	6.836251523292
5	117497	28108.288955834517	5.506235110283
5	117527	28117.179967615775	5.623377628981
5	117543	28119.829657553602	6.669334623989
5	117569	28131.200234121496	4.723527989394
5	117584	28135.167035236794	1.116331741736
5	117596	28141.527135659541	6.967011491885
5	117617	28145.44181627941	8.568042096747
5	117660	28149.467854220154	10.278265576031
5	117677	28152.589786918257	8.84823803353
5	117690	28154.244820689988	10.294526195549
5	117711	28158.892068388221	8.532593012144
5	117746	28171.742080267246	1.65178456708
5	117755	28173.425832574024	2.75949974922
5	117775	28176.796488290667	2.558517700784
5	117822	28183.522401974884	5.494748575385
5	117829	28184.369220259747	4.043251997787
5	117875	28190.714775236715	1.355629958346
5	117884	28192.695879787817	2.370649121463
5	117915	28197.429534169807	1.006501918141
5	117932	28199.334284670858	0.331820787642
5	117962	28203.564525582227	1.318754033005
5	117977	28208.858991840523	4.182379009731
5	118037	28220.103722781294	1.365396458088
5	118071	28225.393410807942	2.992557505323
5	118084	28231.046158908521	7.353112629579
5	118241	28252.726825638091	16.397432903009
5	118246	28252.749219301113	14.685357240642
5	118251	28253.527110756551	15.201019712329
5	118257	28255.76696348403	12.085002642179
5	118262	28256.082564398069	11.573141537239
5	118268	28257.489090635166	7.142239553908
5	118279	28261.761983900258	9.449743207233
5	118308	28267.521051917797	6.343207682644
5	118313	28269.435451070718	4.315304362587
5	118317	28269.541144196958	4.022145464515
5	118324	28272.875418125176	2.048005336746
5	118352	28295.722602835646	2.455353203831
5	118371	28299.570382529639	3.475758907895
5	118380	28299.924363741575	0.633572799531
5	118410	28302.488727204581	2.382177559714
5	118424	28303.027835023193	0.470340874525
5	118532	28322.674670151273	14.307324193624
5	118541	28324.638289907462	16.12297683294
5	118549	28326.113645352524	16.524228696166
5	118554	28326.891527792841	6.454519780032
5	118561	28327.850421888379	5.273748539663
5	118566	28329.258501334782	6.164969338157
5	118573	28330.563488186763	4.992546492955
5	118590	28339.612676500699	12.304071379918
5	118606	28341.554340293389	5.346105474852
5	118624	28349.581700956563	0.440958596248
5	118644	28354.91377897467	1.137002041038
5	118678	28364.389772940792	4.638625476675
5	118742	28384.576562090456	5.884269720992
5	118751	28387.931764263031	7.789996106649
5	118770	28390.69991373189	6.313422972597
5	118801	28396.714121961995	9.902095378701
5	118808	28397.875218876896	8.777617621268
5	118835	28402.358483143919	13.229616529372
5	118850	28407.384573961999	17.604463878995
5	118906	28413.40153281701	18.901099924922
5	118915	28416.985744972781	15.542419195958
5	118925	28420.576341731596	0.264030199777
5	118935	28422.099391613642	1.145225847605
5	119004	28434.934395761152	3.913783285077
5	119011	28435.107805325305	0.069702169069
5	119032	28442.721022806125	4.192590714271
5	119037	28443.040429741794	3.819025559404
5	119044	28444.129851987978	1.748826127745
5	119064	28452.55766082456	6.227433200037
5	119083	28454.977700465836	8.637719585498
5	119090	28456.54996536109	8.617283601936
5	119114	28460.622928325758	10.888407867526
5	119119	28461.334300967251	8.323750020216
5	119133	28464.202784743629	2.689301381043
5	119142	28468.064343267931	0.612968382417
5	119180	28483.670689594997	6.868677315131
5	119215	28489.845409806191	12.479155283536
5	119222	28490.879384564215	12.31384614794
5	119232	28496.294237894797	10.516095089322
5	119253	28499.634131221777	3.136376848579
5	119287	28508.694271426082	2.259272198001
5	119292	28511.033250017388	3.855825801066
5	119300	28511.806119021235	0.375051988887
5	119319	28515.158597705309	0.131800272039
5	119334	28519.552697967446	0.337875556204
5	119361	28522.66869699896	0.93660078887
5	119366	28523.607708656528	1.21735988594
5	119376	28524.587610497806	0.652783788288
5	119380	28524.773301192481	0.303340885153
5	119394	28527.701155406215	0.738346775478
5	119433	28533.859101975892	0.443925035669
5	119552	28562.134636922463	17.052561269324
5	119605	28572.710343975479	24.022284030071
5	119627	28575.186075520389	22.603520328543
5	119639	28575.93952990162	15.44559272473
5	119669	28579.29943473075	16.758819364227
5	119684	28585.388255850019	22.795369267875
5	119689	28586.137120481332	22.933229572347
5	119694	28586.446533870319	22.824995810327
5	119705	28589.854063870971	5.658587734474
5	119724	28593.459885032323	6.559269907016
5	119734	28595.362934851713	7.437726252755
5	119748	28598.13910848994	7.493602010514
5	119785	28606.679703650807	13.444889444491
5	119808	28610.625495902592	17.385475942955
5	119823	28616.314497301851	19.139389977211
5	119834	28621.076058466357	19.782110578907
5	119855	28624.620259998028	18.652974286736
5	119865	28627.613658250437	15.321360051305
5	119870	28628.204761852583	12.376644650777
5	119875	28628.695362309862	1.725259700099
5	119885	28630.370235395743	1.398823173925
5	119902	28633.616984545064	1.725147683552
5	119935	28640.279393281658	1.056467828967
5	119971	28647.44844042782	0.547066669155
5	119978	28648.677527415217	0.99030563867
5	119997	28653.042912481709	0.339961630115
5	120073	28666.663521942227	4.679562855239
5	120081	28669.051565088724	0.470953427165
5	120091	28670.636452307827	0.615932728999
5	120111	28674.522725872858	0.466548233114
5	120127	28676.741443922213	0.587099121431
5	120152	28687.105510960624	5.885522750093
5	120164	28688.75537542198	6.153159854055
5	120187	28691.444813752017	5.182640238057
5	120218	28694.467783036244	0.37407919394
5	120241	28702.173514588827	5.822264281447
5	120262	28705.786380712518	9.352624889132
5	120267	28706.382809361439	9.669383681454
5	120277	28707.976340814177	6.884450704212
5	120311	28713.284619240888	5.128241391313
5	120415	28738.802748139401	1.144710587408
5	120434	28743.750500354623	3.634483825932
5	120444	28744.978728270339	0.704395733236
5	120474	28757.83922892159	3.305214397886
5	120492	28762.438683336658	2.639991878543
5	120517	28772.46762421087	2.191820587785
5	120716	28815.523513068355	28.021853370559
5	120723	28815.953301505482	18.760506132055
5	120734	28817.605020861359	12.447277082769
5	120740	28818.414799830326	10.840466337199
5	120746	28819.922849252618	10.928466786975
5	120755	28823.395848604518	8.990924569085
5	120768	28825.66622082418	1.202123653453
5	120776	28826.415969785707	0.645242046176
5	120794	28833.382087358398	2.706073465108
5	120806	28840.544930226258	0.403381753094
5	120813	28844.260009585875	2.335745291588
5	120848	28847.698756949531	1.434449476123
5	120878	28855.02698074222	0.695745713047
5	120916	28874.596777742737	1.079240179237
5	120931	28876.693628832429	2.881046853836
5	120936	28877.460272144656	2.185731920104
5	120942	28884.207097313283	7.596928957068
5	120984	28891.572748046233	2.574942932337
5	121028	28906.185558472619	0.498529263874
5	121046	28911.852364626539	3.886755104833
5	121061	28919.373194638254	1.104532550337
5	121133	28940.351139651132	2.081630925684
5	121143	28942.38637123558	1.936243728756
5	121179	28950.919471811261	0.037949261824
5	121208	28956.055004889423	2.343812607181
5	121212	28956.123612572052	1.420120238418
5	121219	28956.882954408295	0.126752662817
5	121242	28963.431199537278	0.553876515635
5	121281	28970.088838918424	2.563207779849
5	121288	28970.660918986876	0.276957061262
5	121296	28977.354865995277	3.729299341239
5	121309	28982.504177675925	4.473468341146
5	121322	28984.175853209008	5.709144064961
5	121350	28990.164646064371	2.954374896104
5	121476	29016.331210172138	23.726519576393
5	121481	29016.498801771222	13.056392035113
5	121498	29021.167035522554	13.683872465266
5	121508	29021.653315908444	12.935487384622
5	121522	29024.913011883202	11.62011525496
5	121549	29030.287406238933	16.054054740189
5	121562	29035.233326952271	20.501840531703
5	121579	29037.107329605867	19.664665227988
5	121589	29038.000311415746	20.456371182073
5	121656	29048.53513670901	30.821273427633
5	121671	29053.591996393054	33.983520937014
5	121715	29063.419206566208	42.795989680799
5	121724	29065.105302822206	42.890509526388
5	121741	29066.15715064481	37.242235683366
5	121746	29067.706140916677	27.080513879207
5	121751	29068.94238988533	27.000212834163
5	121758	29069.635863228433	23.188285777432
5	121768	29070.670748019773	21.10154565546
5	121794	29080.170868608133	17.706768280067
5	121819	29083.629724205801	12.754507943709
5	121825	29084.753387551145	13.008650087213
5	121833	29087.148837626526	14.703631334795
5	121844	29088.611635570899	12.518281117761
5	121856	29090.816265631168	12.260325177792
5	121872	29093.672878701612	15.112033561629
5	121893	29097.240892131248	15.895188207159
5	121917	29103.713402983333	13.021079975349
5	121955	29108.793924030256	10.194823922352
5	121960	29108.953658033758	2.919845942233
5	121964	29109.798251021969	2.441211069221
5	121975	29113.80385804884	0.079440516042
5	121999	29120.068583514535	1.06701816946
5	122007	29121.895869566486	1.214034401192
5	122019	29126.262090827124	2.638016477733
5	122061	29138.501920114501	4.120435303468
5	122082	29141.424538311121	5.225901004381
5	122098	29144.609379044668	6.856714122381
5	122130	29155.352166815777	0.691818278018
5	122150	29159.158891334183	3.757275461174
5	122157	29160.206579165921	0.954127075269
5	122167	29161.94033692467	1.13900028182
5	122241	29188.1053239093	1.023131226129
5	122252	29191.931956882813	0.449651548684
5	122279	29196.643223136821	2.223001953992
5	122309	29202.733442617148	7.131772878763
5	122350	29219.164266060199	1.912701720645
5	122380	29223.033127328725	2.22447147038
5	122389	29223.787484741699	0.095310667568
5	122401	29226.105891513486	1.559664572306
5	122420	29231.96660875687	1.908675282869
5	122462	29243.019599837342	0.564573409377
5	122466	29243.042558589459	0.134647473616
5	122486	29245.809096881533	0.580418922119
5	122490	29246.371317669685	0.785205626721
5	122498	29248.787658294949	2.05530769511
5	122513	29253.920243729732	4.143897814506
5	122556	29265.370850262742	1.569145423595
5	122583	29274.114867041969	0.194724653048
5	122606	29280.635084111129	2.031120334592
5	122614	29281.715819818891	1.478539755525
5	122639	29291.893627635353	3.910812671056
5	122654	29294.750636234386	0.462537636072
5	122710	29301.189422104833	1.442193004013
5	122757	29310.331861165696	2.559886670332
5	122770	29314.256417694858	4.505868343298
5	122787	29314.892231533175	1.187033489143
5	122800	29316.34778976151	1.694761222363
5	122836	29318.923927775244	3.476849470945
5	122843	29320.023345129284	1.812353171972
5	122876	29328.452977435379	1.862202128745
5	122880	29329.753676660445	1.718066321643
5	122896	29331.843852379577	0.522671376482
5	122903	29340.370749378058	0.418398044813
5	122918	29349.617795681613	0.204680373258
5	122945	29361.75197160391	2.553835470687
5	122957	29364.465390069592	0.092826807432
5	122991	29373.902140359658	0.099431152042
5	123068	29395.839362901081	12.144530417284
5	123075	29396.295721187558	8.143881571414
5	123172	29417.158445981798	27.432510044725
5	123190	29418.39225852938	27.775772408918
5	123201	29419.287662012332	25.887625227061
5	123209	29420.338443194899	23.635484660711
5	123221	29423.033184664165	25.614228386929
5	123269	29430.07753463539	30.103073020169
5	123278	29431.763532538207	28.487278545762
5	123288	29432.518545066273	26.160988502505
5	123293	29432.787617762321	23.583176411071
5	123304	29436.473153633225	20.889069311586
5	123321	29439.417697050098	22.394976107127
5	123326	29441.532349800461	23.762371532952
5	123337	29444.373930320527	25.995204545418
5	123385	29456.813181221441	37.369638375052
5	123404	29459.96001983479	29.301004559746
5	123409	29463.122076685598	27.059078901492
5	123416	29464.731051170821	25.681197402448
5	123429	29468.873851126358	26.950341714315
5	123449	29471.200169720035	17.572661106111
5	123461	29474.597586458788	14.963903138169
5	123561	29495.504502684985	31.515993642916
5	123839	29574.783057852235	108.89906534248
5	123845	29575.920354402854	103.64634089248
5	123850	29576.057481778029	98.672636021737
5	123855	29576.838571553382	96.444689561731
5	123861	29577.494998836393	95.582176784261
5	123872	29579.989785278835	97.494674550796
5	123882	29585.501337604099	98.848647956285
5	123905	29588.728330860114	100.53011182856
5	123921	29590.808266559761	101.67099544132
5	123942	29593.293944867916	98.107475935689
5	123952	29595.62811336863	99.992065776357
5	123958	29596.906061377365	98.643790041358
5	123963	29597.065343203544	85.114002078461
5	123972	29599.078845095533	80.157916758543
5	123982	29601.228516685389	78.842284351072
5	123998	29607.457818242896	75.394571676158
5	124021	29610.320517833497	72.735898649171
5	124028	29612.072466564286	72.96146710419
5	124054	29615.912989531142	74.542843781196
5	124065	29617.402947422414	38.383974369917
5	124078	29621.526101058785	41.900223107148
5	124101	29623.257761194551	34.724785518
5	124106	29623.913457866755	35.255800843461
5	124117	29627.223575967738	36.878740927702
5	124136	29630.600867596273	37.427596144057
5	124141	29631.075993977405	36.304625225089
5	124155	29639.389812821269	43.952419576833
5	124181	29643.750849676503	45.776650187866
5	124189	29644.918418024695	41.553195623684
5	124196	29645.49842301802	41.990653715066
5	124203	29647.361382411331	37.581687784589
5	124235	29651.808764338823	39.26905709082
5	124247	29653.910587736982	32.874213729564
5	124255	29656.060992161372	31.609785711621
5	124274	29658.256983488339	17.690364494431
5	124279	29658.549346024688	16.228217803312
5	124284	29659.32681492734	14.399980754004
5	124294	29663.182866100775	15.734039353237
5	124303	29665.791277556818	15.057483216933
5	124325	29671.679586570096	9.588085130593
5	124334	29673.501302081683	10.977796657567
5	124339	29673.872113638729	8.856700972695
5	124351	29678.173359388157	10.719717704701
5	124389	29685.931467409503	18.008772547195
5	124394	29686.241132783142	14.552186419184
5	124400	29686.544524827768	12.199086717128
5	124404	29686.754227219498	2.821937485627
5	124469	29709.49301124821	0.113823748571
5	124476	29710.635607137894	0.809509770029
5	124487	29715.43170893922	1.327328762625
5	124491	29717.475800252166	3.082561355735
5	124501	29721.43816227075	3.125345851341
5	124508	29726.166033060959	5.814554691119
5	124512	29726.544512687117	3.533004454679
5	124577	29742.771008281049	11.426328105247
5	124615	29745.653891938826	13.170457382666
5	124620	29746.294396253275	8.761257068591
5	124629	29746.866915008247	7.626893609844
5	124649	29749.680928437747	5.113619941322
5	124665	29755.396107512923	10.055451951411
5	124677	29756.225513516215	3.743623288222
5	124715	29767.11874955532	1.490015307065
5	124723	29769.548015091045	0.235413798401
5	124730	29770.047005403192	0.276809689502
5	124748	29776.343948162268	0.329512202646
5	124772	29786.381349243969	2.060889112887
5	124804	29795.270156274287	2.279637424662
5	124868	29809.902193847864	2.272175313684
5	124883	29818.467061848058	0.799725589302
5	124907	29830.044869919959	6.16172325965
5	125152	29889.230132770528	45.009251534897
5	125159	29889.523755868405	39.172957922851
5	125170	29890.153990975794	38.511278588877
5	125176	29893.247623810408	38.789201100961
5	125189	29897.499280719327	41.439402903303
5	125228	29905.313017262232	35.176717653581
5	125254	29909.598178060153	36.668133965319
5	125261	29912.13920693405	36.36036707587
5	125275	29914.799473815036	34.388538005402
5	125293	29922.303040677719	41.477037727761
5	125325	29929.096042131566	35.502022469463
5	125352	29932.368487695467	37.131610027501
5	125359	29932.800100687711	20.269151581774
5	125369	29933.285245606017	20.70698646189
5	125375	29935.032930024115	16.651301024541
5	125380	29937.383010722721	16.108958912305
5	125390	29940.634064036559	3.200566285231
5	125457	29950.29680188068	6.105204298213
5	125474	29954.343340683848	1.70427755217
5	125631	29986.170060513052	29.251664639068
5	125636	29988.270188368756	31.019093707627
5	125649	29989.45171068545	30.892371570247

