version 2
run Second-n5-18-20191016-14:53:40-8688
attr configname Second-n5
attr datetime 20191016-14:53:40
attr experiment Second-n5
attr inifile omnetpp.ini
attr iterationvars ""
attr iterationvarsf ""
attr measurement ""
attr network org.omnetpp.queueing.Pizza
attr processid 8688
attr repetition 18
attr replication ""
attr resultdir results
attr runnumber 18
attr seedset 18
param **.PS.maxInventoriedPS 5
param **.U1.interArrivalTime exponential(3s)
param **.U2.interArrivalTime exponential(5s)
param **.PS.serviceTimeForInventoryU1 exponential(1.0s)
param **.PS.serviceTimeForInventoryU2 exponential(1.2s)
param **.PS.serviceTimeDirectU1 exponential(1.4s)
param **.PS.serviceTimeDirectU2 exponential(1.4s)
param **.PS.probabilityProducing 0.7
param **.CS.serviceTimeU1 exponential(1.1s)
param **.CS.serviceTimeU2 exponential(1.4s)

vector 0 Pizza.EntryQueueU1 queueLength:vector ETV
attr interpolationmode sample-hold
attr title "queue length, vector"
vector 1 Pizza.CS queueLength:vector ETV
attr interpolationmode sample-hold
attr title "queue length, vector"
vector 2 Pizza.EntryQueueU2 queueLength:vector ETV
attr interpolationmode sample-hold
attr title "queue length, vector"
vector 3 Pizza.sink lifeTime:vector ETV
attr interpolationmode none
attr title "lifetime of arrived jobs, vector"
attr unit s
vector 4 Pizza.sink lifeTimeU2:vector ETV
attr interpolationmode none
attr title "lifetime of arrived jobs, vector"
attr unit s
0	0	0	0
0	13	3.837040156412	1
0	15	3.871760488338	2
0	20	5.420969847661	1
0	28	7.162516673358	2
0	31	8.963422107919	1
0	35	10.192006838088	2
0	38	10.959047461217	1
0	45	12.89859860685	2
0	46	13.649753956257	1
0	52	14.82738764571	0
0	64	15.818306844759	1
0	65	15.944918282238	0
0	69	16.740810051293	1
0	71	18.398651938964	2
0	75	20.340882017905	3
0	76	20.35569631046	2
0	80	21.053035585511	3
0	85	23.077257255862	2
0	90	23.961826693225	1
0	96	25.726708520284	0
0	102	25.996423265276	1
0	107	26.564757365893	0
0	136	30.889007860037	1
0	137	31.552089601766	0
0	146	32.247716580916	1
0	150	35.586888146722	0
0	172	40.249034821073	1
0	173	41.036490524799	0
0	196	47.739293300878	1
0	197	49.254794716948	0
0	204	49.677760598036	1
0	205	50.021830824056	0
0	229	59.624732814144	1
0	231	60.395719396387	0
0	238	61.053648057199	1
0	239	61.400366451622	0
0	285	72.61794735204	1
0	286	73.403254260341	0
0	304	77.557354339099	1
0	305	77.6610590036	0
0	331	81.91594695446	1
0	333	81.970940100836	2
0	336	83.363464992942	3
0	338	83.751466954531	4
0	339	84.373934496763	3
0	347	86.76413894665	2
0	353	88.342523820931	1
0	359	88.461112209647	2
0	360	88.509245976174	1
0	365	88.557901826084	0
0	402	96.971057219505	1
0	403	97.232826499477	0
0	437	114.345895621997	1
0	438	115.465603014634	0
0	461	120.400096882251	1
0	463	124.345445851831	2
0	466	127.374618088535	1
0	473	130.575860159779	0
0	577	157.046645801161	1
0	578	157.578463278503	0
0	598	168.407465739115	1
0	599	169.456733253147	0
0	614	170.38994070216	1
0	615	170.395183618622	0
0	678	188.043506296982	1
0	681	188.303277940617	2
0	683	189.322511970948	3
0	684	189.785839600217	2
0	689	190.05518669355	1
0	694	190.142540239132	0
0	724	208.083413703062	1
0	727	209.259518487872	0
0	741	211.963970060831	1
0	743	212.964084801848	0
0	757	214.461330571914	1
0	758	215.760960802732	0
0	767	217.748635861421	1
0	768	217.775045555825	0
0	835	246.63759487263	1
0	837	247.286880104155	2
0	838	248.277441555376	1
0	844	249.679278594113	0
0	851	249.864292840356	1
0	852	249.917277883459	0
0	864	252.031143182296	1
0	865	252.855671620607	0
0	995	291.621317235216	1
0	997	291.822075375297	2
0	1000	293.105009452814	1
0	1006	294.764558814861	2
0	1007	295.536980291202	1
0	1017	296.536788024125	0
0	1023	296.577103086428	1
0	1025	298.611692659143	0
0	1034	299.880590025643	1
0	1036	301.663810151098	2
0	1038	302.095685374164	1
0	1043	302.105261498977	0
0	1104	314.383793759489	1
0	1105	316.611752197787	0
0	1111	316.838304535165	1
0	1113	317.687417099419	0
0	1148	326.819820972766	1
0	1149	326.895891618755	0
0	1156	327.863555059696	1
0	1157	328.161206164272	0
0	1183	332.54355190253	1
0	1184	332.771827359974	0
0	1202	336.55282233532	1
0	1204	336.754370543144	2
0	1205	337.301287490715	1
0	1212	338.095685007323	0
0	1227	343.977820667292	1
0	1229	344.600322152369	2
0	1230	347.093479261174	1
0	1235	347.122851899008	0
0	1264	350.10724621257	1
0	1266	350.345799017897	0
0	1307	358.288652227231	1
0	1308	358.765447278574	0
0	1321	360.235487564451	1
0	1322	360.675684380096	0
0	1329	362.776257365488	1
0	1331	363.684553767841	2
0	1332	364.17142283942	1
0	1337	364.455628630892	0
0	1359	371.165769579679	1
0	1360	371.250889463934	0
0	1376	373.356881328197	1
0	1377	373.603994457698	0
0	1428	382.852025547126	1
0	1429	383.314124918726	0
0	1446	385.760175856732	1
0	1449	386.793366867382	0
0	1462	387.423237171307	1
0	1466	387.695879535723	2
0	1467	387.818034173511	1
0	1472	387.958134205501	0
0	1487	390.392258359179	1
0	1488	390.67810501799	0
0	1494	391.796388034942	1
0	1496	391.942591437676	2
0	1498	392.502908161257	1
0	1507	393.629903253345	2
0	1510	395.297790629507	3
0	1511	396.487344925449	2
0	1517	396.848672386255	1
0	1522	397.116346348209	0
0	1530	399.410894982599	1
0	1531	399.957866625223	0
0	1553	408.227109001811	1
0	1555	408.41475489789	2
0	1557	409.12744711541	3
0	1558	409.172684694395	2
0	1564	410.020130946183	1
0	1569	410.43184382423	0
0	1608	425.999333555099	1
0	1609	427.106948669803	0
0	1648	437.911937345957	1
0	1649	438.704621288054	0
0	1656	439.453554625066	1
0	1658	440.477367447463	2
0	1659	441.219608781511	1
0	1665	441.696703542504	2
0	1668	442.643323799569	3
0	1669	443.911001417546	2
0	1675	445.670318319426	1
0	1680	446.015635427678	0
0	1686	446.015882882048	1
0	1687	446.68780064338	0
0	1701	448.697364209945	1
0	1703	448.950935723523	2
0	1704	449.170785227189	1
0	1709	449.239697850401	0
0	1715	449.45287659911	1
0	1719	450.057096732999	2
0	1725	452.314439510479	1
0	1730	452.880117246721	0
0	1736	453.327254039359	1
0	1739	453.761760101675	2
0	1740	454.384199906879	1
0	1746	454.941870752162	2
0	1748	455.228735639704	3
0	1751	455.781595975905	4
0	1752	456.245326865896	3
0	1757	456.600312879794	2
0	1764	456.881024898262	1
0	1774	461.915176254201	2
0	1775	462.755721930044	1
0	1782	463.466514350769	0
0	1839	486.223296466313	1
0	1841	488.24168625803	2
0	1843	488.284701362286	3
0	1845	488.351898144532	4
0	1846	491.107266265992	3
0	1852	492.629720874229	2
0	1859	493.472399403364	3
0	1860	493.775069802523	2
0	1867	494.311845237062	3
0	1870	494.8137609955	2
0	1876	495.929344666039	1
0	1882	496.585227603737	0
0	1893	497.618444018609	1
0	1895	497.826461691464	2
0	1897	499.303020545118	3
0	1900	499.7498133513	4
0	1901	500.444632717411	3
0	1908	501.271974242626	4
0	1910	502.019439669716	5
0	1911	502.74062285457	4
0	1918	502.827912266955	5
0	1920	503.89620575178	6
0	1921	504.207493687688	5
0	1926	504.581894124768	4
0	1932	506.057051344835	3
0	1938	506.474935693755	4
0	1942	507.908293889686	3
0	1947	508.090084499081	2
0	1952	508.440722048362	1
0	1960	508.989726750509	0
0	1966	509.093268884301	1
0	1967	509.323464614308	0
0	2002	517.570034011526	1
0	2005	519.404645572557	2
0	2006	519.440671488427	1
0	2011	519.820130557921	0
0	2037	524.205465647157	1
0	2038	524.252495381379	0
0	2065	527.931758522892	1
0	2069	531.530875945361	2
0	2070	532.045771170927	1
0	2075	532.536591973514	0
0	2094	536.026149158254	1
0	2095	536.34263256213	0
0	2154	560.253160507785	1
0	2155	560.561468264153	0
0	2165	562.904505122604	1
0	2167	563.169275481327	2
0	2173	564.139186634312	3
0	2175	564.998065412701	4
0	2177	565.120036164277	5
0	2179	565.538835567845	6
0	2180	566.148314438922	5
0	2185	566.831969288033	4
0	2190	567.345120266514	3
0	2196	567.839047492681	2
0	2201	567.930211566647	1
0	2208	568.185078158729	0
0	2244	576.533598546161	1
0	2245	576.803732928721	0
0	2252	577.9460801777	1
0	2253	579.296909253823	0
0	2333	601.233012959442	1
0	2334	601.523773463636	0
0	2340	604.245621790038	1
0	2342	604.880877734618	2
0	2343	604.913333758212	1
0	2353	606.478208090001	2
0	2355	607.01131245636	3
0	2358	607.434994137346	4
0	2360	608.697571256181	3
0	2365	609.037032949092	2
0	2370	609.142157315796	1
0	2378	609.960976322329	2
0	2382	611.052229907634	3
0	2383	611.178270741299	2
0	2389	611.946246707098	1
0	2395	613.131132489667	2
0	2400	614.445255027673	3
0	2402	616.037443002799	4
0	2405	616.689318858932	3
0	2410	617.603343710009	2
0	2422	619.587234607084	1
0	2428	620.363884598545	0
0	2450	622.265102959752	1
0	2452	624.261343164707	0
0	2458	624.28038284292	1
0	2460	624.866133927729	0
0	2508	634.94936585938	1
0	2512	636.275420926181	2
0	2513	636.309073268734	1
0	2518	636.35136660578	0
0	2559	645.384598875838	1
0	2562	645.909694308108	0
0	2581	647.748783064937	1
0	2582	648.215632516028	0
0	2588	648.590643612368	1
0	2589	649.509896073854	0
0	2612	652.743411179272	1
0	2613	654.097982868188	0
0	2621	655.412299214333	1
0	2625	655.830633630459	2
0	2627	657.38101588157	1
0	2632	657.432982887029	0
0	2646	659.299595657538	1
0	2648	659.564531736916	2
0	2649	659.793658333396	1
0	2656	660.223473243315	2
0	2658	660.403286212156	3
0	2660	662.5958563616	2
0	2665	662.60689089368	1
0	2671	663.534850723921	0
0	2710	679.687968583663	1
0	2711	681.062831528296	0
0	2760	699.111170264327	1
0	2763	699.953924204779	0
0	2769	700.985771041688	1
0	2772	701.565447176326	2
0	2773	701.725721438842	1
0	2779	702.215109292363	0
0	2810	706.937441903872	1
0	2811	706.974448486724	0
0	2830	710.586162780575	1
0	2834	711.78803799442	2
0	2841	713.501745418575	1
0	2846	713.504782102721	0
0	2864	716.541828611748	1
0	2867	717.726815868138	0
0	2896	723.617481051653	1
0	2898	723.772908987288	2
0	2900	724.445872605114	3
0	2902	724.529338859039	4
0	2906	726.466561385558	5
0	2907	726.647473987904	4
0	2914	728.572208172522	5
0	2917	729.325735575614	4
0	2925	730.778019975641	3
0	2931	732.040107704465	2
0	2937	732.358908816334	1
0	2942	733.556940945966	0
0	2973	739.840707801514	1
0	2974	741.108462816558	0
0	2984	742.915055809397	1
0	2986	743.909351516718	2
0	2988	744.113823616938	3
0	2990	744.380466760309	4
0	2992	745.324039182893	5
0	2995	746.6046366308	4
0	3001	750.79292435088	3
0	3008	754.602402226858	2
0	3015	755.421196216884	1
0	3020	755.947726412819	0
0	3034	759.371440549422	1
0	3038	759.705079796659	2
0	3039	760.505843036148	1
0	3045	760.818479342518	0
0	3069	765.000101726101	1
0	3072	767.860501733054	0
0	3091	771.973561645216	1
0	3092	772.114622273594	0
0	3103	774.912361010693	1
0	3108	776.828328174661	0
0	3116	777.169728330958	1
0	3117	777.498229899229	0
0	3131	778.641756273423	1
0	3133	781.289277390456	2
0	3134	781.730228045714	1
0	3143	783.924717560196	0
0	3165	787.376904700425	1
0	3168	788.414991512428	0
0	3185	789.557606409893	1
0	3186	789.678994554478	0
0	3194	789.765008128456	1
0	3195	790.19131549529	0
0	3207	790.292635611057	1
0	3208	790.467341348235	0
0	3246	796.777577788992	1
0	3248	797.632292831048	2
0	3256	804.128945103758	1
0	3262	804.351662571848	0
0	3275	805.243739919817	1
0	3277	807.24088255586	2
0	3278	807.729361474162	1
0	3284	809.006816802952	0
0	3291	810.364143403972	1
0	3292	811.93299994253	0
0	3329	822.7736094806	1
0	3332	824.715544335294	0
0	3339	825.84853945212	1
0	3342	827.392326180246	0
0	3360	832.404658932218	1
0	3363	833.713151019023	0
0	3372	834.759243297751	1
0	3374	835.274235057716	2
0	3377	835.581338059243	1
0	3382	836.34390852367	0
0	3388	836.532172926781	1
0	3390	838.129683873867	2
0	3392	838.390156122985	3
0	3394	840.762374320075	2
0	3399	840.946487014525	1
0	3403	841.900723236217	2
0	3410	843.63915174663	1
0	3416	843.965546630337	0
0	3491	856.197318418745	1
0	3493	857.089230259428	0
0	3515	861.024225043734	1
0	3518	864.553433985456	0
0	3543	869.208923891613	1
0	3548	870.579542056698	2
0	3550	870.780057590364	1
0	3555	871.133940594237	0
0	3561	871.490909344969	1
0	3565	871.845215794615	2
0	3567	872.283232805791	3
0	3568	874.74132086323	2
0	3574	876.038221378875	1
0	3584	879.059315944337	2
0	3585	879.166411455537	1
0	3590	879.221300993984	0
0	3603	880.421356899008	1
0	3605	881.238532675436	0
0	3683	905.121507777909	1
0	3685	905.12933791693	2
0	3686	905.332592724449	1
0	3691	905.429368179066	0
0	3707	907.087913022791	1
0	3708	907.313227880663	0
0	3742	912.341331101801	1
0	3745	913.866191801773	0
0	3772	919.986300973607	1
0	3773	920.349082403598	0
0	3796	925.44727756551	1
0	3797	925.498638385785	0
0	3803	925.517196737275	1
0	3808	926.812655698357	0
0	3814	927.302691405073	1
0	3815	927.923147474031	0
0	3868	942.016023754471	1
0	3870	942.177429542169	2
0	3872	942.22553197951	3
0	3876	942.60012419211	4
0	3878	942.716653545452	5
0	3880	942.777987642364	6
0	3881	942.807649940906	5
0	3887	944.130566312714	4
0	3892	944.556522051709	3
0	3897	944.591627036551	2
0	3902	944.706816922953	1
0	3912	946.398063070614	2
0	3913	946.569152458409	1
0	3918	946.819397382481	0
0	3925	948.784193205261	1
0	3927	949.01005598541	2
0	3929	949.1683411661	3
0	3930	950.432584443461	2
0	3938	951.021719469755	1
0	3944	951.263505548207	2
0	3950	951.67633797907	1
0	3955	951.828104006957	0
0	3979	954.457220078772	1
0	3983	955.143338105588	0
0	3993	961.439839105548	1
0	3995	962.490196653793	0
0	4001	963.005092779928	1
0	4004	963.498997188488	2
0	4006	964.085448708661	3
0	4008	964.703539774685	4
0	4010	965.378694027114	5
0	4012	965.870249398363	6
0	4013	966.229267231082	5
0	4019	966.401932265969	4
0	4024	966.433725995122	3
0	4029	966.448722667882	2
0	4035	967.943137825032	1
0	4040	967.973248522343	0
0	4083	976.254229960561	1
0	4085	976.612912940218	2
0	4087	977.756321670907	3
0	4090	979.053891269038	2
0	4095	979.704378661893	1
0	4101	981.78086508621	0
0	4111	983.373189417663	1
0	4113	983.606430245591	0
0	4135	989.566523058291	1
0	4139	991.253944721219	2
0	4142	992.252907342604	1
0	4149	993.56493716247	2
0	4150	993.729173246991	1
0	4155	994.019096612865	0
0	4164	995.887740647055	1
0	4166	997.37776552901	2
0	4169	997.485351344962	1
0	4176	998.554123767973	0
0	4190	1000.749410511335	1
0	4194	1001.637990524973	0
0	4205	1002.408330341951	1
0	4206	1003.536193288617	0
0	4221	1004.707186637978	1
0	4223	1004.910058790495	2
0	4225	1005.04066162331	3
0	4230	1006.775938265386	4
0	4231	1007.705387801723	3
0	4237	1008.609189167168	2
0	4242	1008.864225169275	1
0	4248	1009.321715803174	2
0	4252	1010.387966734021	3
0	4254	1011.746453701831	2
0	4259	1011.970457108345	1
0	4266	1014.966580768133	0
0	4282	1018.345428173327	1
0	4283	1018.574491655766	0
0	4290	1019.488620822366	1
0	4291	1020.9486586793	0
0	4307	1022.925734529851	1
0	4309	1022.945315549717	2
0	4310	1024.74309270362	1
0	4317	1025.41078625243	2
0	4318	1025.790837302241	1
0	4325	1028.591670893773	0
0	4331	1028.620567569765	1
0	4332	1029.269554064287	0
0	4345	1029.845637580701	1
0	4347	1029.892248118708	0
0	4361	1033.584882782674	1
0	4363	1033.790813639238	0
0	4375	1034.647528028919	1
0	4377	1035.475250115596	2
0	4379	1035.73485639977	3
0	4382	1036.318401081029	4
0	4385	1037.533357984697	5
0	4386	1040.148258003764	4
0	4391	1040.459244957696	3
0	4398	1040.783087878141	4
0	4400	1041.819392217329	3
0	4408	1042.412711051851	4
0	4409	1042.461640461411	3
0	4415	1043.551037336257	2
0	4420	1044.058144436916	1
0	4429	1047.406562618598	0
0	4443	1048.822451398942	1
0	4445	1050.953420217136	2
0	4447	1051.179726989201	3
0	4448	1052.729091847957	2
0	4456	1053.735439213162	1
0	4461	1053.800946340609	0
0	4473	1056.211543724339	1
0	4475	1056.240616047235	2
0	4479	1056.399307154973	3
0	4480	1057.086552870123	2
0	4485	1057.138987232569	1
0	4490	1057.33867321937	0
0	4500	1058.510520045428	1
0	4503	1059.282401766637	0
0	4517	1061.116362026862	1
0	4520	1061.266140775482	0
0	4527	1061.756325272294	1
0	4528	1061.86861459657	0
0	4558	1066.730108626969	1
0	4559	1067.11996079709	0
0	4576	1079.404482631974	1
0	4586	1085.0536433812	0
0	4600	1087.89719829039	1
0	4604	1088.793991475438	0
0	4615	1090.943296328857	1
0	4621	1093.199166464773	0
0	4633	1093.964764311351	1
0	4634	1097.136413298994	0
0	4641	1097.977281101672	1
0	4642	1098.284636891511	0
0	4657	1100.445867522659	1
0	4659	1100.719709698227	2
0	4660	1100.787711522426	1
0	4666	1100.802916205437	2
0	4667	1101.432613816124	1
0	4674	1103.792379759688	0
0	4682	1104.253757030745	1
0	4683	1104.693783986725	0
0	4689	1105.713886691568	1
0	4690	1106.317768309101	0
0	4709	1112.775717063707	1
0	4710	1113.072553950882	0
0	4724	1115.585238476823	1
0	4727	1116.014410869251	0
0	4741	1120.904278378241	1
0	4745	1122.38507775039	2
0	4747	1123.117397434808	3
0	4750	1124.246924533168	2
0	4755	1124.454854704418	1
0	4760	1124.646481166356	0
0	4823	1134.284894142442	1
0	4825	1134.563323203987	2
0	4827	1135.209574875878	1
0	4833	1136.124065273587	0
0	4875	1148.71837962517	1
0	4876	1151.094230607822	0
0	4897	1156.34833464773	1
0	4901	1159.867330960402	2
0	4903	1161.834608128563	1
0	4908	1162.563269048831	0
0	4929	1169.770301140256	1
0	4930	1170.161384804182	0
0	4944	1171.624910170094	1
0	4947	1172.254785041547	2
0	4951	1173.108053643315	3
0	4952	1173.683416127891	2
0	4958	1174.066390157101	1
0	4964	1175.173084664867	2
0	4966	1175.757380690281	1
0	4971	1175.9727530863	0
0	5003	1183.545225892218	1
0	5008	1184.786029878098	2
0	5009	1185.012292710773	1
0	5016	1185.658451232477	2
0	5020	1186.416693484659	3
0	5022	1188.191549324975	4
0	5023	1188.235468635491	3
0	5029	1188.657970043133	2
0	5036	1189.694813963484	3
0	5037	1190.288350546249	2
0	5042	1191.193905276869	1
0	5047	1191.613778391843	0
0	5055	1192.400382995141	1
0	5056	1192.96814114149	0
0	5080	1197.072484843133	1
0	5084	1198.90416783546	0
0	5097	1199.770917203717	1
0	5098	1199.840439337368	0
0	5109	1200.591342630855	1
0	5110	1200.699309671986	0
0	5121	1203.130571740613	1
0	5124	1203.793250582056	0
0	5139	1208.50436177701	1
0	5144	1210.068267244589	0
0	5150	1210.658443395088	1
0	5152	1210.941577978259	0
0	5173	1215.465139896618	1
0	5175	1217.17331644805	0
0	5230	1235.421874577659	1
0	5231	1236.583120395363	0
0	5237	1237.234546645994	1
0	5238	1237.631893303141	0
0	5253	1238.557366491004	1
0	5254	1239.144438685337	0
0	5260	1239.254074146495	1
0	5267	1242.419962254606	2
0	5271	1246.322196046995	3
0	5273	1246.742119211418	4
0	5274	1248.171820898943	3
0	5281	1248.350155768321	4
0	5282	1248.421920694413	3
0	5288	1248.531487321225	4
0	5290	1249.351782624567	3
0	5298	1254.627391940746	2
0	5304	1254.95692882581	3
0	5307	1255.532206188627	4
0	5308	1255.652311916952	3
0	5314	1255.910948820259	4
0	5319	1258.376842093187	5
0	5321	1258.417772783985	6
0	5322	1258.531986222464	5
0	5331	1259.614014583191	4
0	5336	1260.147178560948	3
0	5341	1260.33992289481	2
0	5347	1260.394604537486	3
0	5348	1260.549828506462	2
0	5355	1261.790126085914	1
0	5360	1264.938043970845	0
0	5371	1265.523479563086	1
0	5376	1267.600670810037	2
0	5384	1270.869722309987	3
0	5385	1270.958940187658	2
0	5390	1271.361604345063	1
0	5397	1272.365657962971	2
0	5399	1274.021101490436	1
0	5404	1274.069730292885	0
0	5419	1277.077469320411	1
0	5422	1281.031127464093	0
0	5428	1281.201241324944	1
0	5429	1281.488699153883	0
0	5444	1283.537922325272	1
0	5445	1284.025932278378	0
0	5452	1284.223027600964	1
0	5454	1285.28409259592	0
0	5472	1289.489692257642	1
0	5473	1289.529523729541	0
0	5491	1292.733471404447	1
0	5495	1293.458832166654	0
0	5506	1293.551587438981	1
0	5508	1293.848740311506	2
0	5510	1295.778864771485	1
0	5516	1295.857880307206	2
0	5519	1296.8982231569	3
0	5521	1297.157733542902	4
0	5522	1297.614294720932	3
0	5528	1297.835134429056	4
0	5530	1298.104244070187	5
0	5534	1300.366909811117	4
0	5540	1300.890590517735	5
0	5541	1300.897176628233	4
0	5547	1301.330687979155	5
0	5548	1301.89068468956	4
0	5553	1302.951765345118	3
0	5561	1304.944003898889	4
0	5563	1305.764227802232	5
0	5567	1306.557643798858	4
0	5572	1307.391032006573	3
0	5577	1307.928446116291	2
0	5584	1308.241762078303	3
0	5588	1309.486424828211	2
0	5593	1309.736962058636	1
0	5598	1311.800175560674	0
0	5604	1314.573804991588	1
0	5606	1315.21429140154	2
0	5608	1316.809722484368	3
0	5610	1317.11821616845	4
0	5614	1317.496354037154	5
0	5616	1317.593832000778	4
0	5623	1318.616254056792	3
0	5628	1319.111156127378	2
0	5634	1319.623951121859	1
0	5639	1320.901293453701	0
0	5656	1324.444337448654	1
0	5657	1324.447587030537	0
0	5663	1324.619497194714	1
0	5664	1324.774515773263	0
0	5688	1327.013545121022	1
0	5690	1327.400153259623	2
0	5691	1327.518539785208	1
0	5697	1328.278861940131	0
0	5712	1330.52860827741	1
0	5719	1332.378552982816	2
0	5721	1332.793361213526	3
0	5724	1333.323677252044	2
0	5729	1333.528697122201	1
0	5736	1335.414992397419	2
0	5738	1335.952164083391	1
0	5743	1336.191247837816	0
0	5765	1340.11120281085	1
0	5766	1340.373027766736	0
0	5774	1341.526664705602	1
0	5775	1341.553610453906	0
0	5829	1354.081998028721	1
0	5831	1354.947274646328	2
0	5834	1358.011219405789	1
0	5840	1358.666918890529	0
0	5849	1360.174037077903	1
0	5852	1361.118385582007	2
0	5855	1363.747461380768	1
0	5862	1365.387257791708	0
0	5874	1368.424214936123	1
0	5875	1370.127347678873	0
0	5881	1370.824262542239	1
0	5882	1370.988985939341	0
0	5888	1371.37435423581	1
0	5889	1371.990287047206	0
0	5896	1372.162317237892	1
0	5901	1374.60577138686	0
0	5923	1379.497971375103	1
0	5924	1379.645732718727	0
0	5945	1382.733978034227	1
0	5948	1384.597591379368	0
0	5960	1386.598943822674	1
0	5962	1387.277678673325	2
0	5964	1387.869348508333	3
0	5968	1388.060038895359	4
0	5969	1388.193463390475	3
0	5977	1389.363887621154	2
0	5982	1390.004591345652	1
0	5988	1390.460563807668	0
0	6004	1392.409148688737	1
0	6005	1392.548347792792	0
0	6091	1419.065776584152	1
0	6094	1419.585624841949	2
0	6095	1419.647459469336	1
0	6101	1421.416103034452	0
0	6163	1435.425953980179	1
0	6164	1435.690687581218	0
0	6171	1437.582231239756	1
0	6173	1437.892027816924	2
0	6175	1438.149107404598	3
0	6179	1438.91171925186	4
0	6180	1439.533394469001	3
0	6186	1440.437536171398	2
0	6191	1441.344742691327	1
0	6200	1442.674916034842	0
0	6223	1444.702380354869	1
0	6226	1445.812943461422	0
0	6236	1448.900186249572	1
0	6239	1449.362235026719	0
0	6297	1469.072185018771	1
0	6302	1469.642165410812	0
0	6318	1474.112206066156	1
0	6321	1475.301731993842	0
0	6346	1479.896587703702	1
0	6353	1481.431950977625	2
0	6354	1482.146590064825	1
0	6360	1482.405001417627	2
0	6361	1482.90343014903	1
0	6366	1483.393320331224	0
0	6378	1486.152803157932	1
0	6381	1486.429931823195	0
0	6392	1487.192867573332	1
0	6396	1488.819871492919	0
0	6478	1509.335557425155	1
0	6479	1510.664581731473	0
0	6495	1513.565022083174	1
0	6503	1517.149412892611	2
0	6506	1518.750997544922	3
0	6507	1518.977079398371	2
0	6512	1519.278112313344	1
0	6518	1520.629958012988	2
0	6521	1521.65807544623	1
0	6526	1521.859610118598	0
0	6535	1524.10605509483	1
0	6539	1524.766368108875	2
0	6540	1524.814438604337	1
0	6546	1525.225537550209	0
0	6568	1531.770776377469	1
0	6569	1531.98411032819	0
0	6578	1532.214539049683	1
0	6584	1533.898490412207	2
0	6586	1535.76028712955	1
0	6592	1536.33115509572	2
0	6594	1538.526676656029	1
0	6606	1540.190269405285	2
0	6607	1540.727304756832	1
0	6612	1542.96378056929	0
0	6644	1548.393377088838	1
0	6646	1549.429926376445	0
0	6652	1549.476959190431	1
0	6655	1550.432784439042	2
0	6656	1552.253590932966	1
0	6663	1553.54934849541	0
0	6693	1564.617354208831	1
0	6696	1569.960760018818	0
0	6724	1574.251264186146	1
0	6726	1574.376326287825	2
0	6727	1575.824383690061	1
0	6734	1576.660035675154	0
0	6748	1578.278711607082	1
0	6750	1579.372075539279	2
0	6751	1582.413993298409	1
0	6757	1583.084877499906	2
0	6759	1583.480803051982	1
0	6764	1583.738203810773	0
0	6826	1594.110528660543	1
0	6831	1595.138377164199	0
0	6850	1597.103550369562	1
0	6851	1597.196668102827	0
0	6857	1597.509005843996	1
0	6858	1598.545187180333	0
0	6956	1617.209171402961	1
0	6958	1617.343438721716	2
0	6959	1617.450042789893	1
0	6967	1620.163361899383	0
0	6980	1620.938807925399	1
0	6982	1621.804191048088	0
0	7073	1645.01319537027	1
0	7075	1647.519880364556	2
0	7076	1647.86716009579	1
0	7082	1649.85167105162	0
0	7098	1655.744055330429	1
0	7100	1656.105565163663	0
0	7160	1674.719561884596	1
0	7162	1674.722922347814	2
0	7164	1675.561887555018	1
0	7169	1676.275783978329	0
0	7190	1679.803074347254	1
0	7191	1679.904851779609	0
0	7229	1687.142143913605	1
0	7230	1688.103738737383	0
0	7238	1690.471286754954	1
0	7240	1691.151711651676	2
0	7242	1691.156103475627	3
0	7245	1692.790800310071	4
0	7246	1693.027012271411	3
0	7251	1693.114652441293	2
0	7257	1693.187847123088	3
0	7258	1693.535321919375	2
0	7263	1693.861179067602	1
0	7268	1694.286867656371	0
0	7304	1702.457828930072	1
0	7306	1704.209159934221	0
0	7344	1714.223115297167	1
0	7345	1714.900999920658	0
0	7352	1715.989813691655	1
0	7355	1718.433939856489	0
0	7369	1720.018588745206	1
0	7371	1720.153189305842	0
0	7440	1741.398049905662	1
0	7441	1741.662186336159	0
0	7455	1743.269410861036	1
0	7457	1743.537437888278	0
0	7510	1760.157437041112	1
0	7512	1761.567374060605	2
0	7516	1762.459959524735	3
0	7519	1763.586218141484	2
0	7524	1763.996370415743	1
0	7530	1764.0150506198	2
0	7531	1764.030110390757	1
0	7537	1765.082766493167	0
0	7594	1773.272327939181	1
0	7595	1773.527885876675	0
0	7621	1786.872727528475	1
0	7622	1789.303843928176	0
0	7631	1790.071898900208	1
0	7633	1790.437814871366	2
0	7636	1792.230102999753	1
0	7641	1793.25141651787	0
0	7681	1806.526943006578	1
0	7683	1806.92193433814	2
0	7688	1809.944550003262	1
0	7694	1810.124859751711	0
0	7722	1817.964937756648	1
0	7724	1818.340409264682	2
0	7726	1819.465806298596	3
0	7729	1820.363138776585	2
0	7735	1820.856157198115	1
0	7742	1822.94206582914	0
0	7777	1828.008523457623	1
0	7778	1829.068803191693	0
0	7785	1830.762111759204	1
0	7786	1831.388695031762	0
0	7835	1838.482103509704	1
0	7836	1840.037784843573	0
0	7849	1841.854814189812	1
0	7851	1843.296414159689	2
0	7852	1843.362785971288	1
0	7859	1843.65455491561	0
0	7935	1862.799926905527	1
0	7936	1863.152622623097	0
0	7959	1867.060097530668	1
0	7961	1869.179221598615	2
0	7962	1870.257397644339	1
0	7967	1870.342661220106	0
0	8014	1882.215858405995	1
0	8015	1882.534292826117	0
0	8036	1887.18170757566	1
0	8038	1887.255121491689	2
0	8040	1887.503686242051	1
0	8046	1888.200348747872	0
0	8052	1888.567664545897	1
0	8053	1889.044481220355	0
0	8059	1889.448351837039	1
0	8062	1890.10071607848	2
0	8063	1891.190464859611	1
0	8069	1892.32528961747	0
0	8076	1893.020467408371	1
0	8080	1894.214249704476	2
0	8082	1894.335012093201	3
0	8084	1895.000037297914	2
0	8090	1896.118452877816	3
0	8091	1896.269975309833	2
0	8098	1897.190032065468	1
0	8104	1897.976033552631	0
0	8143	1903.947636424802	1
0	8144	1904.012560847245	0
0	8214	1921.150527453005	1
0	8217	1922.873545687371	2
0	8218	1924.783702015542	1
0	8226	1925.989161776121	0
0	8279	1941.251960056078	1
0	8280	1941.811528930871	0
0	8333	1954.561467275825	1
0	8334	1955.263476155994	0
0	8348	1956.566197869673	1
0	8350	1957.342913947344	2
0	8351	1957.36590354254	1
0	8357	1957.632093116833	2
0	8359	1957.830772299262	3
0	8360	1958.994076953323	2
0	8365	1959.319117531584	1
0	8370	1959.594287754107	0
0	8385	1961.634302292073	1
0	8386	1962.115547952981	0
0	8397	1962.692158614859	1
0	8400	1964.142576651534	0
0	8404	1964.534938689786	1
0	8406	1965.031235457393	2
0	8409	1967.024339050553	1
0	8414	1967.622328637956	0
0	8445	1974.585474447972	1
0	8451	1976.469169091292	2
0	8456	1978.155230003324	3
0	8460	1979.430381668615	2
0	8466	1980.239596968102	1
0	8472	1981.445997826573	0
0	8488	1985.209783830031	1
0	8489	1985.236721190985	0
0	8495	1985.274068255532	1
0	8498	1987.071275033756	0
0	8504	1987.605416940402	1
0	8505	1988.000961231702	0
0	8514	1988.368526368696	1
0	8517	1988.861172268679	0
0	8566	1999.831963346405	1
0	8567	2000.274465077698	0
0	8573	2000.439170811843	1
0	8575	2000.990226676145	0
0	8679	2033.302994040598	1
0	8680	2033.70319402947	0
0	8713	2040.122777106352	1
0	8715	2040.127989929352	2
0	8716	2040.681888525069	1
0	8721	2040.762878827572	0
0	8729	2041.90135920788	1
0	8730	2041.959675666949	0
0	8740	2043.705777355179	1
0	8744	2045.258769196104	2
0	8745	2045.577673112324	1
0	8751	2045.712847820096	0
0	8765	2050.53787259521	1
0	8769	2053.507272457276	0
0	8785	2055.79634168602	1
0	8786	2056.328355676816	0
0	8795	2057.471605915922	1
0	8797	2058.005526260487	2
0	8801	2059.438041747807	3
0	8802	2059.706744072655	2
0	8809	2060.009085819736	3
0	8816	2062.65807552677	2
0	8825	2065.179026873849	1
0	8831	2068.686340462753	2
0	8833	2069.911513252155	1
0	8838	2070.39247628399	0
0	8859	2073.348350222705	1
0	8864	2074.523331027568	0
0	8877	2079.157933207982	1
0	8880	2079.979672410095	2
0	8881	2080.253934464996	1
0	8886	2080.312254826651	0
0	8892	2080.409178273428	1
0	8894	2081.215384958949	0
0	8927	2090.459351594912	1
0	8931	2091.962412072432	2
0	8933	2096.009489727605	3
0	8935	2096.134480812101	4
0	8937	2096.223635721526	5
0	8939	2097.845940057697	6
0	8941	2098.372541640076	7
0	8942	2100.208600391625	6
0	8950	2101.29460193107	7
0	8951	2101.545577523605	6
0	8956	2101.838979031582	5
0	8961	2102.283005761825	4
0	8967	2103.775228984302	3
0	8975	2104.828228878594	2
0	8983	2105.660415429142	1
0	8988	2105.84351624321	0
0	9025	2113.577553864561	1
0	9027	2113.626640189029	2
0	9028	2114.364817180282	1
0	9035	2116.015915045333	0
0	9044	2117.252076235185	1
0	9049	2119.815334261851	0
0	9065	2125.527993813916	1
0	9066	2125.817184234856	0
0	9108	2136.689469295682	1
0	9110	2137.204929985779	0
0	9124	2139.41264219888	1
0	9125	2140.087266124198	0
0	9139	2144.801222384137	1
0	9140	2145.386722905526	0
0	9155	2149.141573044881	1
0	9156	2149.459140945761	0
0	9164	2151.346804356951	1
0	9167	2152.082117275008	0
0	9202	2159.522337042075	1
0	9203	2160.149315576474	0
0	9296	2184.718933749836	1
0	9299	2185.331179487771	0
0	9356	2194.271319830855	1
0	9357	2194.425183706239	0
0	9384	2199.728891010745	1
0	9385	2200.218463880985	0
0	9408	2206.413724179057	1
0	9410	2206.688574260473	2
0	9411	2213.032388021714	1
0	9418	2214.002690269909	0
0	9425	2214.760927113267	1
0	9426	2214.905446266768	0
0	9437	2216.018595918804	1
0	9439	2218.474292430513	2
0	9448	2220.422756225829	3
0	9449	2221.126486500989	2
0	9455	2221.661540416384	1
0	9460	2222.024476379255	0
0	9468	2223.445652149214	1
0	9470	2223.980472144841	2
0	9471	2224.944340082972	1
0	9476	2224.944561888791	0
0	9488	2226.681663021053	1
0	9490	2226.722247416323	2
0	9493	2228.030939755456	1
0	9498	2228.115688208141	0
0	9551	2245.247967979111	1
0	9552	2246.465601309933	0
0	9567	2247.782977417299	1
0	9568	2249.775748177344	0
0	9628	2270.699522144266	1
0	9631	2272.980988729592	0
0	9647	2279.418041139331	1
0	9648	2280.552273722288	0
0	9665	2281.501016998069	1
0	9667	2281.908298788121	2
0	9668	2282.662939343379	1
0	9673	2283.06288274934	0
0	9701	2288.471642648745	1
0	9702	2289.699967417586	0
0	9725	2294.475343204907	1
0	9726	2294.709052551085	0
0	9732	2295.022071658529	1
0	9737	2297.566413748423	0
0	9743	2297.662299576596	1
0	9744	2297.703916713965	0
0	9750	2298.289590312944	1
0	9751	2298.660650855645	0
0	9758	2299.232755933994	1
0	9759	2299.364500652636	0
0	9794	2305.09348448829	1
0	9796	2305.484383950332	2
0	9802	2306.484915724456	3
0	9804	2308.026414943848	4
0	9806	2308.895548489327	3
0	9814	2309.453928312195	4
0	9815	2309.792702248353	3
0	9820	2311.642577197975	2
0	9828	2312.33960868073	3
0	9830	2312.376700843493	4
0	9832	2314.15295962446	3
0	9837	2314.225559097506	2
0	9845	2314.522086883062	1
0	9852	2314.79947626794	0
0	9877	2319.340472111635	1
0	9880	2320.205330140969	0
0	9892	2322.379057438806	1
0	9893	2323.812765500714	0
0	9934	2333.141013209453	1
0	9935	2333.4341463517	0
0	9948	2335.557415223681	1
0	9951	2337.150251923128	0
0	9980	2341.975081640244	1
0	9983	2342.462018563883	0
0	10027	2350.347482047189	1
0	10037	2352.645913256307	0
0	10056	2357.275385277421	1
0	10057	2357.571920117069	0
0	10081	2362.76238134095	1
0	10082	2363.627368987566	0
0	10091	2365.320368070681	1
0	10093	2371.500738402989	2
0	10095	2372.162279942173	3
0	10098	2374.334583201432	2
0	10103	2374.447595880063	1
0	10109	2374.886937000979	0
0	10123	2376.091908295642	1
0	10127	2377.602263458405	2
0	10128	2377.653946576402	1
0	10133	2377.920454052614	0
0	10150	2379.432051949098	1
0	10151	2379.727572257472	0
0	10182	2386.435320950488	1
0	10186	2389.047175508275	2
0	10187	2389.112311964234	1
0	10192	2389.854556264289	0
0	10203	2390.412596743043	1
0	10207	2390.692699349698	2
0	10209	2392.05094245228	3
0	10211	2392.463314061735	2
0	10220	2395.594674030467	1
0	10226	2397.972601382938	0
0	10232	2398.202336026567	1
0	10235	2399.958958077297	0
0	10338	2426.841504475773	1
0	10339	2427.28951472697	0
0	10359	2429.814079256413	1
0	10362	2433.443776132148	2
0	10367	2438.75987385248	1
0	10374	2439.027983922696	2
0	10378	2441.558255430659	3
0	10380	2441.604630687947	4
0	10382	2442.745857825666	5
0	10383	2443.580320135163	4
0	10388	2443.71028498555	3
0	10394	2444.939080848684	2
0	10403	2446.321284759302	1
0	10409	2446.68298227946	2
0	10410	2448.580660892884	1
0	10417	2449.916852879504	0
0	10424	2451.047304822324	1
0	10425	2451.193807637237	0
0	10452	2454.169526575937	1
0	10455	2457.012282871669	2
0	10459	2458.42421932489	3
0	10463	2459.378007631525	2
0	10468	2459.914726994514	1
0	10474	2460.897992771383	0
0	10485	2461.761981715064	1
0	10491	2462.830887479579	0
0	10502	2463.143130355955	1
0	10503	2463.218790187572	0
0	10525	2469.823535849546	1
0	10526	2469.958404939838	0
0	10657	2512.846067650197	1
0	10660	2513.990951231042	0
0	10673	2514.586566839187	1
0	10676	2516.929072857786	0
0	10703	2523.146968774582	1
0	10704	2523.309429735757	0
0	10713	2525.469842542298	1
0	10716	2526.079744361543	0
0	10752	2530.0745084104	1
0	10757	2532.780000265613	0
0	10786	2537.848161067784	1
0	10789	2538.997895021664	0
0	10802	2543.850104508091	1
0	10803	2543.953098319957	0
0	10818	2546.346585596639	1
0	10819	2546.801066397366	0
0	10833	2551.535199554062	1
0	10834	2551.857982799308	0
0	10841	2552.48186149044	1
0	10842	2552.845121069742	0
0	10857	2556.975112561342	1
0	10859	2557.021072432651	2
0	10860	2557.213305870374	1
0	10865	2557.769715982443	0
0	10876	2559.876742077807	1
0	10881	2568.287638432383	0
0	10900	2572.188780464566	1
0	10904	2572.654981585999	0
0	10930	2576.13569182562	1
0	10932	2576.50033267612	0
0	10940	2578.805701002064	1
0	10944	2580.152859264384	0
0	10970	2584.472960758982	1
0	10974	2586.86451148065	0
0	10996	2595.413802488729	1
0	10998	2595.748062215781	0
0	11036	2611.38287022796	1
0	11037	2612.97448201369	0
0	11050	2613.754918040513	1
0	11052	2614.47899082293	0
0	11058	2615.492191775445	1
0	11059	2615.59841493477	0
0	11124	2640.719794718064	1
0	11126	2640.940568485518	2
0	11128	2641.15918920567	1
0	11133	2641.33025956637	0
0	11148	2643.419463759798	1
0	11150	2643.818283600877	2
0	11153	2644.685293813733	3
0	11155	2646.051651771981	2
0	11164	2647.321324763545	3
0	11165	2647.77061232508	2
0	11170	2647.809417253315	1
0	11175	2650.373748209286	0
0	11186	2652.562711328863	1
0	11188	2653.004704932417	2
0	11190	2653.705871014654	1
0	11198	2655.614181896484	2
0	11202	2657.330306754678	1
0	11207	2658.133037154327	0
0	11216	2659.047172262003	1
0	11217	2659.164820483948	0
0	11246	2663.443087370503	1
0	11248	2664.411932565671	0
0	11254	2665.199557014105	1
0	11256	2665.435039776281	2
0	11257	2665.556448156686	1
0	11263	2666.134803441223	0
0	11329	2678.86345524348	1
0	11331	2679.46449343654	2
0	11333	2681.138454335372	3
0	11334	2681.538046628252	2
0	11341	2682.829884961127	3
0	11342	2683.011518110737	2
0	11347	2683.200170126535	1
0	11352	2683.657855942982	0
0	11378	2694.911294547484	1
0	11380	2695.425504765601	2
0	11381	2695.712537720037	1
0	11387	2696.743469931187	2
0	11391	2697.878099868951	1
0	11400	2699.724241557896	0
0	11413	2702.529550050511	1
0	11414	2702.691583428255	0
0	11420	2703.434976410072	1
0	11423	2706.068692883202	0
0	11459	2713.069597860091	1
0	11462	2713.714520338474	2
0	11463	2713.945176937944	1
0	11470	2715.168273517104	0
0	11489	2717.647518488012	1
0	11491	2718.965057044508	0
0	11497	2719.869756016177	1
0	11499	2719.993407799635	0
0	11510	2720.819821973064	1
0	11511	2721.141350469735	0
0	11528	2724.014698247465	1
0	11530	2724.43789665847	2
0	11532	2725.32628724395	1
0	11537	2726.412577299866	0
0	11581	2739.125759831663	1
0	11582	2739.523958079568	0
0	11593	2739.984657248836	1
0	11596	2740.216392635147	2
0	11603	2742.466490519408	3
0	11608	2744.197890614807	2
0	11614	2744.743884559171	1
0	11619	2745.17667430021	0
0	11636	2746.133148101637	1
0	11638	2747.827534250807	0
0	11644	2747.969711433927	1
0	11646	2748.044687757745	2
0	11647	2748.416840449505	1
0	11656	2749.464046455104	0
0	11668	2750.070190266017	1
0	11670	2751.03874791847	0
0	11676	2751.16035621199	1
0	11677	2751.570265729248	0
0	11746	2763.989381072103	1
0	11751	2766.86565766178	0
0	11766	2768.713940691945	1
0	11767	2768.907963354957	0
0	11778	2769.792125386636	1
0	11784	2772.835883600226	0
0	11790	2773.247463311555	1
0	11796	2774.063374732002	2
0	11798	2774.335108175342	3
0	11800	2775.940087608885	4
0	11801	2776.230483696754	3
0	11806	2776.558992288695	2
0	11813	2776.914257439571	3
0	11815	2776.927020094777	4
0	11816	2777.322662798539	3
0	11823	2777.758300233662	2
0	11829	2778.332708671861	1
0	11836	2780.157396924757	0
0	11844	2781.481147481914	1
0	11845	2782.138293436763	0
0	11871	2785.156327625364	1
0	11874	2785.671708772718	0
0	11881	2786.857550509801	1
0	11885	2787.37256008909	0
0	11903	2790.204974298641	1
0	11904	2791.149850294819	0
0	11932	2796.441274969031	1
0	11934	2797.520046669696	0
0	11944	2800.949436069301	1
0	11945	2801.583632994187	0
0	11957	2805.547445132109	1
0	11960	2807.433947147131	2
0	11962	2807.576382525015	3
0	11963	2809.141209822438	2
0	11971	2811.11370737702	3
0	11978	2812.723741468412	4
0	11981	2814.962281526797	3
0	11988	2815.324675158559	2
0	11996	2815.768453283585	1
0	12002	2816.578766765791	0
0	12008	2817.275748127616	1
0	12009	2818.083564844903	0
0	12021	2818.892823512422	1
0	12023	2820.485229927517	0
0	12036	2823.164569136375	1
0	12043	2825.058980882052	2
0	12045	2825.087824587044	3
0	12046	2825.402231198225	2
0	12051	2827.394483075804	1
0	12056	2827.876826113725	0
0	12111	2845.580140478725	1
0	12113	2845.947757661637	2
0	12114	2846.146320118118	1
0	12120	2847.745263405837	0
0	12136	2849.485744952176	1
0	12139	2849.857342323912	2
0	12140	2850.303521835363	1
0	12146	2850.555709176854	2
0	12147	2851.650977453538	1
0	12153	2851.780838381507	2
0	12154	2851.859403145937	1
0	12159	2852.637447819899	0
0	12165	2852.745768188387	1
0	12166	2852.970846162844	0
0	12183	2854.053109857568	1
0	12199	2859.417289975118	0
0	12210	2861.872586003388	1
0	12212	2862.153711704698	0
0	12219	2864.729149321398	1
0	12220	2864.941604444516	0
0	12232	2865.672967439567	1
0	12233	2866.44317847454	0
0	12246	2871.076143036742	1
0	12247	2873.134249097097	0
0	12264	2874.806355813156	1
0	12268	2878.192479254209	0
0	12289	2881.562482327182	1
0	12292	2883.102842419305	0
0	12357	2900.998672944618	1
0	12359	2902.617636475542	2
0	12363	2904.075512924798	3
0	12364	2905.160654670509	2
0	12370	2906.266919227152	1
0	12375	2906.318131417153	0
0	12383	2906.421300614034	1
0	12385	2906.626229671083	0
0	12401	2909.384525816107	1
0	12403	2909.725142277941	2
0	12405	2911.021085053026	3
0	12411	2912.819545809716	2
0	12416	2912.835620929778	1
0	12421	2912.918292643639	0
0	12427	2912.981214627662	1
0	12429	2913.177990037992	2
0	12430	2914.085696665428	1
0	12438	2915.058821127718	0
0	12460	2917.810161444277	1
0	12461	2918.067583076362	0
0	12475	2921.33215694769	1
0	12485	2922.624852215732	0
0	12493	2922.983325103158	1
0	12494	2924.411593484426	0
0	12503	2926.091512314938	1
0	12504	2926.105519007329	0
0	12524	2928.387743644918	1
0	12527	2929.672005804048	0
0	12536	2930.557367866249	1
0	12542	2932.800450117576	2
0	12544	2934.22743358023	3
0	12547	2935.127694561908	2
0	12554	2937.252343631319	1
0	12561	2937.497255177272	2
0	12562	2938.735567550547	1
0	12570	2938.916468005488	0
0	12582	2939.893621035954	1
0	12583	2942.161895296789	0
0	12621	2950.075956500592	1
0	12623	2950.762859601168	2
0	12624	2950.868205181713	1
0	12629	2951.310053331224	0
0	12694	2972.195372934324	1
0	12696	2972.44830973207	2
0	12697	2973.441603025782	1
0	12702	2974.197400960597	0
0	12721	2979.230569739482	1
0	12723	2979.315287766052	2
0	12724	2979.477230171724	1
0	12730	2981.396358192611	0
0	12758	2987.598759260466	1
0	12759	2987.904112109186	0
0	12797	2998.444792080761	1
0	12799	2998.646815703012	2
0	12800	3000.053207649091	1
0	12807	3001.651456687564	0
0	12826	3005.755610646164	1
0	12828	3006.851500250251	2
0	12830	3007.154365014794	3
0	12833	3008.397197794329	2
0	12840	3011.475478281735	1
0	12845	3011.726622913662	0
0	12867	3016.065722213352	1
0	12869	3016.509105294923	2
0	12870	3017.212565786108	1
0	12879	3018.105228929961	0
0	12887	3020.457541775538	1
0	12889	3021.266198161621	0
0	12895	3021.472870061316	1
0	12896	3021.798091565623	0
0	12902	3022.01616108764	1
0	12903	3022.415205802466	0
0	12909	3022.433760154652	1
0	12913	3025.07649011347	0
0	12925	3027.24623024574	1
0	12926	3027.269195986685	0
0	12982	3048.648880603926	1
0	12985	3050.400521426094	0
0	12991	3050.584211125175	1
0	12993	3050.927266903163	2
0	12995	3051.192975386255	3
0	12996	3051.289463268549	2
0	13002	3051.370793701325	3
0	13004	3051.556453656695	4
0	13006	3051.680511582363	5
0	13009	3052.381330980304	6
0	13011	3053.162402545523	5
0	13016	3053.880587936652	4
0	13023	3055.87302347633	3
0	13034	3057.384903039126	4
0	13035	3058.08052296376	3
0	13044	3060.111351906818	2
0	13053	3062.889451122514	1
0	13058	3063.646257040029	0
0	13070	3066.208092596074	1
0	13076	3069.415324933139	0
0	13121	3076.207903670908	1
0	13123	3076.553619146668	2
0	13125	3079.446201655978	3
0	13126	3079.690674767386	2
0	13131	3080.968518607649	1
0	13136	3081.346215339065	0
0	13145	3082.515393033433	1
0	13156	3087.922052543286	0
0	13186	3096.755775924261	1
0	13191	3099.169630083796	0
0	13201	3099.69360001128	1
0	13203	3100.218823862686	2
0	13207	3101.268010109874	3
0	13208	3101.326644750725	2
0	13213	3102.248925214312	1
0	13221	3102.97905750086	2
0	13222	3103.316776218886	1
0	13228	3103.545630609116	2
0	13229	3104.332448924172	1
0	13235	3105.558217830434	0
0	13255	3109.981477641297	1
0	13257	3110.819363972014	0
0	13272	3113.398643550233	1
0	13273	3113.557397685754	0
0	13279	3113.712605787444	1
0	13280	3113.852340821727	0
0	13286	3114.336813279204	1
0	13287	3114.548576995196	0
0	13343	3124.940259414872	1
0	13345	3125.24025550004	2
0	13349	3128.687029642135	3
0	13352	3131.19457767195	2
0	13357	3131.362415344217	1
0	13362	3131.760267428037	0
0	13372	3132.14750899973	1
0	13374	3132.543397889147	2
0	13377	3132.894763010944	1
0	13382	3133.986122940792	0
0	13394	3134.868025812589	1
0	13398	3135.106562206247	2
0	13400	3135.288906797934	3
0	13402	3136.3772463224	4
0	13406	3136.727488486524	5
0	13407	3137.23530877037	4
0	13416	3138.839093127975	5
0	13417	3139.757442962671	4
0	13422	3142.504034165606	3
0	13426	3144.227227552336	4
0	13428	3147.305962583312	5
0	13432	3147.795827586733	4
0	13437	3148.253481640481	3
0	13443	3149.772027628902	4
0	13446	3150.021343822642	5
0	13447	3150.681213990675	4
0	13453	3150.741230348646	5
0	13457	3152.552645737468	4
0	13462	3152.867928106305	3
0	13468	3155.446674599513	2
0	13482	3159.459763385284	1
0	13488	3160.031285334015	0
0	13507	3163.071187479765	1
0	13508	3163.223338898771	0
0	13533	3168.012955567005	1
0	13537	3169.324788393228	2
0	13539	3170.044479669391	3
0	13543	3172.595215582203	2
0	13549	3175.83067245289	1
0	13555	3176.695619888482	0
0	13562	3177.567646409336	1
0	13563	3179.072757543111	0
0	13595	3187.852995417454	1
0	13597	3188.807445825844	2
0	13598	3189.120867444363	1
0	13605	3192.053881797076	2
0	13607	3194.883988395661	3
0	13609	3195.374504819856	4
0	13610	3195.523567503244	3
0	13616	3195.678471801874	4
0	13617	3196.26145859464	3
0	13623	3196.683992800448	2
0	13631	3196.968917082763	3
0	13632	3197.318257308739	2
0	13640	3197.941883536463	3
0	13642	3199.311431993481	2
0	13648	3199.838590967538	3
0	13650	3200.373087160171	4
0	13651	3200.994438504151	3
0	13658	3201.637087216891	2
0	13665	3202.961393332111	1
0	13674	3204.619121675891	0
0	13690	3206.778082626985	1
0	13694	3207.036335323459	2
0	13695	3207.480362612862	1
0	13702	3208.01159350806	2
0	13703	3209.200951712701	1
0	13710	3210.804705264059	0
0	13722	3212.898138592705	1
0	13723	3213.051858063391	0
0	13751	3217.145876724681	1
0	13753	3217.344058465593	2
0	13755	3217.662463389458	3
0	13757	3218.031262810817	4
0	13760	3218.391107558579	3
0	13766	3219.290680026876	2
0	13772	3219.301637331023	3
0	13774	3219.596359309252	4
0	13775	3219.83792171709	3
0	13781	3220.115124067191	2
0	13786	3220.841947530418	1
0	13793	3221.143698411426	0
0	13799	3221.41281760083	1
0	13800	3221.509623075214	0
0	13819	3222.490466286561	1
0	13821	3224.454803136685	2
0	13824	3226.243490399195	1
0	13831	3226.478690343963	2
0	13832	3226.554547225983	1
0	13838	3226.809426022811	0
0	13885	3240.595556952853	1
0	13888	3240.97059473761	0
0	13944	3253.166554138993	1
0	13947	3255.951678170289	0
0	14013	3270.520447278682	1
0	14014	3270.668597719395	0
0	14052	3279.913217200918	1
0	14057	3281.142670876171	0
0	14070	3282.257338852888	1
0	14071	3282.580104025134	0
0	14080	3283.486633466414	1
0	14084	3285.458582771877	2
0	14086	3285.88854901375	1
0	14091	3285.928267591617	0
0	14098	3285.936771619231	1
0	14099	3285.940771163113	0
0	14110	3286.382982568056	1
0	14111	3286.607654542565	0
0	14120	3288.473330484266	1
0	14121	3288.984642690862	0
0	14184	3308.990460715096	1
0	14185	3309.189744219788	0
0	14226	3318.516752315046	1
0	14228	3319.311441362578	0
0	14315	3348.528866605762	1
0	14317	3349.239424511847	2
0	14318	3350.07008386115	1
0	14323	3350.740299254498	0
0	14329	3351.798743554576	1
0	14331	3352.419111969116	2
0	14332	3352.710074500058	1
0	14340	3353.671868850357	2
0	14342	3354.823148412273	1
0	14347	3355.52821865182	0
0	14353	3355.73122756507	1
0	14356	3357.953900595122	0
0	14373	3361.749760749019	1
0	14374	3362.256570632079	0
0	14380	3362.612648736048	1
0	14381	3363.367445280726	0
0	14404	3365.865447829073	1
0	14407	3366.390458504294	2
0	14411	3369.836005881258	3
0	14414	3371.935675761019	2
0	14420	3372.021866153181	3
0	14422	3373.420587396616	2
0	14428	3373.543193906009	1
0	14435	3375.453549600213	2
0	14437	3376.978889199859	3
0	14438	3377.742089982524	2
0	14443	3378.143074355528	1
0	14448	3378.752914607547	0
0	14456	3379.399325216	1
0	14458	3379.412694016372	2
0	14459	3379.869379840838	1
0	14465	3379.92270432495	2
0	14468	3380.592955085152	1
0	14473	3380.697433496259	0
0	14479	3380.788657729992	1
0	14481	3381.00342267824	2
0	14482	3381.342290540287	1
0	14487	3382.357325775255	0
0	14491	3382.73010989712	1
0	14493	3382.972809947341	2
0	14498	3384.681016227682	1
0	14503	3386.643556053694	0
0	14515	3389.058361366839	1
0	14519	3390.259184379869	2
0	14520	3390.627125128226	1
0	14526	3391.458847269525	0
0	14538	3392.581469383698	1
0	14539	3392.895306153585	0
0	14545	3393.136047323144	1
0	14546	3393.29314262018	0
0	14555	3394.089135163172	1
0	14557	3394.328239924151	2
0	14559	3394.685761071764	3
0	14561	3395.072037209221	4
0	14562	3395.649856257942	3
0	14568	3396.361815971667	2
0	14573	3396.999522359546	1
0	14578	3397.015829877848	0
0	14589	3397.969734980319	1
0	14590	3398.328709186016	0
0	14614	3403.310076704498	1
0	14616	3403.386938480696	2
0	14618	3403.394713720937	3
0	14619	3403.521124977702	2
0	14626	3404.548520645259	3
0	14628	3406.51272523113	2
0	14634	3406.909250842616	3
0	14637	3407.885428826227	4
0	14638	3407.975592815301	3
0	14643	3408.06819482444	2
0	14649	3408.467321009594	3
0	14652	3409.012903093796	2
0	14657	3409.311903562729	1
0	14663	3410.385168478559	0
0	14671	3410.635788873506	1
0	14672	3411.118862319507	0
0	14678	3411.791470592054	1
0	14680	3414.205087750092	2
0	14683	3415.728831033423	1
0	14689	3416.378524409324	0
0	14704	3418.202086664405	1
0	14706	3418.212154021218	2
0	14708	3418.405050642073	3
0	14710	3418.593477920293	2
0	14715	3419.267734792761	1
0	14723	3423.037884041646	0
0	14734	3423.672552811357	1
0	14736	3424.37446243553	0
0	14748	3426.036810076546	1
0	14750	3426.204481754646	2
0	14751	3427.204898637357	1
0	14756	3427.205291128124	0
0	14770	3430.959661041498	1
0	14774	3433.052833522559	2
0	14775	3433.067715178027	1
0	14780	3434.318400839086	0
0	14803	3436.158056521893	1
0	14806	3439.186087176638	0
0	14812	3439.348912136393	1
0	14814	3441.874301677073	0
0	14854	3450.912642163122	1
0	14857	3452.09839260086	0
0	14863	3452.617288940105	1
0	14867	3454.471569443443	0
0	14879	3456.196277475589	1
0	14881	3456.84386412868	2
0	14885	3457.841496190856	3
0	14887	3459.441144820183	4
0	14888	3460.282908692262	3
0	14893	3460.860580347574	2
0	14898	3460.950680351399	1
0	14905	3462.847151448349	0
0	14923	3464.345865264301	1
0	14924	3464.987108083436	0
0	14931	3465.183608157425	1
0	14933	3465.571862160549	0
0	14949	3468.237148616883	1
0	14950	3469.082116599386	0
0	15090	3499.865076666487	1
0	15091	3501.384658602773	0
0	15104	3502.753568172349	1
0	15106	3503.324865572793	0
0	15112	3503.506787580795	1
0	15117	3504.359389714307	0
0	15135	3506.836630911019	1
0	15138	3510.951985318624	0
0	15150	3517.245987171212	1
0	15152	3519.585622319722	2
0	15156	3522.933723138134	3
0	15157	3523.334007206146	2
0	15162	3523.384926279894	1
0	15168	3523.748419410008	2
0	15169	3525.311045982304	1
0	15174	3526.012364277442	0
0	15234	3544.118414119014	1
0	15235	3544.176256911454	0
0	15248	3546.309029946788	1
0	15250	3548.357914726529	2
0	15253	3548.518459360097	1
0	15258	3548.586796973358	0
0	15440	3608.95134015959	1
0	15442	3611.116168117954	0
0	15491	3622.973711904278	1
0	15493	3623.169349320005	2
0	15496	3623.320758461781	1
0	15502	3624.75793717153	2
0	15504	3625.216145780114	1
0	15511	3625.867152387378	2
0	15512	3626.450366132371	1
0	15521	3627.567454455259	2
0	15522	3627.862599666822	1
0	15528	3628.195558854904	2
0	15534	3631.416682102335	3
0	15538	3632.549829644605	2
0	15546	3633.583057533958	1
0	15553	3634.888262543354	0
0	15585	3645.039659441035	1
0	15586	3646.567551161496	0
0	15598	3648.702977269678	1
0	15599	3649.226706208815	0
0	15606	3650.127826278546	1
0	15608	3650.8520708167	0
0	15648	3658.225768498077	1
0	15651	3660.294288415194	0
0	15658	3661.266632361013	1
0	15660	3661.309363966871	2
0	15661	3661.537320944994	1
0	15666	3661.817015616585	0
0	15682	3671.458058927449	1
0	15684	3672.386207519816	2
0	15685	3672.829698183935	1
0	15691	3674.46261026448	0
0	15715	3681.870720489527	1
0	15717	3682.609446812487	2
0	15718	3682.955694831939	1
0	15723	3683.137782376652	0
0	15730	3683.625820506649	1
0	15732	3683.645551052673	2
0	15734	3685.955968463878	1
0	15743	3687.120675957023	0
0	15756	3689.108513958101	1
0	15760	3690.975794610126	0
0	15786	3697.610241386909	1
0	15787	3697.615799994548	0
0	15811	3705.208065898371	1
0	15813	3705.544393227204	2
0	15814	3705.701448932199	1
0	15820	3706.975063706903	0
0	15861	3716.665877371851	1
0	15862	3716.737283663589	0
0	15900	3736.057726530956	1
0	15902	3736.313161053178	2
0	15904	3736.861098081595	1
0	15909	3737.141757727009	0
0	15932	3739.222929383087	1
0	15934	3739.367988701796	2
0	15935	3739.430850523267	1
0	15940	3739.587612374721	0
0	15953	3740.727165443823	1
0	15956	3743.599052581269	0
0	15968	3745.947657302326	1
0	15969	3746.052540761774	0
0	16056	3772.676745094094	1
0	16059	3773.138362661347	0
0	16066	3773.921151270876	1
0	16067	3774.173143783753	0
0	16074	3774.999483256118	1
0	16077	3775.143804884997	2
0	16079	3775.341663035151	3
0	16080	3776.195584325557	2
0	16086	3776.395676772075	3
0	16088	3776.613649678403	2
0	16093	3776.734508811593	1
0	16098	3776.768537266609	0
0	16168	3800.983013165876	1
0	16174	3805.923623622355	2
0	16176	3805.956179751509	3
0	16177	3806.070696501806	2
0	16182	3806.388213503684	1
0	16188	3807.306863033266	0
0	16209	3816.367037539711	1
0	16213	3817.897159269066	0
0	16238	3820.312888368778	1
0	16239	3820.672184897091	0
0	16253	3822.388406897077	1
0	16254	3822.488147207919	0
0	16333	3849.132901991013	1
0	16334	3850.411688329155	0
0	16341	3852.042378378556	1
0	16342	3852.780268490011	0
0	16348	3854.287886537112	1
0	16349	3854.367956098282	0
0	16381	3863.832794507642	1
0	16382	3864.373720732335	0
0	16403	3868.120154915573	1
0	16404	3869.115540414712	0
0	16410	3869.239861503155	1
0	16420	3870.756415647605	0
0	16452	3875.794595765765	1
0	16453	3877.567520958941	0
0	16538	3898.899583681257	1
0	16543	3900.916504181366	2
0	16546	3905.534830822417	3
0	16550	3908.163598003213	4
0	16551	3908.672593665734	3
0	16558	3909.187280832411	4
0	16561	3910.490397040818	3
0	16567	3911.264961564407	2
0	16572	3912.567008646323	1
0	16580	3914.513160482842	2
0	16583	3917.329358414933	1
0	16591	3917.595361873482	2
0	16592	3918.47614194743	1
0	16598	3918.78692449502	2
0	16602	3920.748184478302	1
0	16607	3921.916920023532	0
0	16634	3926.022206609166	1
0	16635	3926.773421130698	0
0	16658	3929.832344823117	1
0	16661	3930.402923768869	0
0	16693	3943.846390675612	1
0	16696	3946.256078017087	2
0	16697	3946.821145948826	1
0	16702	3946.937148070524	0
0	16720	3949.013191103867	1
0	16722	3949.565486230326	2
0	16727	3951.506353077807	1
0	16733	3951.905435156259	2
0	16742	3954.800964861469	3
0	16747	3956.17851026399	4
0	16750	3956.582681172625	3
0	16755	3956.586599430998	2
0	16762	3957.426194853429	3
0	16763	3957.666773001796	2
0	16768	3958.037516582602	1
0	16773	3958.441687903237	0
0	16793	3962.268273643971	1
0	16794	3962.481643477434	0
0	16808	3964.972609152224	1
0	16810	3966.225392682186	2
0	16813	3967.373465102002	1
0	16818	3967.677489075173	0
0	16837	3974.1137296064	1
0	16838	3974.173440263048	0
0	16853	3974.774293585235	1
0	16857	3978.447565581608	0
0	16890	3987.657697064294	1
0	16891	3987.833881795306	0
0	16939	4006.254320610328	1
0	16941	4006.451520466805	2
0	16943	4006.573909961272	1
0	16949	4006.612152979943	2
0	16950	4007.947442832998	1
0	16955	4008.23403866253	0
0	16961	4008.907508691459	1
0	16962	4009.114783143256	0
0	16968	4009.616096209891	1
0	16969	4010.443771772823	0
0	16976	4011.516723763896	1
0	16977	4011.632299977835	0
0	16984	4012.15675728068	1
0	16985	4012.376468726697	0
0	17027	4024.932900886019	1
0	17029	4025.255219525536	0
0	17074	4032.189628533242	1
0	17077	4032.318453394868	0
0	17107	4037.348381830068	1
0	17112	4039.40424869688	2
0	17116	4039.761285552221	1
0	17121	4039.775852034815	0
0	17127	4040.247674468721	1
0	17128	4040.297763445435	0
0	17178	4048.693090673818	1
0	17179	4048.928173156073	0
0	17272	4076.19829097448	1
0	17273	4076.792737462867	0
0	17319	4089.219357461994	1
0	17320	4090.782727503424	0
0	17360	4102.74453405655	1
0	17362	4102.800305464256	2
0	17366	4103.967379566779	1
0	17371	4103.99217045986	0
0	17401	4110.459318075899	1
0	17402	4110.69392567039	0
0	17514	4149.479362929712	1
0	17515	4151.043870144617	0
0	17539	4155.20710200514	1
0	17541	4156.02739598781	2
0	17543	4157.338161196076	3
0	17544	4157.434375857647	2
0	17549	4157.685669699729	1
0	17554	4158.543122162615	0
0	17560	4158.768360528616	1
0	17561	4158.927955728366	0
0	17572	4161.160427767686	1
0	17578	4163.930927428072	2
0	17581	4164.524646219976	1
0	17588	4166.981073359669	0
0	17594	4167.516497805114	1
0	17596	4167.733820254281	2
0	17602	4169.665842160289	1
0	17607	4170.15900281764	0
0	17620	4173.533296679283	1
0	17622	4175.073167579004	0
0	17628	4175.674652332421	1
0	17630	4175.982888518627	2
0	17633	4177.665858199613	1
0	17641	4180.431773781634	0
0	17686	4191.936589396898	1
0	17687	4194.274956035819	0
0	17702	4197.532277103379	1
0	17704	4198.877742398877	2
0	17708	4199.159064099932	1
0	17713	4199.529686993491	0
0	17729	4201.189574560594	1
0	17730	4201.654871760187	0
0	17742	4202.173399159888	1
0	17744	4202.2059435231	2
0	17748	4203.9382681119	3
0	17750	4204.777733810349	4
0	17752	4204.832749131584	5
0	17754	4205.286468154404	6
0	17756	4206.061428178841	7
0	17759	4206.85903113615	6
0	17764	4207.105924309371	5
0	17769	4207.352914152386	4
0	17775	4207.407651171163	5
0	17777	4207.739414268272	6
0	17780	4209.130291107304	5
0	17785	4209.55158988289	4
0	17791	4209.671145320804	3
0	17798	4210.540612686201	2
0	17803	4210.610858550809	1
0	17809	4212.121214054872	2
0	17815	4215.089908707832	1
0	17821	4215.350183692554	2
0	17823	4216.086733777978	1
0	17829	4216.183259416032	2
0	17830	4216.643439755836	1
0	17836	4217.250613812072	2
0	17837	4217.341431688168	1
0	17849	4224.665284478845	0
0	17868	4226.415889123244	1
0	17872	4227.979807612785	2
0	17874	4228.295296208755	1
0	17881	4229.73031884651	2
0	17883	4230.870561380994	1
0	17889	4232.29921431168	0
0	17895	4232.361544318456	1
0	17896	4232.552702918874	0
0	17947	4244.57809691177	1
0	17950	4246.215473388142	0
0	17959	4249.00650467976	1
0	17963	4250.193025619025	2
0	17966	4250.976923764052	1
0	17973	4251.575295354781	2
0	17976	4252.854899913531	3
0	17981	4255.270561773579	4
0	17984	4255.587143251366	3
0	17989	4255.63065495624	2
0	17996	4255.881684214551	1
0	18002	4257.489340003836	0
0	18015	4258.716136197625	1
0	18016	4258.750839566715	0
0	18055	4268.805630757267	1
0	18056	4268.831751769412	0
0	18068	4271.843152558873	1
0	18074	4273.727743319285	2
0	18076	4275.477334233037	1
0	18081	4275.514833061878	0
0	18094	4277.633742858041	1
0	18096	4278.229650405367	2
0	18097	4278.510654530875	1
0	18103	4280.067514229795	0
0	18109	4280.210938285557	1
0	18110	4280.689276626918	0
0	18116	4281.228259638355	1
0	18117	4281.458422833805	0
0	18171	4300.400736774091	1
0	18175	4302.162174950018	2
0	18177	4303.796467475605	3
0	18179	4304.81943607696	4
0	18180	4305.12579085834	3
0	18188	4305.791810741691	2
0	18194	4305.871944599455	3
0	18195	4306.435967066604	2
0	18200	4306.450126140594	1
0	18205	4307.158729727056	0
0	18223	4311.175206295149	1
0	18225	4311.733107279367	0
0	18250	4318.152108048228	1
0	18257	4321.169347455654	2
0	18258	4321.723717195685	1
0	18265	4323.232884923425	0
0	18274	4324.487577183787	1
0	18277	4326.458465511277	0
0	18294	4329.046182710067	1
0	18298	4335.957442795147	2
0	18299	4336.458946365431	1
0	18304	4336.54883406311	0
0	18310	4336.663734224018	1
0	18311	4336.743497437713	0
0	18322	4337.882902837989	1
0	18324	4338.049528527748	0
0	18330	4338.684293450974	1
0	18331	4339.101039984862	0
0	18337	4339.321488244792	1
0	18339	4340.42703926298	0
0	18363	4349.11824064886	1
0	18364	4349.580608441136	0
0	18370	4350.664647024628	1
0	18372	4351.175483028361	0
0	18394	4357.424349184133	1
0	18397	4358.832016428465	0
0	18409	4363.379565702818	1
0	18412	4365.065902176919	0
0	18472	4381.137707448728	1
0	18473	4381.217217022943	0
0	18504	4387.985337249713	1
0	18507	4388.240139867474	0
0	18532	4394.36437409755	1
0	18537	4398.31933763298	0
0	18543	4398.55428192099	1
0	18544	4399.136008946782	0
0	18563	4400.602318724078	1
0	18565	4400.759423324309	2
0	18566	4401.012719306652	1
0	18572	4401.064901000062	0
0	18580	4402.220113118229	1
0	18581	4402.624985744149	0
0	18597	4406.244901758449	1
0	18599	4406.750560311175	0
0	18664	4427.357852097111	1
0	18665	4427.807757586181	0
0	18679	4429.26049014681	1
0	18681	4429.510682075485	0
0	18694	4431.677708340846	1
0	18695	4431.688877554119	0
0	18735	4440.597135658329	1
0	18736	4441.477737745879	0
0	18743	4441.76583379148	1
0	18745	4442.684309999507	0
0	18795	4453.470791607921	1
0	18796	4453.474915580771	0
0	18809	4454.369986369433	1
0	18812	4458.143906733171	0
0	18823	4459.230205097828	1
0	18824	4459.630594970733	0
0	18839	4460.716430770076	1
0	18844	4462.543851751363	2
0	18845	4462.676807854055	1
0	18850	4462.787384844696	0
0	18862	4463.336728626239	1
0	18864	4463.952025705335	0
0	18880	4467.040116516239	1
0	18881	4467.797818151837	0
0	18888	4469.497420238495	1
0	18889	4470.084339164603	0
0	18928	4482.016821606395	1
0	18930	4482.507765896828	0
0	18945	4488.133639609265	1
0	18947	4489.605437481609	2
0	18948	4489.788950405059	1
0	18955	4490.329410575684	0
0	18972	4494.474607255288	1
0	18973	4495.508687511373	0
0	18984	4497.099073412071	1
0	18991	4500.771612011511	2
0	18992	4501.822510172019	1
0	18998	4503.119051289119	0
0	19032	4515.622931397414	1
0	19034	4516.604983122694	0
0	19040	4516.639339439486	1
0	19041	4516.705814075989	0
0	19226	4563.538482588905	1
0	19227	4564.231084190517	0
0	19240	4566.556987781851	1
0	19241	4567.148449402783	0
0	19254	4568.761702568567	1
0	19257	4569.624615347129	2
0	19264	4572.821486544746	3
0	19266	4573.989429995052	4
0	19267	4574.083671920062	3
0	19272	4575.262755643116	2
0	19278	4575.573650917467	3
0	19279	4576.753494021278	2
0	19284	4576.91930291276	1
0	19290	4577.362345955014	0
0	19298	4579.38356908191	1
0	19300	4580.253069906134	2
0	19302	4580.411544350804	3
0	19303	4584.188634664985	2
0	19308	4584.303672986424	1
0	19313	4584.858571998709	0
0	19321	4588.289438310798	1
0	19325	4589.075949384481	0
0	19332	4590.435756032045	1
0	19337	4591.732795751618	0
0	19361	4598.66357896188	1
0	19362	4599.117721308135	0
0	19386	4602.915870239349	1
0	19389	4603.877817057197	0
0	19395	4604.437700078429	1
0	19397	4604.790896959833	0
0	19419	4607.123222175773	1
0	19420	4607.19236286769	0
0	19442	4615.321340334027	1
0	19444	4616.470995635166	0
0	19455	4618.191673916548	1
0	19460	4621.504017532782	0
0	19511	4634.908214393488	1
0	19512	4635.66970836934	0
0	19519	4636.33827585762	1
0	19522	4636.549344454356	2
0	19524	4638.353584994247	1
0	19530	4638.66386720641	2
0	19532	4640.565924756879	1
0	19537	4641.281606183481	0
0	19581	4654.512388482658	1
0	19584	4655.505883985686	0
0	19613	4663.748623757253	1
0	19615	4664.159677778421	2
0	19619	4664.354233104081	3
0	19623	4665.436174974813	4
0	19624	4666.018856049489	3
0	19629	4666.190434388093	2
0	19634	4666.338509112293	1
0	19643	4668.450412219564	2
0	19645	4668.645390691204	3
0	19646	4670.362954764299	2
0	19651	4672.081291051166	1
0	19656	4672.651136804906	0
0	19662	4673.424237261771	1
0	19666	4673.734133998419	2
0	19667	4675.066645812909	1
0	19675	4676.780221781293	0
0	19695	4680.40837694732	1
0	19700	4683.438368247979	2
0	19701	4683.440464538763	1
0	19706	4684.38909203312	0
0	19734	4689.497044214855	1
0	19735	4689.526006731791	0
0	19753	4691.295793668845	1
0	19757	4693.068859484193	2
0	19758	4693.141357687275	1
0	19763	4693.510891763945	0
0	19790	4696.60153593366	1
0	19792	4696.970087013306	2
0	19794	4697.932982112824	1
0	19799	4698.178474119033	0
0	19807	4701.239713614968	1
0	19808	4701.839451380917	0
0	19835	4708.854241848582	1
0	19836	4709.014267773409	0
0	19853	4709.691559658721	1
0	19856	4711.707141994429	0
0	19867	4713.868191128096	1
0	19868	4714.191872000445	0
0	19876	4717.837069618032	1
0	19877	4718.393478304349	0
0	19891	4721.410461044961	1
0	19896	4722.777861900014	0
0	19912	4724.103650873967	1
0	19914	4724.513228663927	0
0	19938	4739.505024667556	1
0	19939	4739.754403520445	0
0	19985	4752.161826400784	1
0	19987	4752.922454666715	2
0	19989	4754.664532777084	3
0	19990	4755.462125173009	2
0	19996	4755.890365383911	1
0	20002	4756.39751782406	2
0	20006	4757.707170115284	1
0	20012	4759.114879957175	0
0	20037	4764.955199358839	1
0	20041	4768.051123620733	2
0	20042	4768.85130114619	1
0	20050	4769.445504842899	2
0	20051	4769.996023461224	1
0	20057	4770.500453666021	2
0	20058	4770.904041578067	1
0	20063	4770.911034645157	0
0	20069	4771.803085946969	1
0	20070	4771.894105922659	0
0	20084	4775.983489201021	1
0	20086	4778.904356263247	2
0	20097	4780.951413471053	1
0	20102	4782.636937253396	0
0	20118	4785.480669377989	1
0	20120	4785.795431157284	0
0	20129	4788.904097545987	1
0	20138	4792.271940264407	0
0	20178	4798.643072380509	1
0	20179	4799.481034270293	0
0	20187	4801.040070725796	1
0	20188	4801.072679271904	0
0	20201	4801.628871410464	1
0	20202	4802.096422049038	0
0	20233	4810.527246864917	1
0	20234	4811.117316524109	0
0	20260	4819.231852547209	1
0	20261	4820.465076411294	0
0	20267	4820.62470830409	1
0	20268	4820.821443409994	0
0	20274	4821.374805794341	1
0	20275	4822.275305739483	0
0	20289	4825.171481735399	1
0	20290	4825.934156411691	0
0	20312	4827.443045745789	1
0	20313	4828.308509154374	0
0	20337	4832.599621977851	1
0	20338	4832.676945872226	0
0	20413	4857.972522828331	1
0	20416	4858.717043109699	2
0	20418	4859.850334254253	3
0	20419	4859.921347645822	2
0	20424	4859.991386670059	1
0	20430	4860.862465467116	2
0	20431	4861.025123796977	1
0	20436	4861.073635254681	0
0	20442	4861.351238431584	1
0	20444	4861.697323357669	2
0	20445	4862.127768136663	1
0	20451	4862.800162669678	0
0	20469	4868.163830747873	1
0	20470	4868.252822570685	0
0	20478	4869.542157382977	1
0	20479	4869.862578896194	0
0	20490	4870.188803691876	1
0	20493	4870.515702009868	2
0	20494	4870.655176881372	1
0	20499	4870.748901002646	0
0	20550	4891.234324257138	1
0	20551	4891.596417246793	0
0	20568	4896.168792503229	1
0	20571	4896.380103483885	2
0	20572	4897.434264389406	1
0	20578	4897.894777759716	0
0	20590	4899.237512156002	1
0	20593	4900.157425635672	0
0	20624	4905.42893579119	1
0	20625	4906.368965456168	0
0	20692	4928.242674963534	1
0	20694	4928.340891937721	2
0	20695	4928.781281516801	1
0	20700	4929.032047681985	0
0	20718	4934.245512954673	1
0	20719	4935.710080622346	0
0	20737	4939.67520213642	1
0	20738	4940.07596875213	0
0	20789	4950.922959369801	1
0	20792	4954.628420116184	0
0	20807	4958.178810176507	1
0	20811	4958.742213874984	2
0	20812	4959.840482085705	1
0	20818	4961.425162516744	0
0	20828	4963.834591394823	1
0	20830	4965.061799063053	0
0	20873	4974.06610533539	1
0	20874	4974.867649706916	0
0	20895	4978.816791426399	1
0	20899	4980.542409084253	0
0	20939	4993.013365341254	1
0	20940	4996.1055796812	0
0	20946	4996.709181438391	1
0	20947	4997.113821016395	0
0	20954	4997.468412980961	1
0	20955	4997.710970767238	0
0	20970	5000.787524436007	1
0	20972	5001.466641488623	2
0	20973	5002.136586361297	1
0	20980	5003.416963156396	0
0	20986	5003.500662715086	1
0	20987	5003.588604361661	0
0	20998	5003.783813656085	1
0	21000	5004.256884834626	2
0	21004	5004.7585437363	1
0	21009	5005.055758368312	0
0	21043	5010.657047004656	1
0	21044	5011.549894631877	0
0	21098	5042.447573935029	1
0	21099	5042.567049689281	0
0	21120	5044.256819790668	1
0	21121	5045.823948654851	0
0	21127	5046.960076446768	1
0	21128	5048.373229335835	0
0	21134	5049.033259183254	1
0	21135	5049.458440859969	0
0	21155	5061.730167793149	1
0	21156	5062.824413102321	0
0	21186	5070.149271275992	1
0	21187	5072.367500277853	0
0	21194	5075.993070266032	1
0	21195	5076.268018642495	0
0	21203	5077.196241263386	1
0	21204	5077.652505228148	0
0	21208	5078.059462708613	1
0	21213	5078.760540480242	0
0	21217	5079.842506404483	1
0	21221	5082.278334816818	2
0	21228	5084.607797778455	1
0	21235	5086.397871252733	2
0	21238	5087.524603153651	3
0	21240	5088.070049293013	4
0	21241	5088.487148400577	3
0	21246	5088.711696289127	2
0	21253	5090.480473096146	3
0	21254	5094.257181507396	2
0	21259	5095.575288549625	1
0	21264	5095.936262464008	0
0	21293	5100.203951879953	1
0	21294	5100.514027083806	0
0	21328	5110.795806728811	1
0	21331	5111.785123816831	0
0	21347	5115.680957623747	1
0	21349	5115.72203845119	2
0	21353	5118.013307090292	3
0	21354	5118.638497151888	2
0	21361	5120.298877188102	1
0	21366	5121.523139364054	0
0	21372	5123.021565010645	1
0	21373	5124.852713396917	0
0	21380	5125.320681599063	1
0	21381	5125.738497466273	0
0	21393	5127.444131755489	1
0	21395	5127.549051004147	2
0	21396	5127.582909396512	1
0	21402	5128.86920421098	2
0	21403	5130.984470075648	1
0	21410	5131.28987173239	2
0	21411	5132.225299047933	1
0	21417	5133.148043955169	0
0	21430	5135.590322401575	1
0	21432	5136.865980079153	0
0	21447	5138.730527370092	1
0	21450	5140.459994420134	0
0	21487	5150.285418354804	1
0	21489	5150.977660634022	0
0	21510	5151.863784814264	1
0	21513	5152.919927944666	0
0	21525	5153.167393377586	1
0	21527	5154.279530360166	2
0	21533	5156.708918426603	3
0	21538	5162.280743234903	2
0	21545	5162.793861255807	3
0	21548	5163.020387904496	2
0	21553	5163.223449126667	1
0	21558	5163.745861284805	0
0	21567	5165.262594013281	1
0	21568	5166.004354747634	0
0	21579	5169.307501871411	1
0	21580	5170.120200374853	0
0	21604	5178.934089727809	1
0	21605	5179.734638251152	0
0	21624	5183.463147070437	1
0	21629	5184.719840675812	0
0	21643	5186.015100760801	1
0	21644	5186.243956273131	0
0	21656	5187.481975845995	1
0	21659	5189.245718210812	0
0	21675	5191.840007395102	1
0	21678	5192.297601870051	0
0	21685	5192.722000252729	1
0	21686	5192.765579629613	0
0	21695	5193.066704809673	1
0	21701	5194.071430977203	2
0	21702	5195.578926563023	1
0	21707	5196.192804213404	0
0	21713	5196.697425306791	1
0	21721	5198.401544113258	2
0	21724	5198.865565838716	3
0	21725	5200.006228509249	2
0	21730	5200.082763425338	1
0	21735	5200.145182404619	0
0	21747	5202.476150165216	1
0	21752	5203.817211549618	2
0	21753	5204.41149164795	1
0	21758	5204.419143375865	0
0	21777	5205.818264571059	1
0	21781	5206.971556736674	0
0	21800	5208.736510444286	1
0	21802	5209.552634626961	0
0	21818	5214.190550012213	1
0	21820	5214.75770770523	0
0	21831	5215.087018554286	1
0	21834	5215.580677187439	0
0	21855	5221.575438753998	1
0	21858	5223.866115512239	0
0	21869	5224.495014719598	1
0	21874	5225.125542678948	2
0	21875	5225.944869876172	1
0	21884	5227.585540204197	0
0	21892	5227.786136554894	1
0	21899	5231.280457527713	2
0	21900	5231.431631079918	1
0	21908	5232.551755945056	2
0	21909	5233.088403919293	1
0	21917	5235.591982743851	0
0	21956	5240.856688609694	1
0	21961	5244.145478951544	2
0	21963	5245.859139285372	3
0	21965	5246.174141106456	4
0	21966	5248.778576738212	3
0	21971	5249.691438877627	2
0	21979	5250.661599457567	3
0	21981	5251.053245392711	4
0	21982	5251.400874586054	3
0	21989	5252.908287731137	2
0	21996	5253.883972946592	1
0	22002	5253.906218527452	0
0	22008	5253.921933252405	1
0	22009	5254.749583122159	0
0	22015	5255.116679962553	1
0	22017	5255.769066102593	2
0	22020	5256.33275851108	1
0	22026	5257.213822595615	0
0	22094	5266.255937847587	1
0	22096	5266.333319498466	2
0	22103	5269.190301085331	1
0	22108	5269.696188071575	0
0	22119	5270.386319491367	1
0	22120	5270.588345279243	0
0	22127	5272.252783502052	1
0	22130	5273.579835861785	0
0	22145	5275.693496438876	1
0	22148	5276.037321510675	2
0	22155	5279.120221187043	1
0	22160	5279.155583151109	0
0	22168	5279.874964615486	1
0	22170	5280.9396180883	2
0	22173	5281.215237966812	1
0	22178	5281.498664407551	0
0	22190	5284.665229408071	1
0	22193	5286.822928919712	0
0	22206	5289.581355280232	1
0	22207	5292.704898518458	0
0	22219	5295.889647474665	1
0	22220	5297.062686097829	0
0	22234	5299.383456530311	1
0	22238	5300.533923535884	2
0	22239	5300.954268482612	1
0	22248	5301.859356873275	0
0	22277	5305.454281181233	1
0	22278	5306.620419226074	0
0	22307	5312.886128037984	1
0	22316	5313.921503539425	2
0	22319	5314.371366128242	1
0	22324	5315.111035718642	0
0	22335	5316.25357192177	1
0	22337	5316.937309890782	0
0	22357	5318.964109389262	1
0	22358	5320.309296089301	0
0	22390	5329.491145922461	1
0	22391	5330.085476334044	0
0	22397	5330.135306245907	1
0	22401	5330.4637543957	2
0	22403	5330.581475076244	1
0	22408	5330.855759511205	0
0	22439	5337.690836388436	1
0	22443	5338.47964350163	2
0	22448	5339.844533870354	1
0	22455	5341.02486746653	0
0	22467	5341.281473584402	1
0	22470	5341.580759597667	0
0	22479	5342.152386441311	1
0	22483	5344.176624940315	0
0	22502	5349.348923035038	1
0	22505	5349.52453150145	0
0	22534	5358.291919783633	1
0	22536	5358.618094681721	0
0	22557	5360.611877769553	1
0	22558	5360.936952198891	0
0	22604	5379.193559594808	1
0	22605	5379.282935280755	0
0	22611	5379.593466088411	1
0	22614	5380.422749911623	2
0	22616	5380.589027822381	3
0	22618	5381.499279794539	4
0	22619	5381.756502388743	3
0	22629	5383.986077895023	4
0	22631	5384.17176524137	5
0	22634	5384.61454725486	4
0	22639	5384.758476920405	3
0	22645	5386.203865295031	2
0	22652	5386.869153948362	1
0	22659	5387.49617604198	2
0	22660	5388.199788297338	1
0	22668	5392.924661611965	0
0	22691	5396.285742965083	1
0	22692	5396.927217998907	0
0	22698	5397.101230280726	1
0	22699	5398.282375583713	0
0	22759	5410.735878762331	1
0	22763	5412.101800493841	2
0	22764	5412.215218455063	1
0	22774	5412.65332013663	2
0	22776	5412.931382129972	1
0	22782	5413.422942990433	0
0	22808	5422.107378895786	1
0	22809	5422.51039361227	0
0	22832	5426.348242550193	1
0	22833	5426.592038889548	0
0	22889	5437.246734998446	1
0	22890	5437.833942485995	0
0	22945	5453.00439365846	1
0	22947	5453.062776650363	2
0	22948	5453.783442172829	1
0	22954	5456.310266484986	0
0	22964	5458.785388959994	1
0	22967	5459.432084060636	0
0	23020	5474.791741430187	1
0	23021	5475.598602921135	0
0	23049	5484.611789626049	1
0	23051	5486.725574198927	0
0	23057	5487.002705506212	1
0	23058	5487.845212755129	0
0	23103	5496.555013739199	1
0	23104	5496.584589586295	0
0	23130	5500.363675985164	1
0	23133	5500.647122478869	2
0	23136	5501.2983882079	1
0	23142	5502.542183368847	2
0	23146	5503.947673757735	1
0	23152	5503.975252955606	2
0	23155	5505.399383551931	1
0	23162	5505.91240771838	0
0	23177	5509.320855675861	1
0	23179	5509.735827758241	2
0	23181	5509.967711783492	3
0	23182	5510.056896781262	2
0	23187	5510.89444034272	1
0	23193	5512.26348749894	0
0	23202	5513.325233810584	1
0	23203	5513.339161537686	0
0	23222	5516.516905674657	1
0	23228	5519.159446593522	0
0	23242	5521.126889213723	1
0	23243	5521.470708503683	0
0	23250	5522.906959193326	1
0	23254	5523.713756506756	0
0	23275	5531.208042948206	1
0	23277	5532.002968677069	2
0	23280	5532.708278726442	1
0	23286	5533.161999778698	0
0	23293	5533.526318663271	1
0	23300	5534.603607445193	0
0	23314	5539.550707448303	1
0	23315	5539.833083901758	0
0	23324	5540.303059971396	1
0	23326	5542.443182159381	2
0	23328	5543.234997354857	3
0	23330	5544.167874068973	4
0	23333	5544.756964363412	3
0	23340	5545.074204063295	4
0	23342	5545.295400758652	3
0	23350	5546.401114650547	2
0	23355	5546.54444549341	1
0	23360	5546.732467664697	0
0	23366	5546.762525781852	1
0	23369	5548.900306011666	0
0	23375	5549.466126285533	1
0	23376	5549.497346444857	0
0	23408	5554.602738879598	1
0	23415	5558.035357487725	0
0	23440	5567.978241837575	1
0	23441	5568.737350497018	0
0	23460	5573.029612040255	1
0	23464	5576.01898552869	2
0	23466	5577.569430243105	1
0	23471	5578.053824534769	0
0	23487	5579.908592776338	1
0	23491	5580.852600939325	2
0	23493	5581.07428436021	3
0	23495	5582.520375887178	2
0	23501	5582.822573620567	1
0	23507	5586.31819001988	0
0	23527	5589.929386225401	1
0	23530	5590.694640761374	0
0	23545	5592.928625843323	1
0	23548	5594.947418400214	0
0	23560	5596.679519767069	1
0	23561	5597.769330145007	0
0	23573	5598.379311749322	1
0	23574	5599.286186989658	0
0	23588	5604.83193623264	1
0	23590	5604.837727127833	2
0	23593	5608.052989984473	1
0	23599	5610.06618946539	2
0	23601	5610.867194242818	1
0	23606	5610.908036144993	0
0	23612	5611.835615537902	1
0	23614	5612.470867505606	2
0	23616	5613.724605420087	3
0	23618	5614.277882503491	2
0	23624	5614.596934724124	1
0	23629	5615.19140875944	0
0	23635	5615.82499879942	1
0	23639	5616.296143465629	2
0	23640	5616.301434418992	1
0	23648	5617.42624787054	2
0	23651	5620.65560854727	1
0	23658	5621.776711679141	2
0	23660	5622.737000375275	1
0	23665	5623.004980404687	0
0	23708	5635.74866688667	1
0	23709	5636.22903175594	0
0	23716	5637.253909318547	1
0	23717	5637.554693820126	0
0	23773	5648.988246725835	1
0	23778	5650.279506756578	0
0	23787	5650.797587599378	1
0	23794	5653.43936194495	0
0	23805	5653.61114733952	1
0	23807	5654.64423620518	2
0	23808	5654.914400182167	1
0	23816	5655.263430376935	2
0	23820	5656.556424923748	1
0	23826	5657.105065649089	0
0	23883	5674.877986239446	1
0	23884	5676.972563808445	0
0	23890	5677.892544959662	1
0	23892	5679.010118398578	2
0	23895	5680.859510245904	1
0	23902	5682.095030928025	0
0	23908	5682.222879770925	1
0	23912	5683.299001331975	0
0	23928	5683.817718912239	1
0	23932	5686.076872197552	2
0	23935	5687.991885827004	1
0	23941	5688.68302982873	0
0	23993	5696.563808138317	1
0	23996	5697.760147100959	2
0	23998	5698.259605557348	3
0	24000	5699.162846235312	2
0	24006	5699.595253716756	1
0	24011	5702.244757032968	0
0	24017	5702.365802649772	1
0	24018	5703.647562645519	0
0	24024	5703.983271985247	1
0	24025	5704.172749941848	0
0	24150	5745.441475280919	1
0	24151	5745.576705010289	0
0	24158	5746.757398062427	1
0	24159	5747.880655744578	0
0	24197	5755.744624816517	1
0	24199	5756.180142340075	2
0	24201	5756.868169055642	3
0	24202	5761.148245929892	2
0	24209	5761.663935506019	1
0	24216	5761.920095923333	0
0	24223	5767.061811854981	1
0	24225	5768.569895347024	2
0	24231	5771.055000123689	3
0	24232	5771.650922036702	2
0	24238	5772.106263210983	1
0	24243	5772.284714960705	0
0	24262	5774.895498986083	1
0	24263	5775.288985412556	0
0	24292	5780.693394550252	1
0	24293	5782.137579471059	0
0	24311	5784.089839739835	1
0	24313	5785.052717813218	2
0	24314	5787.131392103289	1
0	24319	5787.624880131684	0
0	24341	5793.527084352677	1
0	24345	5795.498344153432	2
0	24347	5796.352318629893	3
0	24352	5799.217913711483	4
0	24357	5801.131388194462	3
0	24362	5801.97515505279	2
0	24367	5802.445454079927	1
0	24373	5803.434003136426	2
0	24374	5804.003866808859	1
0	24380	5805.129696435975	0
0	24400	5807.112485073944	1
0	24402	5807.136579954503	2
0	24404	5807.486274455957	3
0	24405	5808.019544854694	2
0	24410	5808.148569793235	1
0	24416	5809.208083711425	2
0	24417	5810.262524321658	1
0	24422	5812.712348316244	0
0	24430	5815.470757066775	1
0	24431	5815.690173884138	0
0	24447	5817.070629926947	1
0	24449	5817.607811378187	0
0	24475	5821.365370660782	1
0	24483	5824.251358313557	2
0	24485	5824.785322718707	3
0	24486	5824.952081835069	2
0	24491	5825.113039930325	1
0	24502	5830.034543930031	0
0	24523	5832.318318458066	1
0	24530	5835.938544858721	0
0	24562	5859.307149984807	1
0	24563	5859.512331457675	0
0	24585	5864.482495209511	1
0	24586	5865.659037378903	0
0	24608	5871.356376439132	1
0	24610	5872.327509258319	2
0	24612	5872.392105162654	3
0	24613	5873.600856321815	2
0	24618	5873.746747009093	1
0	24624	5874.657129763257	0
0	24672	5883.075512676145	1
0	24673	5883.273719017237	0
0	24730	5909.503912937112	1
0	24731	5909.916948542049	0
0	24797	5935.72771751113	1
0	24798	5935.988950205108	0
0	24810	5939.323036695844	1
0	24814	5940.30771993927	0
0	24835	5949.09406419193	1
0	24836	5949.405795943668	0
0	24856	5952.016966773188	1
0	24861	5953.40138076381	2
0	24862	5955.576378685015	1
0	24868	5955.801757594206	0
0	24885	5957.341731556286	1
0	24891	5960.814943666117	2
0	24895	5961.300861172707	3
0	24897	5961.811896775456	4
0	24899	5962.67760085316	5
0	24902	5963.02125143877	4
0	24912	5964.345928807107	3
0	24920	5969.357879965705	2
0	24926	5970.223837039972	1
0	24932	5970.65827854328	0
0	24955	5976.009719596074	1
0	24958	5976.299105933798	0
0	24974	5981.312909469676	1
0	24977	5981.8500559115	2
0	24978	5982.33848889419	1
0	24988	5986.037335686214	0
0	24994	5986.771411704221	1
0	24996	5987.547941667892	2
0	24999	5988.382924495799	1
0	25005	5989.572937432127	0
0	25036	5994.902253200687	1
0	25037	5995.208506866991	0
0	25049	5996.505495301602	1
0	25051	5998.681054453946	2
0	25053	5998.795242894567	3
0	25057	5999.672897783698	4
0	25061	6000.990047101281	5
0	25062	6002.533828603748	4
0	25068	6002.636143848293	5
0	25070	6003.142646471832	4
0	25075	6003.405577060638	3
0	25081	6004.982764904103	2
0	25087	6006.113602896071	3
0	25089	6007.308991251157	2
0	25096	6008.657572153245	1
0	25102	6008.962096479419	2
0	25104	6009.593270585385	3
0	25105	6010.922427205051	2
0	25112	6011.629098164325	3
0	25119	6014.735022246654	2
0	25124	6014.921040877551	1
0	25130	6016.043152098274	0
0	25143	6018.631139877683	1
0	25147	6020.145859322746	0
0	25164	6022.085465885097	1
0	25165	6022.749663378355	0
0	25182	6025.818149466093	1
0	25183	6027.377383576553	0
0	25192	6028.889788013687	1
0	25197	6030.496022335621	2
0	25198	6031.744138544202	1
0	25205	6032.483041167047	0
0	25223	6036.94569938481	1
0	25225	6037.881607039848	2
0	25227	6039.829326568906	3
0	25231	6041.795887415802	2
0	25236	6042.583539222555	1
0	25241	6042.702970366546	0
0	25253	6044.588204199597	1
0	25260	6047.750211881257	2
0	25262	6048.394392544024	1
0	25268	6050.054132062221	0
0	25363	6080.943037453883	1
0	25366	6081.569474196561	0
0	25380	6082.565335286166	1
0	25381	6083.222168941097	0
0	25401	6087.355412021711	1
0	25403	6088.281501405738	2
0	25404	6088.575222468017	1
0	25411	6088.910201639938	2
0	25412	6088.99887495579	1
0	25417	6089.024801986786	0
0	25454	6096.46697077422	1
0	25458	6097.793918363629	0
0	25466	6099.158276228293	1
0	25467	6100.872534382544	0
0	25496	6109.493734308213	1
0	25497	6109.548660758889	0
0	25544	6124.321458653417	1
0	25545	6125.528379807078	0
0	25570	6129.890290499385	1
0	25572	6130.200218935716	0
0	25580	6130.580538664963	1
0	25581	6130.643616085597	0
0	25587	6131.778425528981	1
0	25588	6132.335614356614	0
0	25594	6132.569108561551	1
0	25598	6132.754568958984	0
0	25650	6143.634502354513	1
0	25652	6144.021924982658	0
0	25734	6167.859680283035	1
0	25735	6168.040644041561	0
0	25772	6174.656082579874	1
0	25773	6175.092655315858	0
[...]
4	116658	27659.978599885463	1.672121905202
4	116723	27670.752087539759	3.074250186201
4	116752	27677.088551571825	5.727023986596
4	116757	27677.239066459021	4.847107008703
4	116777	27683.754774717475	1.051900016121
4	116793	27688.683178414549	2.623041352911
4	116815	27693.698347201201	3.781502670165
4	116836	27695.737224282586	2.918629000802
4	116843	27698.304837621129	2.125401550221
4	116851	27699.515641537133	0.818633901745
4	116870	27704.745918757989	3.753563277341
4	116883	27706.872372660069	5.503766034255
4	116896	27708.380556886803	6.321286465994
4	116914	27711.619250184325	7.269149846409
4	116925	27714.917541334406	2.894197319823
4	116932	27716.52642858745	1.986894123945
4	116948	27719.570566174512	2.31836691443
4	116967	27722.443470416743	3.467175441578
4	116977	27724.707765376553	3.674014454385
4	117042	27744.282376607281	3.209244314204
4	117057	27752.408721988302	1.949391108482
4	117080	27759.021658122203	0.668524669374
4	117099	27762.204453861086	3.420700319727
4	117104	27764.044400358754	4.102865168357
4	117124	27771.979966081608	6.349177009485
4	117157	27776.341829705311	5.842829038247
4	117165	27780.225120678144	8.91810303169
4	117183	27788.727481802582	1.942826886662
4	117227	27799.84291392238	1.017709939603
4	117235	27800.787338545267	1.017185489738
4	117278	27810.916349551808	4.253640512418
4	117295	27812.437664285278	1.68364929245
4	117302	27813.301086341176	1.581419827467
4	117356	27821.478491748197	2.007947708165
4	117366	27824.785562165276	3.180504979128
4	117395	27830.027145579396	1.934548587406
4	117426	27835.003432217492	4.823816686474
4	117443	27840.700791617331	6.10468804481
4	117487	27853.785413752205	15.906500718378
4	117507	27855.381430786222	16.059082772961
4	117519	27856.696076530716	9.159611501472
4	117532	27859.175710413935	11.10231017017
4	117541	27861.588065210487	3.328735029915
4	117564	27865.843584899111	2.794971392874
4	117580	27868.72480871537	5.188720429834
4	117586	27869.77598609641	3.351955397393
4	117594	27872.097972523904	3.491576464663
4	117607	27877.210493007985	5.7367653096
4	117631	27886.255313963378	13.660788301307
4	117641	27887.880628716755	12.819536821168
4	117651	27891.92243118177	15.186121784574
4	117688	27898.906811598256	19.347622863304
4	117763	27907.70125534908	25.066717231141
4	117768	27908.19041151558	10.5356015933
4	117777	27915.806538307085	12.474252047015
4	117784	27920.946639265972	17.150767683487
4	117809	27923.939847440637	19.389631967809
4	117832	27930.691377308585	24.741375332064
4	117844	27932.401384194546	10.216897217976
4	117885	27939.286782009299	16.373857756494
4	117895	27940.813547058099	13.046481681909
4	117902	27941.97963844138	9.057079421501
4	117912	27942.991107960343	5.93319127379
4	117921	27949.009718057929	9.380915774462
4	117930	27949.312287634196	9.316239556438
4	117963	27963.219496019449	1.893315696791
4	117988	27971.601806014781	2.869812300085
4	117996	27977.781475619479	0.911712338794
4	118021	27982.393641060324	3.489305273991
4	118095	27999.858190534375	7.264203924885
4	118119	28006.667506874175	13.17193508023
4	118124	28006.722503751008	8.490839921944
4	118134	28009.202523873502	5.574281301217
4	118205	28031.576961834738	24.104018101657
4	118211	28034.032682965266	19.996426485635
4	118216	28034.101659155391	17.228509151744
4	118221	28035.291647273191	12.273116060983
4	118240	28039.743756386652	0.203104603733
4	118322	28063.141031526182	13.335134544617
4	118326	28066.624935028455	10.066663849479
4	118341	28072.318328686685	1.097904743826
4	118380	28082.860663479134	7.592752033384
4	118396	28084.269131905883	6.80784725441
4	118445	28093.556837798641	0.538887319556
4	118505	28104.299571995875	6.401294763191
4	118514	28105.991496179651	5.44365312031
4	118519	28106.18347245385	0.202473376635
4	118544	28111.254852492515	1.304296402913
4	118568	28116.041734943905	0.164509999493
4	118586	28121.977147545854	5.195621608927
4	118602	28123.919292881329	6.178761598793
4	118609	28124.765795211461	5.724376256197
4	118614	28124.915498362558	5.225232833227
4	118618	28125.40829353885	1.012133065466
4	118639	28128.306517678266	1.877322069401
4	118651	28135.870439058329	9.260054355041
4	118685	28142.179221939409	15.44513453743
4	118707	28148.833912183032	14.248832909088
4	118734	28152.577300505828	11.083316318276
4	118775	28158.989942678671	9.628206989689
4	118783	28160.048762377153	2.62122266755
4	118793	28161.072261909026	2.214651451828
4	118804	28161.853491783651	2.215540766875
4	118826	28167.202778097951	6.208458696294
4	118873	28174.712136034821	12.280920493173
4	118895	28179.588655616179	16.838800101668
4	118902	28180.508869512713	16.820085223212
4	118913	28181.5222752262	16.29769154229
4	118919	28182.70410731663	15.916309941244
4	118930	28184.121965221024	12.267895592866
4	118941	28184.897965304543	12.239009959875
4	118951	28186.983542516822	14.291991739075
4	118962	28187.733987158521	10.652507092677
4	118968	28188.321655390124	5.281088046053
4	118978	28191.965843764435	5.980813531633
4	118987	28192.59496496726	0.735643080963
4	119023	28201.007703529875	2.100670024456
4	119044	28208.083469154408	6.615766796294
4	119081	28213.147186565908	1.504828740706
4	119103	28224.312732325234	0.776939824635
4	119142	28232.502383297682	0.859353466812
4	119183	28242.513520377931	1.173576860002
4	119238	28254.386085279983	1.858685511233
4	119307	28272.815943081598	5.776034378355
4	119319	28275.489439922559	0.32486143703
4	119326	28278.358463777953	0.108873569594
4	119367	28282.257522509625	0.545506696665
4	119375	28283.741794072642	1.963154654628
4	119388	28289.991210256909	1.108192463189
4	119396	28292.014379736367	0.637188661988
4	119403	28294.795935380416	1.085967448727
4	119418	28301.107079481206	5.85983664239
4	119445	28304.455869544747	1.198134056451
4	119464	28309.477432688997	2.251590690303
4	119487	28312.625694906134	4.1853885915
4	119502	28313.674162629736	3.456880594098
4	119523	28318.544823155024	3.78562912248
4	119536	28321.668252717503	5.748973520431
4	119575	28325.900550432662	2.20316734652
4	119594	28332.696024277265	4.197949843796
4	119613	28337.498882522186	7.063134830605
4	119635	28343.604586471734	7.599121158874
4	119649	28344.952921575368	8.173677244063
4	119667	28349.16801030189	0.174755909164
4	119678	28353.768088161713	3.77743150857
4	119702	28365.680523559762	0.337274466855
4	119735	28385.05819003777	1.912733711504
4	119759	28389.728304561647	0.222797229312
4	119774	28391.815952368217	0.173746911159
4	119805	28399.932101211743	6.150528849407
4	119829	28405.003824900028	5.955931377849
4	119851	28406.909322908594	3.01139787163
4	119872	28409.131075083091	1.314440680407
4	119940	28424.411887819121	8.668392752006
4	120034	28445.211567504083	11.239924790301
4	120064	28449.073254832765	15.047203811926
4	120073	28449.617451363802	15.288859595479
4	120081	28449.935671328549	14.372534182026
4	120114	28458.188430757467	21.914946245428
4	120148	28468.713611135258	19.184911973872
4	120159	28469.822655046624	19.68693968469
4	120169	28473.697227783349	21.87111897246
4	120182	28475.010914566193	16.793861161842
4	120192	28476.012661728164	15.920762810341
4	120212	28483.85147073343	3.548038398992
4	120221	28486.69605128294	5.672863084856
4	120246	28493.218608266883	1.501614237795
4	120268	28496.647785770948	2.368701715171
4	120278	28498.956042534017	3.78200330632
4	120322	28512.805490747127	4.673680208156
4	120360	28517.731451133761	9.004305867685
4	120373	28520.909321682175	11.993305131422
4	120406	28525.26555340681	16.271184390287
4	120413	28525.391598029472	2.079326049277
4	120439	28536.952127238846	13.370445988015
4	120491	28543.166752634831	16.112086672314
4	120498	28544.172021186955	12.956628629351
4	120504	28544.884269958048	11.720932668044
4	120509	28545.348111581182	8.891130204835
4	120519	28547.682046158174	10.250303575423
4	120527	28550.43812875295	6.406850970237
4	120535	28550.852574888242	3.88154494406
4	120544	28554.147776215633	6.121899036552
4	120564	28562.888443197412	0.665069999438
4	120571	28564.302342103488	0.559318647811
4	120601	28570.679259066885	2.867297090108
4	120618	28575.32108887515	3.663400139088
4	120656	28586.296593510414	0.741359136618
4	120681	28594.583008203371	8.918257978303
4	120716	28597.189969303548	10.998605505431
4	120749	28606.859445755962	15.56688028411
4	120754	28609.604180256361	17.346417080514
4	120759	28610.579515006134	17.705845535869
4	120770	28613.163273555395	10.491464270959
4	120793	28615.247840815083	8.728823940593
4	120805	28616.415844628269	2.756872658315
4	120823	28622.358024352939	2.443983326929
4	120929	28642.630941350158	12.01144293234
4	120968	28653.087225377891	21.992847123954
4	121027	28664.473685017673	32.034384811566
4	121036	28666.238938644664	31.718661077072
4	121056	28670.710420585077	33.653030592824
4	121074	28673.527082427033	35.308965620442
4	121081	28676.257237504781	35.760444136906
4	121095	28679.533109294422	38.936543964288
4	121142	28690.157788379367	49.559793487089
4	121152	28690.571632644153	41.241573767002
4	121160	28691.795323525011	29.775416160247
4	121322	28722.533253488105	59.766985741159
4	121331	28723.483737713397	58.913320726279
4	121355	28732.279230375249	46.471077962293
4	121370	28737.465418163078	45.637217075636
4	121391	28740.609576007365	37.791085576903
4	121396	28740.861033111329	37.226297874539
4	121403	28744.03987875334	37.143736010997
4	121416	28744.758372003984	34.504960547067
4	121431	28747.285951960859	35.081519042418
4	121475	28751.103985667471	33.681274881587
4	121492	28757.235075659272	36.911334517774
4	121519	28762.298992080161	29.397054897112
4	121529	28763.975106491154	16.15970759157
4	121536	28765.903398250593	16.66209291004
4	121560	28771.767360507236	21.304204031964
4	121569	28773.763772747409	17.867658309336
4	121575	28776.308297417117	20.192309447884
4	121580	28776.999772574759	7.089806517
4	121599	28786.647929910454	14.310780917772
4	121672	28797.883855853306	18.810766738295
4	121680	28798.793014691753	16.60721696627
4	121704	28803.972065301792	15.65333415567
4	121709	28804.111826330317	11.189887698331
4	121719	28807.107183242416	3.853061716715
4	121730	28809.282560869314	3.888154539603
4	121786	28821.449772752393	2.722177298799
4	121801	28822.880519008964	1.056273278002
4	121810	28827.230437923577	5.355383185632
4	121825	28836.184591723349	10.615910190666
4	121870	28843.447682518665	5.087224233011
4	121877	28845.555929322824	0.496110719131
4	121892	28848.918959502712	0.641936992477
4	121933	28862.517691434998	0.487961336907
4	121952	28867.273451919674	0.494852786928
4	121995	28881.507296448215	6.138719753167
4	122029	28889.055989515677	13.596225757709
4	122034	28889.804019451329	13.260127074597
4	122045	28891.48955296653	11.304027444765
4	122119	28913.211175025123	13.988719442672
4	122132	28915.909166755921	14.063230498138
4	122170	28922.885451886051	19.714564771173
4	122182	28924.911298891073	17.088506886181
4	122201	28926.457129882511	0.035360679023
4	122235	28936.716303992893	9.332263990351
4	122287	28943.184803063285	13.865847026029
4	122292	28943.211391205685	8.415699224257
4	122299	28945.824023968332	10.120025596128
4	122337	28957.785571228212	21.753616036542
4	122352	28959.609245434112	18.040840573432
4	122357	28960.326879681633	18.412266360813
4	122364	28962.02010095667	19.988456322243
4	122460	28978.147589440338	31.372134049026
4	122508	28987.431486442994	34.341391357952
4	122514	28988.241136023786	30.835764149345
4	122521	28988.397882671671	30.660753165021
4	122543	28994.131907844424	30.765157593208
4	122563	28996.35379196385	22.146240733506
4	122568	28996.553608691982	22.297291625454
4	122573	28996.938233342168	19.192601782645
4	122581	29000.389084285911	21.872667600871
4	122586	29000.577641068375	19.039751471696
4	122593	29003.060495568933	21.275750161812
4	122604	29005.601717550039	21.882310565384
4	122609	29007.239603839623	17.918877637395
4	122620	29010.431050009779	19.649923420541
4	122676	29020.612135349283	28.198258813959
4	122695	29023.009526670921	24.501855197018
4	122707	29025.330885054566	17.849708224956
4	122718	29030.991059473213	16.676322388527
4	122758	29041.546502712824	2.759431214898
4	122802	29052.893709507376	5.628105176155
4	122904	29079.160974522357	0.25777887026
4	122915	29079.834033140297	0.466350382747
4	122919	29080.20114050827	0.574162065064
4	122951	29087.431011686859	4.827836499141
4	123071	29105.348398150267	15.273446336355
4	123076	29105.687031606341	14.509464125113
4	123081	29106.123648201267	12.847206821371
4	123086	29106.159428550201	4.708935398347
4	123090	29106.585269330801	3.66301929276
4	123131	29119.748657802342	0.151111082129
4	123152	29128.999285607115	0.719600411632
4	123171	29133.363792364435	0.252855755284
4	123181	29137.442092975735	0.005777903732
4	123201	29142.268272044773	1.725524641917
4	123225	29145.028845778366	4.310472785158
4	123254	29149.025766775849	6.027381689343
4	123325	29170.356935510955	2.205590467065
4	123342	29174.093267626412	0.010025082723
4	123380	29181.69961406166	0.023411625802
4	123411	29193.830356188399	2.797440017828
4	123420	29194.643748812861	1.848383216198
4	123451	29201.495762721504	1.869921749826
4	123477	29206.574769380976	2.878696293659
4	123487	29209.219091578441	1.723303275584
4	123505	29211.973710416069	0.622020682672
4	123515	29213.145181933768	1.243450513276
4	123538	29220.016005338713	2.398295866475
4	123571	29227.383482202367	4.762187707606
4	123575	29231.3967510948	4.289367640459
4	123610	29240.724556975844	0.462031438212
4	123638	29247.924617682727	2.998743127048
4	123680	29256.616483053372	7.613610267262
4	123700	29266.78298237212	1.658830557348
4	123749	29281.928397463213	2.373099747989
4	123758	29290.146473867403	10.382369941486
4	123784	29310.812945398982	4.424797556105
4	123801	29315.481584931961	1.245070097427
4	123829	29325.50956369194	3.228064895344
4	123839	29326.413735369539	3.121077386938
4	123846	29326.526983759062	0.076243615073
4	123861	29329.160345990538	1.288635324668
4	123882	29332.467116382613	1.226224001338
4	123919	29338.369848084568	2.018870726558
4	123928	29342.776593823392	5.647151610345
4	123932	29342.876001533865	4.80871578773
4	123946	29347.361485912912	0.471908097508
4	123961	29352.949576642513	3.42696172173
4	124029	29364.722259251175	4.837821053104
4	124046	29368.476613579315	0.52097558145
4	124053	29372.940699767358	0.002978828372
4	124067	29376.523780157762	3.445515432614
4	124098	29381.834178474662	5.484522441658
4	124128	29386.618004167355	1.438009410488
4	124191	29401.059894415368	13.290769839955
4	124222	29403.633601394997	15.185460953534
4	124233	29406.657108425092	14.279450752562
4	124254	29417.834400819069	14.881831924709
4	124503	29484.485384681112	78.427185230547
4	124508	29485.033544444448	78.631558711429
4	124513	29485.142529614915	64.936519356373
4	124521	29487.157855175228	65.087309565695
4	124556	29492.438145980866	70.077801752764
4	124594	29499.816811618667	68.964111954299
4	124600	29500.049240892093	69.050277869832
4	124607	29503.199565127538	69.829612315996
4	124613	29503.545352994562	68.20406953112
4	124618	29505.108881350394	67.635458920729
4	124625	29508.302415116669	53.628911910437
4	124639	29512.350828422137	56.75613021158
4	124660	29515.2066358637	49.041550326608
4	124667	29517.599711219657	49.940239868863
4	124689	29521.486430592287	45.309842020677
4	124705	29523.159545194561	46.462283458712
4	124712	29524.035187527347	35.985737247262
4	124719	29526.813057696887	38.762333662801
4	124759	29532.449905946526	34.838908647512
4	124771	29536.776136339006	39.066706080926
4	124781	29537.898275097524	24.91076018164
4	124789	29539.930333745221	22.114768210967
4	124796	29542.481112673825	23.541852721711
4	124805	29548.83462968567	28.773564894838
4	124826	29551.063200801158	22.407892253513
4	124833	29553.847117071215	21.815698141462
4	124839	29554.791813803336	20.056675401191
4	124847	29555.5520322034	20.43105587739
4	124852	29555.66207119341	17.367970385173
4	124857	29555.943213509296	13.898350453697
4	124868	29560.65550648926	7.698224158695
4	124886	29563.83781190552	8.439957117017
4	124895	29565.197648782145	1.866626380501
4	124923	29569.072559023085	1.660602870665
4	124959	29578.89339867368	4.138696810805
4	124974	29581.92299765345	2.644452252421
4	124994	29585.089354056726	0.101426291076
4	125054	29603.917030384441	1.295713030994
4	125077	29609.53307673927	3.126662106607
4	125098	29612.025098424636	5.228484706418
4	125105	29613.115441160277	1.500376366481
4	125112	29614.753306204917	2.937148147836
4	125121	29620.462495764785	7.323612490493
4	125126	29620.993441542756	4.099423942383
4	125133	29622.530516758484	4.188991337707
4	125176	29631.08176310558	6.452686898172
4	125185	29632.96893912727	0.138585214775
4	125194	29635.53299774401	1.185514477621
4	125210	29640.905087635627	0.156133143114
4	125217	29645.06371110436	0.573762527386
4	125239	29651.392603570201	2.525517872332
4	125264	29659.782629391148	9.128280941435
4	125275	29661.889301434806	10.294039472682
4	125279	29662.644737459324	6.702714922908
4	125289	29665.60825174888	1.863822958979
4	125370	29676.966935417884	2.967207611578
4	125378	29679.571127639679	1.628903024611
4	125396	29683.988795424261	1.198419925676
4	125435	29690.565734419123	5.879421033133
4	125469	29697.022765128453	4.389071132583
4	125479	29698.784805937872	4.842982729687
4	125489	29699.431335629812	1.696405522155
4	125504	29702.210393587797	0.138207659625
4	125548	29718.736745170274	2.910849693314
4	125576	29726.480816563533	3.237981325773
4	125596	29730.478527025279	4.103828266638
4	125630	29737.120886213737	7.915664374534
4	125635	29737.271129839594	4.022371081587
4	125640	29738.740262402921	2.511786940779
4	125665	29741.835351032451	0.115911456203
4	125689	29747.562681016654	0.260944215794
4	125705	29751.775130210307	3.642576739973
4	125734	29755.582951687121	0.849555291872
4	125764	29762.108974624487	1.326587908994
4	125768	29762.157234360182	0.868247965892
4	125787	29765.658247036863	1.298493110286
4	125798	29767.684561457196	0.454009283783
4	125838	29774.899058301553	4.771231008024
4	125894	29784.487341884484	9.915014268764
4	125911	29788.125565382168	12.386550741182
4	125924	29792.180150005443	15.869412141215
4	125932	29793.402392469133	15.508785509838
4	125958	29800.71961381977	3.22665123116
4	125970	29804.170128832606	3.42564733198
4	125978	29806.813511268721	0.815096775474
4	125998	29815.892434123968	3.082799303558
4	126009	29818.657795345943	5.142159480285
4	126025	29821.12040505157	0.341990974931
4	126040	29828.09264430487	1.244897608295
4	126051	29830.497964709865	2.136570470928
4	126055	29830.567579424844	0.284742391654
4	126110	29851.052442966451	3.772768975856
4	126119	29851.535090914692	3.448438483902
4	126150	29854.714523435562	0.534019432903
4	126181	29861.172345054495	4.973006400817
4	126185	29862.073645726819	3.34715918006
4	126227	29869.31185881817	4.965992909575
4	126231	29869.411225011941	0.397758848063
4	126248	29875.177683669302	1.293486662349
4	126258	29876.14358537818	1.789735551539
4	126262	29876.345253562698	1.191058407255
4	126294	29879.724070109311	0.591453623078
4	126341	29893.276755628282	0.627122922155
4	126388	29900.283508393008	0.058809074173
4	126418	29908.480770230937	0.586000722219
4	126452	29919.201027068759	2.329482244579
4	126464	29920.480652659143	0.533640972149
4	126471	29921.275298058194	0.0052102888
4	126496	29927.103582906911	3.248641930092
4	126513	29927.790542013575	2.100447673772
4	126518	29928.001348555982	1.549918087314
4	126525	29929.813678616022	2.682140324442
4	126529	29930.260707408631	1.023891061619
4	126541	29933.539348349767	2.409170055625
4	126548	29934.778817176261	3.429391281638
4	126552	29935.353135908642	1.636235659498
4	126570	29940.565620457146	2.462105832112
4	126577	29946.741887526479	7.149337234651
4	126600	29953.441726204194	0.935535450344
4	126622	29958.590174659032	2.806030599605
4	126643	29963.440190915654	7.124396176218
4	126665	29967.16276620323	9.872829028066
4	126679	29970.885157271205	10.973557599139
4	126701	29975.182837014307	14.288773166032
4	126710	29976.712850983461	8.72178040736
4	126728	29978.10275621857	7.637938160795
4	126747	29986.366910914651	13.008060977326

