version 2
run Second-n3-16-20191016-14:53:17-13248
attr configname Second-n3
attr datetime 20191016-14:53:17
attr experiment Second-n3
attr inifile omnetpp.ini
attr iterationvars ""
attr iterationvarsf ""
attr measurement ""
attr network org.omnetpp.queueing.Pizza
attr processid 13248
attr repetition 16
attr replication ""
attr resultdir results
attr runnumber 16
attr seedset 16
param **.PS.maxInventoriedPS 3
param **.U1.interArrivalTime exponential(3s)
param **.U2.interArrivalTime exponential(5s)
param **.PS.serviceTimeForInventoryU1 exponential(1.0s)
param **.PS.serviceTimeForInventoryU2 exponential(1.2s)
param **.PS.serviceTimeDirectU1 exponential(1.4s)
param **.PS.serviceTimeDirectU2 exponential(1.4s)
param **.PS.probabilityProducing 0.7
param **.CS.serviceTimeU1 exponential(1.1s)
param **.CS.serviceTimeU2 exponential(1.4s)

vector 0 Pizza.EntryQueueU1 queueLength:vector ETV
attr interpolationmode sample-hold
attr title "queue length, vector"
vector 1 Pizza.CS queueLength:vector ETV
attr interpolationmode sample-hold
attr title "queue length, vector"
vector 2 Pizza.EntryQueueU2 queueLength:vector ETV
attr interpolationmode sample-hold
attr title "queue length, vector"
vector 3 Pizza.sink lifeTime:vector ETV
attr interpolationmode none
attr title "lifetime of arrived jobs, vector"
attr unit s
vector 4 Pizza.sink lifeTimeU2:vector ETV
attr interpolationmode none
attr title "lifetime of arrived jobs, vector"
attr unit s
0	0	0	0
0	42	8.563852870954	1
0	43	8.772244395425	0
0	74	16.626819266487	1
0	80	18.765534588646	0
0	95	20.815185760218	1
0	101	24.131048116498	2
0	102	24.414825124789	1
0	107	25.703008000162	0
0	121	26.98751340545	1
0	130	29.204533892836	0
0	168	38.262099748724	1
0	171	42.571555413917	0
0	208	52.76205136467	1
0	210	52.997346359643	2
0	211	53.901866018421	1
0	216	54.116462999225	0
0	227	54.49931549085	1
0	231	54.987644697875	0
0	235	57.122714559393	1
0	244	59.877683007062	0
0	250	60.977183425739	1
0	252	61.18946425641	2
0	255	61.639927984625	3
0	256	62.302715932785	2
0	261	62.856375978207	1
0	268	64.534010581761	2
0	270	65.85739031897	3
0	272	66.484972683258	4
0	273	67.031973516582	3
0	279	67.85736875485	2
0	285	69.079473099103	1
0	290	69.145541013124	0
0	296	69.670545465892	1
0	298	72.123202661296	0
0	304	72.419997061337	1
0	307	73.014495348109	2
0	308	73.258940899568	1
0	315	75.157681687988	0
0	319	76.211943578546	1
0	321	77.604186673181	2
0	325	78.702505305834	1
0	330	78.832856815802	0
0	334	80.55609495858	1
0	339	81.498264616529	2
0	341	81.72438519578	3
0	342	83.092414355296	2
0	347	83.549871341773	1
0	357	84.978433069687	0
0	379	89.716232181996	1
0	380	91.84432398565	0
0	413	99.436184056761	1
0	418	102.120430404238	0
0	456	112.722816004067	1
0	458	113.020412251743	2
0	462	113.670317819953	3
0	464	114.42921269628	4
0	465	115.330357896311	3
0	473	117.503321744586	2
0	478	117.642141292452	1
0	483	118.101698644561	0
0	490	118.452855352193	1
0	492	120.027234305339	0
0	498	120.969906775803	1
0	502	122.232054568059	0
0	508	123.023206028247	1
0	513	123.332206107178	2
0	514	123.661343156888	1
0	520	123.971000970451	2
0	522	125.107236934781	1
0	527	125.11382401816	0
0	533	125.581143599401	1
0	534	126.567599808625	0
0	553	129.234464098726	1
0	554	129.318173686011	0
0	573	134.326789427204	1
0	575	135.29237788933	0
0	589	139.576142560377	1
0	590	140.368899854298	0
0	612	146.494726914777	1
0	614	147.47572421995	0
0	636	152.999646238649	1
0	637	153.342671094213	0
0	663	159.578320619693	1
0	666	160.625581144011	0
0	691	167.420182529223	1
0	693	168.06386399009	0
0	730	174.461863571212	1
0	738	177.153780221778	2
0	739	178.562229181699	1
0	745	178.630450162994	2
0	747	178.646890687895	3
0	748	179.080011842481	2
0	756	179.619436148041	3
0	758	180.579469658307	2
0	764	183.380461093113	1
0	770	183.570333379633	2
0	772	184.755382485671	1
0	779	186.775567484628	0
0	798	188.350782911604	1
0	799	188.923380003268	0
0	822	190.781389022003	1
0	826	193.730551033344	2
0	827	194.374149962964	1
0	834	195.858828646281	0
0	848	198.458348993272	1
0	850	199.51847507917	2
0	851	199.730838814498	1
0	856	199.817300329093	0
0	867	200.521908992066	1
0	869	201.65103521219	0
0	901	210.269724549692	1
0	908	214.127360189917	0
0	931	220.034547962252	1
0	933	220.593351723924	2
0	937	220.737127995747	3
0	940	222.975326234971	4
0	942	223.798572050108	5
0	944	223.897227307357	6
0	946	224.437615577838	7
0	948	225.430494376058	6
0	955	226.06960252004	7
0	957	226.864622662798	6
0	963	228.240479319505	5
0	968	228.537471953836	4
0	973	228.781961001641	3
0	979	231.175324978548	2
0	984	231.240009816516	1
0	989	231.418075172689	0
0	1026	235.520149835401	1
0	1027	236.20340765877	0
0	1033	236.618035014329	1
0	1040	239.891525332976	0
0	1051	241.094177379846	1
0	1053	241.309083388033	2
0	1058	243.874523610574	1
0	1064	243.972693878537	0
0	1076	244.672627418432	1
0	1077	244.861242143865	0
0	1114	253.694036135371	1
0	1116	253.776479307868	2
0	1118	254.462419918602	1
0	1123	254.738970793513	0
0	1138	260.214165112854	1
0	1139	260.779294498864	0
0	1145	260.918370285702	1
0	1146	261.232242282229	0
0	1165	267.537482404882	1
0	1168	269.215966880256	0
0	1180	271.290030400727	1
0	1181	273.215772045662	0
0	1190	274.697223031943	1
0	1192	275.162193655076	2
0	1194	275.267146316297	3
0	1200	277.149952890527	2
0	1206	278.548981172434	1
0	1212	278.932760170658	0
0	1218	279.278297580417	1
0	1221	279.504926002797	2
0	1224	279.688569024145	3
0	1228	280.423270175262	4
0	1230	280.578897789936	3
0	1237	281.329717172566	4
0	1238	281.769671186102	3
0	1243	282.075461605688	2
0	1251	283.088016864265	3
0	1254	287.344438762923	2
0	1261	287.646157403488	1
0	1267	288.127028657441	0
0	1286	290.454494202352	1
0	1289	291.447673500455	2
0	1291	291.632561051658	3
0	1292	292.071622843367	2
0	1299	293.486065957046	1
0	1308	296.283979535671	2
0	1310	296.306131276056	3
0	1311	297.830840341505	2
0	1316	298.396717782768	1
0	1322	299.770757865295	0
0	1330	301.570880372758	1
0	1331	301.783131058147	0
0	1337	303.185769523894	1
0	1339	303.196404775932	2
0	1340	303.2826173701	1
0	1345	303.401692620913	0
0	1375	308.013509900926	1
0	1376	308.77703840965	0
0	1402	312.541896115948	1
0	1404	313.976463058601	2
0	1406	315.569149618419	3
0	1408	315.681421385128	4
0	1410	316.162273465191	5
0	1412	316.709313068488	6
0	1414	317.882205354366	7
0	1419	319.267366795161	6
0	1425	319.484742573422	7
0	1426	319.857016699038	6
0	1432	321.22081941879	5
0	1437	321.33309527729	4
0	1442	322.275800751672	3
0	1446	322.563614317778	4
0	1449	323.730454705854	3
0	1453	325.093958469077	4
0	1457	327.921623735209	5
0	1460	328.563026358198	4
0	1466	329.122067919373	5
0	1469	329.23365113533	4
0	1473	329.286938113267	5
0	1475	329.956919560146	6
0	1477	330.092257154408	7
0	1479	330.485664662075	8
0	1486	332.39208415019	7
0	1491	333.123017235796	6
0	1495	333.561162229631	7
0	1498	334.1191415617	6
0	1503	335.222666220253	5
0	1509	337.058786917168	6
0	1514	340.860722302504	5
0	1520	343.31450070716	4
0	1525	343.340762640095	3
0	1533	343.696694072025	4
0	1537	345.236460285922	3
0	1543	346.552891741813	2
0	1549	348.428699231243	1
0	1554	349.16635377758	0
0	1558	349.452733461607	1
0	1563	352.208185323729	0
0	1586	356.397441856259	1
0	1588	356.588637149005	2
0	1590	356.89594073457	1
0	1596	357.526812093554	0
0	1614	359.271534191201	1
0	1615	359.301177143787	0
0	1656	367.56461121972	1
0	1670	369.975811559777	2
0	1671	370.247749199059	1
0	1676	370.355925072089	0
0	1690	372.725870438686	1
0	1692	373.354640092672	0
0	1709	375.437469560336	1
0	1713	377.433919266545	2
0	1717	380.51406859004	3
0	1718	381.36005018667	2
0	1723	381.424250186567	1
0	1731	382.230123006339	0
0	1742	384.062181138658	1
0	1745	386.414656536819	0
0	1753	388.233991815545	1
0	1756	392.189025330431	2
0	1758	393.581870824657	1
0	1764	393.847746205638	0
0	1768	394.118778152054	1
0	1773	397.212543940428	0
0	1795	401.363846988037	1
0	1797	401.936747156276	2
0	1799	402.790741217875	3
0	1802	404.044093241606	2
0	1807	404.0468694007	1
0	1813	404.984300449897	0
0	1819	404.99854029838	1
0	1821	405.153129153153	2
0	1822	405.286306196219	1
0	1828	405.759635925151	0
0	1834	405.912811855987	1
0	1836	406.234641564262	0
0	1845	409.978198330806	1
0	1847	411.106798066266	0
0	1875	414.475851645839	1
0	1886	421.293494223356	2
0	1887	421.885270906362	1
0	1894	422.051522928595	0
0	1908	423.667757924734	1
0	1909	423.919862386588	0
0	1933	427.622557278019	1
0	1937	428.954950115799	2
0	1939	429.358104578084	3
0	1941	429.544834507874	4
0	1944	430.000578362399	3
0	1951	431.022512753071	2
0	1957	431.269463458401	1
0	1967	434.477532902203	2
0	1968	434.653663354453	1
0	1974	434.942238962005	0
0	1987	436.332379622561	1
0	1988	438.417674690344	0
0	2011	441.643212010351	1
0	2012	442.512481327883	0
0	2025	445.41927551312	1
0	2027	447.009612648327	2
0	2029	448.008610059714	3
0	2031	448.035484967475	4
0	2034	449.074222679781	3
0	2040	449.562081046551	2
0	2045	450.393536861975	1
0	2052	451.064230485392	2
0	2054	452.878193807784	1
0	2064	455.822059447602	2
0	2065	456.243900989662	1
0	2073	457.378293938392	0
0	2096	460.157167417507	1
0	2100	464.412166394996	2
0	2103	465.102342714524	3
0	2105	465.525283883958	4
0	2106	465.622925299171	3
0	2113	467.972890290671	2
0	2121	471.309445621176	3
0	2122	471.385573455483	2
0	2130	472.378472335084	1
0	2135	473.082590226165	0
0	2148	475.38337700611	1
0	2149	477.531795054707	0
0	2167	479.981074122474	1
0	2169	481.939101531408	2
0	2171	482.750678198634	3
0	2173	483.160450698824	4
0	2175	483.495777033551	5
0	2177	483.824337707398	6
0	2179	486.151552006275	7
0	2180	487.118862736833	6
0	2185	487.282829207349	5
0	2190	487.424230801321	4
0	2195	487.653198336679	3
0	2201	489.125875167111	2
0	2207	489.179982264908	3
0	2208	489.807814567606	2
0	2214	491.252689674299	3
0	2218	492.306954420394	2
0	2227	494.841616916717	1
0	2232	495.755769571276	0
0	2239	497.323262491394	1
0	2241	498.647716122946	2
0	2244	499.684893880681	1
0	2249	500.794187783499	0
0	2256	502.276204460949	1
0	2257	503.084994488857	0
0	2266	505.495678403018	1
0	2268	508.496410103656	2
0	2269	508.717389052677	1
0	2275	509.26170673958	0
0	2298	511.444958781029	1
0	2299	511.48776749986	0
0	2305	511.5960491724	1
0	2308	512.556349833502	2
0	2312	517.031145656339	1
0	2317	517.210193334758	0
0	2333	519.629538434464	1
0	2335	520.086037922434	0
0	2348	523.741025810657	1
0	2354	524.961778133072	0
0	2360	525.888506993414	1
0	2363	526.815573466359	0
0	2369	527.012824211481	1
0	2371	527.297230700606	2
0	2373	528.150769667414	1
0	2381	531.397643110936	0
0	2393	532.530042822513	1
0	2394	532.55331960301	0
0	2406	533.896880242926	1
0	2407	535.90213898379	0
0	2474	560.14915551053	1
0	2477	562.104385192547	0
0	2491	568.585943282312	1
0	2493	569.962829526309	2
0	2494	571.776654238309	1
0	2499	573.644872772249	0
0	2505	574.927381887745	1
0	2506	575.035306662783	0
0	2545	584.614816079595	1
0	2547	586.460399219145	0
0	2553	587.426507261532	1
0	2556	589.651580218647	2
0	2558	590.122204675099	3
0	2559	591.47128730383	2
0	2565	592.648790080953	1
0	2571	593.848285076802	0
0	2586	603.607287005947	1
0	2588	605.131084643473	0
0	2596	606.05996650815	1
0	2597	606.488812587859	0
0	2632	619.506941592309	1
0	2633	619.894895382106	0
0	2642	620.485458049775	1
0	2644	623.097791847512	0
0	2656	625.541840502785	1
0	2658	625.929949273449	2
0	2662	626.110588719615	3
0	2663	626.844251922909	2
0	2670	628.14912446045	1
0	2678	628.659444244528	0
0	2702	632.393181726882	1
0	2703	632.823770480349	0
0	2729	636.544862084932	1
0	2732	637.959409574021	0
0	2741	639.385625523694	1
0	2752	642.954599623551	2
0	2755	645.035662580968	3
0	2757	645.982328707048	4
0	2758	646.598055791909	3
0	2765	648.540662008942	2
0	2771	649.060281139259	1
0	2777	649.50179050551	2
0	2781	651.619105416512	3
0	2783	651.619255637249	4
0	2784	651.747234948293	3
0	2790	651.986475821401	4
0	2793	652.587936926518	3
0	2802	655.200094381222	2
0	2808	655.748413898544	3
0	2810	656.739943439896	2
0	2815	656.890235100637	1
0	2821	657.228202193495	2
0	2823	657.430900204858	3
0	2825	658.210575212226	4
0	2826	658.314861795672	3
0	2832	658.844453168557	4
0	2834	660.06064446404	5
0	2836	660.28599611662	6
0	2837	661.786782339759	5
0	2842	664.212248968454	4
0	2847	665.07806722775	3
0	2852	665.824001958404	2
0	2859	668.841119584197	3
0	2862	669.461296542507	2
0	2867	670.007521229142	1
0	2871	670.758782250936	2
0	2873	671.215855668433	3
0	2878	671.879345415819	4
0	2883	673.963094526696	3
0	2888	674.023043851958	2
0	2894	675.345274599453	1
0	2899	675.346580283135	0
0	2910	675.666604696426	1
0	2911	675.821002032603	0
0	2917	676.499286877098	1
0	2918	677.716708416942	0
0	2925	678.909271137318	1
0	2926	678.999601482334	0
0	2944	680.989278994267	1
0	2946	681.306878001849	0
0	2966	683.969443078646	1
0	2969	685.954482668767	0
0	3016	701.171846243497	1
0	3019	702.062097086823	0
0	3028	702.302019289895	1
0	3033	702.800702617503	0
0	3066	719.348385282118	1
0	3069	722.63787233702	0
0	3081	723.0928303394	1
0	3083	725.805075976042	2
0	3085	725.817579152658	3
0	3088	727.148784760071	2
0	3094	728.65320056092	1
0	3106	732.220266422087	0
0	3123	735.420371646808	1
0	3124	735.999180480307	0
0	3130	736.19568062367	1
0	3131	736.996308171519	0
0	3138	738.61615208123	1
0	3139	739.385817023603	0
0	3202	765.029454240793	1
0	3205	766.152637902881	0
0	3229	772.878296120381	1
0	3230	773.272503291797	0
0	3247	777.166991068701	1
0	3249	778.058803292001	2
0	3251	778.494954601336	3
0	3253	779.123378653257	4
0	3256	779.515666224019	5
0	3258	779.955985589146	6
0	3259	780.454334954522	5
0	3264	780.57566687098	4
0	3269	780.843904576535	3
0	3276	783.02153019683	4
0	3277	783.106242031792	3
0	3282	783.549063507439	2
0	3286	785.071063541362	3
0	3292	789.788494950956	4
0	3293	790.420383536695	3
0	3297	791.100777954363	4
0	3300	791.171702129705	3
0	3306	792.839784455368	4
0	3307	792.972723819356	3
0	3311	794.268396902346	4
0	3314	795.236178238089	3
0	3322	796.905280756312	2
0	3327	797.069005301078	1
0	3332	797.896484311042	0
0	3338	801.221628985761	1
0	3341	801.750515652902	0
0	3367	805.87709673204	1
0	3372	807.712353863971	0
0	3378	807.851347006465	1
0	3379	807.946051597348	0
0	3390	809.743689246807	1
0	3401	814.809385371454	2
0	3404	815.462626171352	3
0	3405	815.617856836977	2
0	3411	815.978080986897	3
0	3412	816.157465074914	2
0	3418	816.398065417184	3
0	3419	817.404755642497	2
0	3432	824.485191353874	3
0	3433	826.772734549256	2
0	3439	826.921090790722	1
0	3448	828.151162963707	0
0	3454	828.189129499646	1
0	3455	829.659063176553	0
0	3502	839.204727850405	1
0	3506	841.101387253856	2
0	3507	842.304468566149	1
0	3512	842.60775136788	0
0	3564	858.408407038169	1
0	3565	858.733200435097	0
0	3583	863.001456874059	1
0	3585	863.778041153362	0
0	3592	864.100246816524	1
0	3595	864.912577571836	0
0	3607	866.881276376916	1
0	3609	867.500758475291	2
0	3611	868.097258965156	3
0	3617	869.066966457033	4
0	3619	869.458418651152	5
0	3622	871.120356000523	4
0	3627	871.74863567374	3
0	3632	872.273159016167	2
0	3637	872.329439562191	1
0	3641	872.566089831124	2
0	3643	872.749045907392	3
0	3650	873.43039755594	2
0	3656	873.701877444533	1
0	3661	873.985596891151	0
0	3672	875.017026867319	1
0	3677	877.083553487416	2
0	3679	877.724470042212	3
0	3680	878.076421945563	2
0	3685	879.580940953047	1
0	3691	881.24633525361	2
0	3695	881.881581035457	3
0	3697	883.239048268343	2
0	3702	883.541856531282	1
0	3710	885.79678397303	0
0	3739	891.17818704663	1
0	3741	891.478124573451	0
0	3764	898.155124145705	1
0	3767	899.087607193208	2
0	3768	899.129205956239	1
0	3774	899.137000178066	2
0	3778	900.756067479386	1
0	3784	902.206957631307	0
0	3807	905.489909966498	1
0	3809	905.698886435745	2
0	3813	906.459099530671	3
0	3818	907.929782443987	4
0	3819	908.074210992849	3
0	3824	908.293002985781	2
0	3829	908.406709839508	1
0	3834	908.657432542875	0
0	3846	909.039000716999	1
0	3847	909.04804795956	0
0	3868	911.849796298696	1
0	3869	912.043314699338	0
0	3877	913.584983327028	1
0	3879	913.997526548443	2
0	3880	914.721325498654	1
0	3888	917.205765219406	0
0	3917	924.108629225382	1
0	3918	925.077184912285	0
0	3939	928.840538698441	1
0	3941	929.029768983823	0
0	3956	930.188014688817	1
0	3959	930.729982118702	0
0	4019	941.127523891402	1
0	4021	941.349756663036	2
0	4022	941.533199901125	1
0	4030	943.306658924288	0
0	4036	943.832079490912	1
0	4037	943.860783009701	0
0	4048	944.487943236332	1
0	4057	947.722943437291	2
0	4058	947.933231716315	1
0	4063	948.707733925007	0
0	4072	950.094364848052	1
0	4074	951.227789745939	2
0	4075	952.200792125255	1
0	4081	952.337349212945	0
0	4113	956.723864330355	1
0	4114	957.821843158117	0
0	4151	965.50899051153	1
0	4152	965.958084924905	0
0	4158	966.889201490389	1
0	4160	968.057771823137	0
0	4167	968.725778160913	1
0	4169	970.393890469114	2
0	4171	971.53325584566	3
0	4172	972.009919022577	2
0	4177	972.359607961542	1
0	4183	972.36923400996	2
0	4185	972.520729181108	3
0	4186	972.96652831689	2
0	4195	975.302966915144	3
0	4198	977.309427017556	2
0	4205	977.94356605527	1
0	4210	978.079597669977	0
0	4224	980.673129453696	1
0	4226	980.785971198685	2
0	4227	980.96329397761	1
0	4234	982.288166139141	0
0	4247	983.31830048247	1
0	4252	984.448630934285	2
0	4254	984.549120211346	3
0	4255	985.107322658345	2
0	4262	987.600213303552	1
0	4268	989.44753698436	2
0	4270	990.429353833217	3
0	4273	991.727638739923	2
0	4278	991.851808235611	1
0	4283	992.140541537621	0
0	4289	993.973322005757	1
0	4290	994.900859374536	0
0	4299	996.085616787051	1
0	4302	997.18234722053	2
0	4303	997.493035969584	1
0	4308	997.614481682956	0
0	4328	999.799465578057	1
0	4330	999.950873673655	2
0	4331	999.988065917073	1
0	4338	1001.206731133022	0
0	4353	1004.45685092804	1
0	4357	1005.298843761947	2
0	4363	1009.141816324177	1
0	4368	1009.976790163673	0
0	4389	1017.471882361451	1
0	4392	1019.133311248912	2
0	4394	1020.091889541584	3
0	4395	1020.167173527318	2
0	4401	1020.783880890777	3
0	4403	1020.816622789257	4
0	4405	1020.822481740612	5
0	4406	1020.862144372238	4
0	4412	1021.993631928335	5
0	4415	1022.537121419088	4
0	4425	1023.619700295553	5
0	4426	1024.051661411389	4
0	4435	1025.192088569658	5
0	4436	1026.038210644522	4
0	4441	1026.294573119361	3
0	4447	1028.252614747249	2
0	4452	1031.020145128202	1
0	4459	1031.482753241951	0
0	4465	1032.792831289431	1
0	4466	1033.104631830267	0
0	4478	1034.135536342392	1
0	4482	1036.177122772087	0
0	4497	1038.746529337294	1
0	4498	1038.937602576283	0
0	4511	1041.755172001675	1
0	4513	1042.213270675711	2
0	4515	1044.915449955784	3
0	4516	1045.087187060445	2
0	4521	1045.345809288234	1
0	4526	1045.781659701752	0
0	4537	1046.265497493607	1
0	4540	1047.142676668789	0
0	4551	1049.698520090589	1
0	4556	1050.69978284855	0
0	4580	1057.061448002111	1
0	4582	1057.855706102559	2
0	4584	1058.424572006637	3
0	4585	1059.03830303552	2
0	4590	1059.614843017487	1
0	4597	1059.630192671129	2
0	4598	1059.732866138408	1
0	4604	1059.855244907973	2
0	4610	1062.154964669061	1
0	4615	1063.007541154158	0
0	4642	1068.78773929096	1
0	4646	1070.86290039161	2
0	4647	1071.42380221342	1
0	4653	1072.161995977299	0
0	4660	1073.246818620834	1
0	4661	1073.424325529441	0
0	4679	1076.292804058525	1
0	4681	1076.515983462755	2
0	4686	1078.395211743704	1
0	4691	1078.788730566391	0
0	4697	1079.25393927721	1
0	4700	1079.789419060769	0
0	4725	1087.833865834522	1
0	4728	1088.342958671233	0
0	4743	1091.072763294962	1
0	4746	1093.824187756181	0
0	4816	1111.042514340755	1
0	4820	1112.301500294126	0
0	4856	1127.031146375798	1
0	4857	1127.879856738516	0
0	4863	1128.951813646804	1
0	4864	1129.104672111516	0
0	4884	1132.320751305274	1
0	4887	1134.009654878289	0
0	4893	1134.484145466843	1
0	4897	1135.1538352531	2
0	4901	1135.610822286153	3
0	4902	1135.833469449154	2
0	4909	1137.611147063924	1
0	4921	1138.755031603781	0
0	4943	1140.429024642981	1
0	4946	1141.065506638604	0
0	4957	1142.78883804672	1
0	4963	1144.494557630973	2
0	4968	1145.69535794146	3
0	4969	1145.713984468495	2
0	4975	1146.866657229442	1
0	4981	1146.964499078152	2
0	4983	1148.244645606682	1
0	4988	1150.023577150824	0
0	5012	1153.822094512547	1
0	5015	1154.138472823373	2
0	5018	1155.424508100569	1
0	5026	1156.805578443913	0
0	5060	1163.619332746743	1
0	5062	1164.031773516567	2
0	5063	1164.117095525883	1
0	5068	1164.916999876281	0
0	5141	1184.159169176766	1
0	5143	1186.125970615171	0
0	5150	1187.122249646835	1
0	5151	1188.150661791174	0
0	5173	1191.795436783821	1
0	5176	1194.278405280833	0
0	5189	1195.462012300648	1
0	5193	1197.138863839294	0
0	5211	1199.689559521585	1
0	5213	1200.323088650479	2
0	5214	1200.921453329446	1
0	5219	1201.216512130975	0
0	5313	1226.827574467331	1
0	5314	1227.853139674458	0
0	5330	1230.451930985001	1
0	5332	1231.083680666772	0
0	5338	1231.20625553366	1
0	5341	1234.851658406415	0
0	5416	1252.825967919642	1
0	5417	1252.886387453329	0
0	5423	1253.478734835581	1
0	5425	1253.907686891946	2
0	5427	1254.029445903484	1
0	5433	1254.512316987985	2
0	5434	1255.662364177154	1
0	5439	1256.129299742723	0
0	5449	1258.711369863215	1
0	5452	1259.109348782084	0
0	5465	1263.735582875927	1
0	5466	1263.949924413936	0
0	5500	1275.62110788236	1
0	5501	1275.935443916855	0
0	5526	1280.99668775475	1
0	5529	1282.388322752945	0
0	5544	1290.283578973764	1
0	5545	1292.132331272464	0
0	5565	1298.00604755142	1
0	5568	1298.375142173868	0
0	5583	1304.141956935131	1
0	5585	1305.419905434864	2
0	5586	1305.727454562123	1
0	5591	1305.787713087231	0
0	5598	1307.85217869823	1
0	5601	1309.296746523724	2
0	5602	1310.073720747234	1
0	5609	1311.58867896234	0
0	5623	1313.761044447624	1
0	5627	1317.598534375814	2
0	5629	1317.756971625344	3
0	5630	1321.589822338859	2
0	5636	1321.61793387112	3
0	5637	1321.701224768866	2
0	5642	1322.144292991194	1
0	5646	1323.432964687202	2
0	5655	1325.653633891483	3
0	5656	1328.079913649036	2
0	5662	1328.82739220559	3
0	5664	1330.261343670228	4
0	5665	1331.099726229714	3
0	5671	1332.707370089613	2
0	5677	1333.233345243055	1
0	5683	1333.713414714598	2
0	5684	1334.750993710206	1
0	5689	1335.083335626481	0
0	5693	1335.139279526969	1
0	5695	1335.18144984517	2
0	5698	1335.661392058518	1
0	5703	1338.376189839235	0
0	5707	1339.571616862876	1
0	5710	1340.507811445423	0
0	5775	1354.909688595563	1
0	5777	1356.041213950127	0
0	5794	1358.474786893269	1
0	5796	1358.994772047124	0
0	5815	1361.423547970255	1
0	5821	1363.115923547804	0
0	5828	1363.299662114265	1
0	5831	1363.562135099825	0
0	5844	1364.897845215444	1
0	5846	1365.475948070776	2
0	5847	1365.885980863124	1
0	5853	1366.03790698092	2
0	5854	1366.284027670903	1
0	5859	1366.942595628504	0
0	5885	1375.754219587609	1
0	5891	1376.402775497799	2
0	5892	1376.606810726126	1
0	5899	1377.190605520737	0
0	5911	1378.03074355345	1
0	5914	1378.103650557691	0
0	5926	1378.592412751813	1
0	5928	1380.107276817481	2
0	5930	1381.393115319686	3
0	5931	1381.740937205347	2
0	5936	1382.135606108739	1
0	5942	1382.180069488554	2
0	5943	1382.270341896977	1
0	5949	1383.795534754522	0
0	5989	1396.615104391076	1
0	5990	1396.946670490327	0
0	6044	1413.900885154647	1
0	6047	1418.554693350613	0
0	6070	1428.476904615189	1
0	6071	1429.461788852561	0
0	6101	1434.147514727162	1
0	6103	1435.590878010377	0
0	6126	1440.762412589258	1
0	6127	1441.724005653482	0
0	6140	1448.548112182239	1
0	6141	1449.324921392367	0
0	6157	1452.473433832304	1
0	6158	1452.776602838759	0
0	6180	1455.744987566032	1
0	6182	1457.983080598702	0
0	6213	1462.059310761298	1
0	6215	1462.819371133109	2
0	6216	1463.270475721001	1
0	6222	1463.409721064708	0
0	6236	1466.566409249215	1
0	6239	1467.992185862203	0
0	6246	1468.918198466933	1
0	6248	1468.983318784463	2
0	6250	1469.769191784834	3
0	6252	1469.919726705869	4
0	6253	1470.283309464129	3
0	6260	1471.928697938709	4
0	6262	1472.662198547614	5
0	6265	1474.315957869093	4
0	6270	1474.842209015732	3
0	6275	1474.978018937196	2
0	6282	1476.288699783859	1
0	6287	1476.412251745647	0
0	6293	1478.59299345982	1
0	6296	1481.370783930406	0
0	6363	1496.453573608036	1
0	6364	1498.072244331008	0
0	6410	1511.340962804248	1
0	6415	1512.651966399269	0
0	6423	1513.09025067478	1
0	6425	1513.881603620393	0
0	6436	1514.925497101727	1
0	6437	1514.992304117396	0
0	6472	1525.734742244023	1
0	6473	1526.369468447376	0
0	6498	1530.567517862546	1
0	6505	1531.476537876795	0
0	6529	1536.763425492671	1
0	6531	1537.566362444764	2
0	6533	1539.94388421394	3
0	6538	1544.728910268579	2
0	6544	1544.906877194614	1
0	6552	1546.680644951661	0
0	6563	1547.403787299295	1
0	6567	1550.141370463495	2
0	6569	1550.77563785412	1
0	6575	1551.459503063049	0
0	6593	1552.702964637558	1
0	6601	1554.568821741683	2
0	6602	1555.209863981879	1
0	6607	1555.322069903441	0
0	6619	1556.721194307294	1
0	6621	1558.23123605705	0
0	6627	1558.884842994376	1
0	6629	1560.12582179743	0
0	6642	1561.824216684551	1
0	6647	1563.187463356653	2
0	6649	1563.698519256612	1
0	6654	1563.976992433633	0
0	6666	1565.272234874112	1
0	6668	1566.004095939027	0
0	6708	1571.188458142838	1
0	6713	1573.468190795595	0
0	6753	1583.932907352903	1
0	6758	1585.492984838852	0
0	6764	1585.843351473564	1
0	6765	1586.322267856464	0
0	6772	1586.760652938132	1
0	6774	1587.540634468395	2
0	6776	1587.893036721926	1
0	6783	1588.341706729891	0
0	6793	1590.185064263044	1
0	6794	1590.663963792254	0
0	6801	1591.650031229439	1
0	6802	1591.790365019799	0
0	6824	1593.62055966653	1
0	6831	1597.635785091842	0
0	6839	1598.286272264307	1
0	6840	1598.456918792666	0
0	6859	1601.710255859704	1
0	6860	1602.98094527053	0
0	6888	1610.00828585784	1
0	6889	1610.652836164652	0
0	6920	1616.344781185246	1
0	6922	1616.360837357826	2
0	6924	1616.584786003636	3
0	6927	1617.431152139047	2
0	6934	1619.383431935911	1
0	6939	1620.028144597584	0
0	7022	1649.944795166199	1
0	7024	1650.08625343888	2
0	7027	1652.320474980766	1
0	7032	1652.465479040507	0
0	7039	1653.346563522102	1
0	7040	1653.373900326687	0
0	7046	1653.441295466497	1
0	7048	1653.575376512591	2
0	7050	1653.765841962006	3
0	7051	1653.928006879417	2
0	7056	1654.123200820741	1
0	7060	1657.058160784226	2
0	7064	1657.779291467935	1
0	7071	1658.900557352452	0
0	7110	1665.0574880436	1
0	7111	1665.665561035614	0
0	7117	1665.752917982236	1
0	7118	1666.263671347647	0
0	7157	1681.668741827505	1
0	7159	1683.491656628599	0
0	7181	1689.433918230397	1
0	7185	1690.31889476282	0
0	7231	1707.185105843137	1
0	7233	1708.67222717569	2
0	7234	1709.826339334518	1
0	7240	1710.519081451218	0
0	7318	1726.187800814891	1
0	7322	1726.271008223362	2
0	7323	1727.534533486569	1
0	7329	1728.511570433983	0
0	7363	1732.120821758001	1
0	7366	1732.510121972434	0
0	7374	1733.650886412879	1
0	7377	1733.853748094894	2
0	7378	1735.161930595231	1
0	7383	1735.894132012219	0
0	7389	1736.506046103734	1
0	7390	1736.782812365913	0
0	7417	1738.80336647531	1
0	7419	1739.255787282658	0
0	7439	1743.953333944077	1
0	7441	1744.152846934079	2
0	7448	1748.171643643512	1
0	7458	1751.223293307392	0
0	7468	1753.115128372868	1
0	7472	1756.617116631327	0
0	7518	1767.511501690729	1
0	7520	1767.789322135224	2
0	7523	1769.072998726876	1
0	7528	1769.088585462388	0
0	7558	1775.775385489625	1
0	7560	1776.749368463618	0
0	7600	1788.741697712893	1
0	7601	1788.915054067996	0
0	7621	1790.878984845567	1
0	7622	1790.973409584006	0
0	7640	1794.02236767062	1
0	7641	1794.115345550653	0
0	7684	1812.606124791479	1
0	7686	1812.811121553461	2
0	7689	1813.205218251319	3
0	7691	1813.69552207351	4
0	7694	1814.826626527093	5
0	7696	1814.880025217122	6
0	7697	1816.912666023294	5
0	7702	1817.181479952465	4
0	7707	1817.244307227646	3
0	7712	1817.25231914015	2
0	7720	1818.535892631345	3
0	7722	1819.312044970538	2
0	7728	1819.647679127572	1
0	7735	1820.157494655472	2
0	7736	1821.517802149269	1
0	7740	1821.845437311022	2
0	7743	1822.170578973285	1
0	7747	1822.650616586157	2
0	7751	1823.280282998177	3
0	7754	1824.56992758942	2
0	7760	1825.865418243141	3
0	7762	1826.27777023233	2
0	7769	1829.835730945772	3
0	7770	1829.940854860177	2
0	7775	1830.001256563693	1
0	7779	1831.174300321634	2
0	7782	1832.929258543138	1
0	7790	1837.029051219378	0
0	7811	1838.354742647353	1
0	7812	1840.005204292613	0
0	7839	1844.135662687391	1
0	7848	1847.050189426612	2
0	7851	1851.006521848752	1
0	7860	1852.502198995923	2
0	7861	1852.912354002538	1
0	7867	1853.178807657264	0
0	7879	1853.790307704773	1
0	7881	1854.66677413164	0
0	7887	1854.800630672819	1
0	7888	1854.830270113347	0
0	7903	1855.886177976501	1
0	7907	1858.538184548925	0
0	7915	1859.630285331471	1
0	7917	1859.933653766683	0
0	7979	1881.877091156439	1
0	7980	1882.546152272554	0
0	7986	1882.686014549396	1
0	7987	1883.102124741102	0
0	7993	1883.167705294354	1
0	7995	1883.242859630761	2
0	7997	1884.231894854726	1
0	8002	1884.304042621075	0
0	8015	1885.34347342036	1
0	8017	1886.016791932529	0
0	8028	1887.142751164732	1
0	8030	1893.121639350342	2
0	8034	1894.111673580669	3
0	8038	1895.049036545487	2
0	8044	1895.585732474934	3
0	8045	1895.669990195924	2
0	8055	1897.730240079364	1
0	8060	1897.789953697184	0
0	8167	1922.778034784577	1
0	8168	1923.155645069175	0
0	8207	1929.25416838034	1
0	8208	1929.440214156955	0
0	8232	1934.566313560497	1
0	8234	1934.793275558349	2
0	8235	1934.794989575094	1
0	8242	1935.172016820868	0
0	8248	1935.20041817194	1
0	8249	1935.680579763838	0
0	8263	1938.541382126191	1
0	8265	1940.809449809808	2
0	8268	1941.146717179849	1
0	8274	1941.760492990438	2
0	8275	1942.070756353151	1
0	8279	1942.222365703451	2
0	8281	1944.449887215517	3
0	8285	1944.979223222504	4
0	8286	1945.083139889791	3
0	8292	1947.184842339188	4
0	8296	1947.695643891808	5
0	8299	1951.877886048292	4
0	8303	1951.980591622227	5
0	8307	1952.20002939339	6
0	8310	1954.45460898821	5
0	8314	1955.26595369337	6
0	8317	1956.131106078527	5
0	8324	1958.984823278299	4
0	8328	1959.068877243201	5
0	8334	1962.282204267243	4
0	8339	1962.561530617193	3
0	8344	1964.466675859374	2
0	8351	1969.610776932503	3
0	8352	1970.456511099578	2
0	8359	1971.035983945453	1
0	8365	1974.001113626725	2
0	8369	1976.374767433726	3
0	8373	1977.343934527416	4
0	8375	1978.743730419417	3
0	8380	1979.192912985641	2
0	8387	1980.696779002925	1
0	8391	1981.247038662183	2
0	8394	1981.897843945496	1
0	8400	1983.74850471506	0
0	8413	1985.019307595348	1
0	8415	1985.161469053978	0
0	8421	1985.85716671787	1
0	8427	1988.05438981574	0
0	8433	1988.773516591538	1
0	8435	1990.818613044441	0
0	8441	1991.058009099016	1
0	8443	1991.16339925603	2
0	8444	1991.717471509929	1
0	8450	1992.202079305032	0
0	8461	1992.336854073161	1
0	8462	1992.612175129335	0
0	8466	1993.173718827447	1
0	8468	1994.611158397879	2
0	8470	1994.892662027556	3
0	8474	1998.839094352726	4
0	8476	2001.210642328703	5
0	8478	2001.891019263909	6
0	8481	2003.639406832908	5
0	8491	2009.865385978362	6
0	8493	2010.287833502586	7
0	8502	2013.545383774132	8
0	8503	2013.834880486362	7
0	8509	2014.050353057743	8
0	8510	2014.831473469528	7
0	8514	2015.800210143554	8
0	8517	2018.706066919078	7
0	8521	2018.765403425231	8
0	8524	2019.570385039606	7
0	8528	2020.97966728992	8
0	8531	2024.005943880416	7
0	8540	2025.448369376408	6
0	8546	2026.713626018882	7
0	8547	2026.81340816181	6
0	8552	2027.398428620365	5
0	8558	2027.9007057437	6
0	8560	2028.414391788414	5
0	8566	2029.001533735716	4
0	8575	2032.255105292967	5
0	8576	2032.261208868037	4
0	8581	2032.97686108646	3
0	8587	2033.629169202038	2
0	8594	2033.871938175149	1
0	8599	2034.247655208449	0
0	8605	2035.373699518419	1
0	8606	2036.158123990926	0
0	8627	2040.780372946777	1
0	8628	2041.872175749424	0
0	8642	2043.077796217454	1
0	8646	2043.652783873989	2
0	8648	2044.75385026599	1
0	8655	2045.357105026571	2
0	8656	2045.671199069677	1
0	8661	2046.207517442573	0
0	8675	2047.645455911393	1
0	8677	2049.197172987753	2
0	8679	2050.654723849476	3
0	8683	2052.944431967003	4
0	8684	2052.998621058107	3
0	8689	2053.43298058434	2
0	8693	2053.850495462064	3
0	8697	2054.71162976107	4
0	8700	2055.07424817537	3
0	8710	2056.36828815202	4
0	8712	2057.475701029287	3
0	8717	2058.287147347767	2
0	8725	2061.571843472065	1
0	8733	2063.497058656292	0
0	8752	2070.815755462507	1
0	8753	2072.307257300553	0
0	8759	2073.084886839519	1
0	8762	2073.391481419175	2
0	8769	2076.355130819889	1
0	8775	2077.80723464456	0
0	8794	2079.600492886754	1
0	8795	2079.924873601813	0
0	8812	2083.31898141116	1
0	8814	2083.665288613331	2
0	8816	2084.235282895232	1
0	8821	2084.541720452278	0
0	8827	2085.415229432469	1
0	8828	2086.790555322328	0
0	8846	2089.604451633192	1
0	8848	2089.72422438681	0
0	8867	2092.083970634557	1
0	8868	2092.462585020396	0
0	8884	2095.005154558107	1
0	8889	2095.967268889836	0
0	8914	2100.177932869974	1
0	8916	2100.462972245034	2
0	8922	2104.54754448985	3
0	8923	2105.181508116568	2
0	8929	2105.779587390997	1
0	8934	2106.753753149228	0
0	8952	2111.872366271284	1
0	8955	2114.459701451376	0
0	8962	2114.848069140034	1
0	8963	2115.740530814211	0
0	8972	2117.040064639999	1
0	8975	2117.196189525143	0
0	8990	2119.847368989516	1
0	8993	2120.653319283589	0
0	9000	2121.151876097381	1
0	9001	2121.232217446635	0
0	9026	2127.952534495169	1
0	9028	2129.482590062014	0
0	9054	2134.496791387062	1
0	9056	2134.573944105304	2
0	9058	2136.471382288856	3
0	9060	2136.862073366439	4
0	9061	2136.911452422953	3
0	9068	2137.047671711601	2
0	9079	2139.311800948078	3
0	9080	2140.186282616405	2
0	9086	2140.629952222505	1
0	9092	2141.340725944347	0
0	9108	2144.222940886064	1
0	9109	2145.299065325316	0
0	9128	2148.663197323077	1
0	9129	2148.863201980601	0
0	9152	2154.10777446937	1
0	9153	2154.126307501691	0
0	9167	2158.88397313571	1
0	9170	2162.295927704359	2
0	9173	2165.566531020633	3
0	9174	2166.405330461961	2
0	9180	2168.337805645191	3
0	9181	2168.366684647094	2
0	9187	2168.960458423268	1
0	9193	2169.585231645337	2
0	9195	2169.686253259374	1
0	9202	2170.210803649723	2
0	9205	2173.828115716727	1
0	9210	2173.938434461738	0
0	9216	2178.110475597101	1
0	9219	2179.503324169962	0
0	9232	2181.563751747872	1
0	9237	2183.287804697333	0
0	9259	2185.821887319158	1
0	9260	2186.385062720365	0
0	9264	2186.983360480351	1
0	9267	2188.160963830442	0
0	9275	2189.520668578433	1
0	9281	2192.313928423394	2
0	9282	2192.654763244028	1
0	9287	2193.053745759842	0
0	9291	2193.514670445595	1
0	9293	2194.783763471288	2
0	9298	2198.550568179805	1
0	9302	2198.89307479449	2
0	9307	2200.264693152021	3
0	9309	2200.345030424816	4
0	9310	2200.672323208013	3
0	9316	2200.683722368966	4
0	9320	2202.715473881933	5
0	9321	2202.845210106402	4
0	9326	2203.627091142401	3
0	9331	2204.341958185692	2
0	9340	2207.109180187522	1
0	9345	2208.081001173157	0
0	9352	2210.284104678014	1
0	9353	2211.691821035326	0
0	9359	2211.818997683115	1
0	9361	2212.172565229304	0
0	9383	2215.833617983045	1
0	9385	2215.847775175635	2
0	9387	2216.085330241539	3
0	9388	2217.7325150016	2
0	9394	2219.420011266457	1
0	9400	2219.851430966529	0
0	9406	2220.250174507567	1
0	9407	2220.259901799346	0
0	9430	2220.900174971192	1
0	9431	2221.058956674775	0
0	9446	2222.139264052195	1
0	9450	2223.316872321039	2
0	9454	2226.032625876356	1
0	9459	2226.798570444924	0
0	9475	2227.057150533795	1
0	9476	2227.336503635129	0
0	9511	2238.633513471144	1
0	9516	2238.966975575139	0
0	9527	2240.600668997764	1
0	9532	2241.778831771171	0
0	9584	2256.418506921332	1
0	9587	2257.2203264547	0
0	9615	2264.393440179892	1
0	9620	2269.248469767269	2
0	9622	2269.850068769211	3
0	9623	2271.304386941297	2
0	9629	2274.527527156461	1
0	9634	2274.822683500341	0
0	9647	2275.747991023319	1
0	9648	2276.005624678168	0
0	9654	2276.239704917754	1
0	9655	2276.427498005582	0
0	9675	2279.88746477145	1
0	9680	2280.647258795432	2
0	9683	2282.966301191132	1
0	9689	2283.530518989761	0
0	9700	2285.28267355967	1
0	9701	2287.190326730743	0
0	9719	2290.648869235236	1
0	9722	2292.527548022601	0
0	9745	2296.260665192569	1
0	9747	2296.965118058491	2
0	9749	2298.091661388792	3
0	9752	2299.08596226883	2
0	9757	2300.10027445247	1
0	9763	2301.743892010473	0
0	9769	2302.266356516603	1
0	9770	2303.185626199197	0
0	9804	2310.228877089224	1
0	9812	2312.369878199192	0
0	9829	2315.082961920585	1
0	9830	2315.254832141623	0
0	9839	2316.559856268551	1
0	9842	2318.538158481073	0
0	9849	2318.927736382354	1
0	9851	2319.700443416751	0
0	9859	2320.062804016166	1
0	9861	2320.539818929387	0
0	9867	2320.77914207008	1
0	9868	2320.779369188635	0
0	9885	2322.378985367742	1
0	9891	2324.217191187646	0
0	9897	2324.83511522181	1
0	9900	2325.369745432422	2
0	9902	2326.334395028652	3
0	9903	2326.334700459483	2
0	9908	2326.809634999139	1
0	9913	2327.127181370946	0
0	9951	2335.066502332431	1
0	9953	2336.817207585565	0
0	9981	2347.342897286313	1
0	9982	2347.541650171275	0
0	10009	2360.804197232056	1
0	10013	2361.47113687484	2
0	10016	2363.262176547495	1
0	10022	2364.497101195522	0
0	10032	2365.952396595819	1
0	10035	2366.522289423049	0
0	10045	2367.345067456743	1
0	10047	2368.135869106348	2
0	10049	2368.636850288373	3
0	10055	2369.900361839221	4
0	10056	2370.861889391401	3
0	10063	2372.592552571351	2
0	10069	2372.778898136509	3
0	10070	2374.612724905247	2
0	10075	2374.620524655099	1
0	10080	2374.746918847316	0
0	10084	2375.16426841333	1
0	10087	2377.911278982478	0
0	10110	2385.396349356749	1
0	10113	2386.339329298113	2
0	10116	2387.06111975829	1
0	10122	2387.215847836668	2
0	10124	2387.674294602921	1
0	10129	2388.299917569434	0
0	10141	2389.533851266927	1
0	10142	2389.674574906086	0
0	10146	2390.581649949519	1
0	10151	2391.087246787095	2
0	10152	2391.306422426127	1
0	10157	2392.989742601791	0
0	10173	2394.196302031935	1
0	10175	2395.012928813757	2
0	10178	2395.235922672103	3
0	10179	2396.60025241602	2
0	10184	2397.194762967118	1
0	10189	2398.444808880822	0
0	10198	2400.335790478464	1
0	10201	2400.937228433471	0
0	10207	2402.337598831983	1
0	10209	2402.975348778844	2
0	10210	2403.166487562175	1
0	10214	2403.303383605915	2
0	10217	2406.337136883787	1
0	10222	2406.572273263899	0
0	10228	2407.574286836405	1
0	10229	2407.893794653265	0
0	10233	2409.349487789701	1
0	10237	2410.706012179775	2
0	10243	2411.618894040004	3
0	10245	2411.866719934413	4
0	10248	2412.808263717194	3
0	10253	2412.838857773292	2
0	10258	2414.328319126768	1
0	10262	2414.529291716146	2
0	10265	2415.109921132056	1
0	10271	2415.297169373619	2
0	10273	2416.608872466303	3
0	10276	2417.739247966714	2
0	10282	2417.87741750502	3
0	10284	2418.285469231745	2
0	10288	2419.131753142755	3
0	10290	2422.497812136849	4
0	10293	2423.208008564936	3
0	10298	2426.415453196863	2
0	10303	2427.613483967309	1
0	10310	2430.209149222646	0
0	10323	2432.035734004346	1
0	10325	2432.042954561491	2
0	10327	2432.835298174656	3
0	10329	2433.681979734542	2
0	10335	2434.425307854232	1
0	10341	2435.737307255469	0
0	10393	2444.472273805729	1
0	10394	2444.640492413509	0
0	10423	2457.924051497281	1
0	10424	2459.940807167391	0
0	10432	2463.129241280783	1
0	10433	2463.513312652152	0
0	10447	2466.818290564713	1
0	10449	2467.687582974374	0
0	10480	2472.926244813853	1
0	10481	2473.792432008061	0
0	10550	2490.899189983361	1
0	10552	2492.422766894999	2
0	10553	2492.502225662003	1
0	10558	2492.992607023586	0
0	10585	2498.07449305733	1
0	10588	2498.607778331918	0
0	10620	2504.993517523682	1
0	10621	2505.059899410453	0
0	10659	2513.469881940722	1
0	10660	2513.716554977567	0
0	10666	2513.852976184666	1
0	10668	2517.53436710878	0
0	10688	2523.600462216812	1
0	10692	2524.425980299501	2
0	10693	2524.943788589593	1
0	10699	2525.965254786174	0
0	10748	2538.119652962668	1
0	10751	2538.663679678568	0
0	10766	2541.805902366275	1
0	10768	2542.004075061103	2
0	10769	2542.474558941442	1
0	10777	2544.166870435652	0
0	10859	2563.761775886579	1
0	10863	2564.537536441773	2
0	10865	2565.550151025845	3
0	10867	2566.627898763296	4
0	10870	2567.558191437176	5
0	10872	2568.000474056819	6
0	10874	2568.507870322014	7
0	10877	2571.092874300343	6
0	10882	2571.171233705171	5
0	10888	2572.265768228567	4
0	10895	2572.721932704003	5
0	10897	2573.168156852783	6
0	10904	2574.098174701938	7
0	10906	2575.033645027128	6
0	10913	2576.384381907352	5
0	10918	2577.193085530565	4
0	10928	2579.282810809998	3
0	10934	2579.87624357569	2
0	10939	2580.482843616016	1
0	10944	2580.489251865581	0
0	10980	2588.178389368632	1
0	10982	2589.238572471126	2
0	10985	2590.492695368867	1
0	10992	2590.970541174513	2
0	10993	2591.007741480561	1
0	10999	2591.103564198426	2
0	11001	2591.210710362408	1
0	11006	2591.894434291602	0
0	11014	2592.83561663005	1
0	11016	2593.802604842084	0
0	11028	2595.017395320642	1
0	11029	2597.387546657553	0
0	11035	2597.646378999716	1
0	11038	2598.093640827485	0
0	11063	2600.910853500903	1
0	11066	2602.545184428352	2
0	11073	2605.830077472509	3
0	11074	2606.025580519494	2
0	11079	2606.039309508453	1
0	11087	2607.07003437369	2
0	11090	2607.955018173541	3
0	11091	2608.948297424995	2
0	11097	2609.64606605278	3
0	11099	2611.349923660553	2
0	11104	2611.371080824928	1
0	11110	2612.500700724023	0
0	11143	2616.640518108419	1
0	11145	2616.784668143161	2
0	11146	2617.564473432399	1
0	11152	2617.835899166837	0
0	11166	2618.987595468337	1
0	11167	2619.790216987657	0
0	11186	2623.393559408615	1
0	11191	2624.200884651737	2
0	11194	2625.465013066828	1
0	11199	2626.051590113193	0
0	11257	2648.013624167502	1
0	11258	2648.362626576802	0
0	11264	2648.984101677668	1
0	11265	2649.027427534809	0
0	11271	2649.161372659594	1
0	11275	2649.388330507046	2
0	11276	2650.095924532135	1
0	11281	2650.272681810182	0
0	11288	2652.281829902275	1
0	11289	2652.533828379655	0
0	11314	2656.386738653677	1
0	11315	2656.723855552421	0
0	11348	2673.731045876026	1
0	11352	2674.890787679713	0
0	11389	2684.687908942243	1
0	11392	2686.802510595026	2
0	11393	2687.874680274513	1
0	11399	2688.77204254935	0
0	11405	2689.242928649583	1
0	11409	2691.272104833636	0
0	11436	2695.853471281629	1
0	11437	2697.386320383236	0
0	11451	2700.548517411702	1
0	11453	2700.804972546349	2
0	11454	2701.52692836642	1
0	11459	2704.097437733024	0
0	11472	2704.85519489105	1
0	11476	2705.950575887492	2
0	11478	2707.160996554806	1
0	11485	2707.988508185995	2
0	11487	2708.805162786981	1
0	11495	2709.860965373502	0
0	11501	2710.542328871447	1
0	11509	2714.515898599136	0
0	11516	2714.760334824902	1
0	11517	2714.933903097984	0
0	11531	2716.930706720475	1
0	11532	2717.234665762808	0
0	11543	2717.744338160556	1
0	11545	2718.201480179308	2
0	11547	2718.589282022204	1
0	11555	2719.012286239647	0
0	11561	2719.05352194393	1
0	11562	2719.510091391768	0
0	11568	2719.846046133225	1
0	11571	2722.023851916191	2
0	11572	2722.778663198939	1
0	11578	2723.275088000926	0
0	11598	2728.468547295004	1
0	11604	2729.672049756728	2
0	11606	2730.430139606809	1
0	11612	2731.312262436786	0
0	11631	2739.037863970778	1
0	11633	2739.725976676818	2
0	11636	2741.427983864443	1
0	11642	2742.043323322528	0
0	11656	2745.600602705157	1
0	11659	2747.395420712557	0
0	11666	2748.710387139399	1
0	11668	2748.778080889583	2
0	11670	2749.681480193953	3
0	11673	2752.256125023834	4
0	11675	2752.759814401028	5
0	11679	2753.726319151613	6
0	11680	2757.866587821725	5
0	11685	2759.131909082691	4
0	11690	2759.919661433366	3
0	11700	2761.202004058726	2
0	11705	2761.350558319506	1
0	11710	2761.468287594156	0
0	11724	2763.067592434416	1
0	11727	2763.566467855899	2
0	11733	2765.987716090515	1
0	11740	2767.168541704678	2
0	11742	2767.394524569857	3
0	11744	2767.89486636189	4
0	11746	2768.49028833784	5
0	11747	2769.029158611829	4
0	11755	2770.86814866993	3
0	11760	2770.958683497605	2
0	11770	2772.828400972701	3
0	11771	2773.748942190719	2
0	11777	2773.823059885293	3
0	11780	2774.234389819138	2
0	11785	2774.390289935934	1
0	11791	2775.552903278335	0
0	11815	2779.193700805451	1
0	11817	2779.994729969018	2
0	11820	2781.472659318362	1
0	11825	2782.719979798519	0
0	11864	2794.163588775505	1
0	11868	2794.833622595777	2
0	11873	2798.790051845861	1
0	11879	2799.945716750851	0
0	11888	2801.880222264213	1
0	11892	2802.738095215983	0
0	11927	2820.751045400086	1
0	11932	2823.091037018494	0
0	11980	2833.533629328823	1
0	11982	2834.240662197036	2
0	11985	2834.367555349312	1
0	11991	2834.896671465817	0
0	12003	2842.037616261256	1
0	12004	2842.298445051918	0
0	12038	2858.020346191291	1
0	12040	2858.114814822523	2
0	12041	2858.162821707016	1
0	12047	2858.859507757904	0
0	12075	2865.4848741021	1
0	12076	2865.831651181254	0
0	12125	2880.676499157674	1
0	12126	2881.068972156614	0
0	12150	2884.183726846917	1
0	12153	2886.644681346696	0
0	12178	2891.29339405082	1
0	12180	2892.257978043871	0
0	12195	2895.543804189469	1
0	12197	2897.339709174449	0
0	12203	2897.848273924773	1
0	12205	2898.405515459519	2
0	12207	2898.436491352014	3
0	12208	2899.181467326437	2
0	12214	2899.873154656992	3
0	12215	2900.368061734457	2
0	12220	2901.091864263706	1
0	12227	2902.566376189287	0
0	12233	2904.339517340243	1
0	12237	2906.531914579136	2
0	12238	2906.609462416562	1
0	12243	2906.645021585686	0
0	12257	2907.916894150044	1
0	12258	2908.069289928762	0
0	12272	2910.001517509481	1
0	12274	2910.216075124946	2
0	12275	2911.660448719028	1
0	12281	2913.671637461359	0
0	12302	2917.303753603083	1
0	12303	2917.951248812025	0
0	12322	2926.669930678091	1
0	12327	2928.685052277961	2
0	12328	2929.613471595044	1
0	12333	2929.841084563734	0
0	12337	2931.928420570329	1
0	12340	2932.628813345487	0
0	12346	2933.681229193624	1
0	12347	2934.183141490425	0
0	12385	2940.429303995337	1
0	12387	2940.618861845768	2
0	12389	2941.276319988753	1
0	12394	2942.376902251508	0
0	12398	2943.127615783134	1
0	12400	2943.738701694642	2
0	12403	2944.542282132228	1
0	12408	2945.246182009285	0
0	12412	2945.633562627521	1
0	12418	2947.4976522849	0
0	12495	2981.29682663006	1
0	12496	2981.561398057228	0
0	12517	2985.569180827904	1
0	12518	2986.140389554478	0
0	12531	2988.352682581298	1
0	12532	2988.562449106959	0
0	12538	2990.378030646867	1
0	12540	2992.94399133471	0
0	12544	2993.107636009715	1
0	12552	2996.620522824862	2
0	12555	2997.215151312892	3
0	12557	2997.256099741326	4
0	12561	2999.019772590406	3
0	12568	2999.613013898543	4
0	12569	2999.760658796902	3
0	12575	3000.859345898808	4
0	12576	3000.951844540051	3
0	12581	3001.38793902146	2
0	12588	3002.609380514865	3
0	12591	3003.195901213662	2
0	12596	3003.288280013155	1
0	12602	3003.553675607088	0
0	12618	3004.213935783528	1
0	12623	3005.835840710939	2
0	12624	3005.839456766882	1
0	12629	3005.918803486396	0
0	12645	3009.231780856162	1
0	12649	3012.332548275834	2
0	12650	3012.828640122617	1
0	12656	3013.452974191262	2
0	12659	3015.789683190456	1
0	12665	3016.450189093424	2
0	12668	3017.480219366908	1
0	12674	3017.852399626516	2
0	12676	3018.280202929496	1
0	12681	3018.34891204048	0
0	12701	3021.703437540276	1
0	12704	3022.497663314758	2
0	12706	3023.249893995857	3
0	12707	3024.255978757475	2
0	12713	3024.721907450819	3
0	12714	3024.979514480767	2
0	12721	3025.174306216286	1
0	12725	3025.731618617282	2
0	12728	3025.858008169974	1
0	12737	3028.410097707987	0
0	12751	3028.903150137846	1
0	12753	3029.317226491643	2
0	12755	3029.333727980838	3
0	12757	3029.779032506387	2
0	12762	3031.06951623636	1
0	12767	3031.260046179744	0
0	12800	3038.892788643002	1
0	12801	3039.656914845958	0
0	12808	3040.646225619448	1
0	12810	3041.17642168985	2
0	12811	3041.900260676136	1
0	12819	3045.844453415369	2
0	12821	3046.031336488078	3
0	12822	3046.802921561019	2
0	12827	3047.493599404946	1
0	12832	3047.538682656224	0
0	12838	3048.005859721297	1
0	12841	3048.097731549581	2
0	12842	3048.539989356499	1
0	12848	3048.557580721881	2
0	12855	3053.187125774459	1
0	12860	3054.183081140051	0
0	12894	3062.050787274154	1
0	12895	3062.549814486624	0
0	12903	3063.44242833834	1
0	12904	3066.10326244004	0
0	12910	3067.016725983677	1
0	12911	3067.23846309365	0
0	12927	3069.590414867803	1
0	12928	3069.717859981579	0
0	12935	3069.957899856175	1
0	12936	3070.289053191102	0
0	12984	3090.95837870995	1
0	12986	3091.248536308564	2
0	12988	3091.423342225619	3
0	12989	3093.568566976505	2
0	12995	3094.484132888509	1
0	13000	3094.562672169704	0
0	13055	3102.47656037854	1
0	13057	3105.078370862195	0
0	13089	3117.416640239087	1
0	13090	3117.491845545767	0
0	13146	3133.876826074317	1
0	13151	3135.993623677441	0
0	13169	3138.469346646159	1
0	13172	3138.925428084072	0
0	13187	3143.174722788398	1
0	13194	3145.058636707717	2
0	13199	3148.48614572997	3
0	13200	3149.099813888622	2
0	13205	3149.160067490272	1
0	13210	3149.612353173847	0
0	13233	3151.209712425134	1
0	13235	3152.200205426648	0
0	13248	3154.475072864226	1
0	13252	3156.025783993302	2
0	13253	3157.194269339131	1
0	13259	3157.649608310761	2
0	13261	3159.692520875598	1
0	13267	3159.76691605474	2
0	13269	3160.162208614802	3
0	13270	3161.104598063509	2
0	13275	3161.341590280884	1
0	13282	3161.982744561542	0
0	13289	3162.413034515224	1
0	13290	3162.751129902658	0
0	13296	3163.243910768901	1
0	13300	3165.166974127773	0
0	13316	3166.105718859131	1
0	13317	3166.865283380259	0
0	13348	3177.478713301775	1
0	13351	3179.74790637438	2
0	13354	3180.554874747581	1
0	13359	3180.561852756415	0
0	13365	3181.022051052293	1
0	13367	3181.877168752805	0
0	13373	3184.721790714106	1
0	13375	3186.816520848686	2
0	13382	3189.815683191128	1
0	13387	3190.562400127028	0
0	13412	3192.898017911245	1
0	13415	3195.234794863514	2
0	13418	3196.128767805252	1
0	13423	3196.598020711782	0
0	13429	3196.811401327175	1
0	13431	3197.057429312052	2
0	13434	3197.273462331785	1
0	13439	3198.393859875801	0
0	13445	3200.612863030237	1
0	13449	3203.468744113682	2
0	13451	3204.393074610033	3
0	13452	3204.406225423654	2
0	13457	3205.181476517098	1
0	13462	3205.78873841897	0
0	13507	3211.956269401697	1
0	13510	3212.152913970278	0
0	13538	3218.728846788278	1
0	13539	3219.268477838762	0
0	13550	3221.944813670578	1
0	13552	3222.312815852326	2
0	13554	3226.744114040381	3
0	13557	3228.506657742213	2
0	13567	3229.544190710472	3
0	13568	3229.993578807739	2
0	13573	3230.024872724712	1
0	13577	3230.875189998256	2
0	13580	3231.563077918463	1
0	13584	3231.876247324152	2
0	13587	3233.73578292565	1
0	13592	3234.430670022772	0
0	13641	3250.418511406258	1
0	13644	3251.754547988718	0
0	13658	3254.486138949986	1
0	13659	3254.719213136289	0
0	13670	3256.019837488609	1
0	13675	3258.45746621107	0
0	13682	3259.175307401486	1
0	13685	3260.194532643189	2
0	13686	3260.992761011489	1
0	13692	3261.656454736845	0
0	13707	3263.088180595441	1
0	13712	3265.298301923512	0
0	13724	3266.462668453365	1
0	13727	3269.384188163532	0
0	13733	3270.967197519442	1
0	13735	3271.923479001763	0
0	13760	3285.145396518876	1
0	13762	3285.573056088919	2
0	13764	3287.399792369109	1
0	13769	3287.78934039562	0
0	13775	3287.827357068776	1
0	13778	3288.294003181107	2
0	13785	3289.494551345552	3
0	13787	3289.832241070233	4
0	13794	3293.068689182077	5
0	13795	3293.593354546843	4
0	13801	3294.283654012981	3
0	13807	3295.345094882773	2
0	13812	3295.381171178547	1
0	13817	3295.393391095991	0
0	13832	3297.833417854154	1
0	13837	3299.643668594144	0
0	13844	3301.049686615952	1
0	13846	3302.455572173603	2
0	13849	3304.719094167277	1
0	13855	3306.577061882991	0
0	13867	3307.972658110866	1
0	13868	3308.105175292019	0
0	13893	3311.622910356744	1
0	13895	3313.182107855083	2
0	13896	3314.602196396718	1
0	13903	3316.220417350958	2
0	13908	3319.238280920443	3
0	13912	3320.865982242417	2
0	13918	3321.032147580069	3
0	13920	3321.510410093453	4
0	13923	3322.598488162267	3
0	13928	3323.060530118304	2
0	13933	3323.436955871831	1
0	13938	3323.456138609045	0
0	13942	3324.317053867101	1
0	13946	3324.506961267012	2
0	13948	3324.534088549241	3
0	13950	3325.887099558624	4
0	13951	3326.561035571823	3
0	13958	3329.257214484698	2
0	13962	3329.591901529644	3
0	13966	3333.233057744196	2
0	13973	3333.443477215734	3
0	13975	3334.97806293114	2
0	13981	3337.601226987281	1
0	13988	3338.858437207413	0
0	13994	3338.889534753712	1
0	13995	3339.102837121125	0
0	14035	3348.894612676036	1
0	14040	3351.758069126803	0
0	14053	3353.301921000482	1
0	14057	3354.855137020645	2
0	14058	3356.023873353751	1
0	14064	3356.854533905103	2
0	14066	3356.863386423314	3
0	14072	3360.532402051236	2
0	14078	3361.530607654224	3
0	14079	3361.539979858342	2
0	14084	3362.013690498195	1
0	14091	3362.816373974758	0
0	14097	3364.453085827593	1
0	14098	3366.190875208253	0
0	14102	3366.46479798804	1
0	14106	3367.942611994391	2
0	14109	3368.614820300239	1
0	14115	3369.135558739193	2
0	14116	3369.197863445843	1
0	14122	3369.978608195537	0
0	14145	3376.841032194639	1
0	14147	3379.796192879608	2
0	14149	3380.248376525306	3
0	14159	3385.2468158247	4
0	14160	3385.563196646919	3
0	14167	3386.580742150308	2
0	14174	3386.719433421583	3
0	14177	3389.068694620916	2
0	14184	3389.645602350446	3
0	14185	3389.8758089287	2
0	14191	3390.342496091699	1
0	14197	3390.892417505142	2
0	14198	3390.922263382106	1
0	14203	3391.087739645814	0
0	14235	3395.855332257721	1
0	14238	3397.033535221301	0
0	14262	3401.535780980121	1
0	14263	3402.108422929492	0
0	14270	3403.895972544671	1
0	14272	3404.352155779178	2
0	14274	3404.372558138141	3
0	14277	3405.049203198978	2
0	14283	3405.389968104069	3
0	14286	3407.281824942842	4
0	14287	3407.759680136617	3
0	14292	3408.24007177321	2
0	14297	3408.493741902552	1
0	14303	3409.110708754483	0
0	14338	3416.008819251909	1
0	14342	3417.308489836787	2
0	14343	3418.257707534054	1
0	14348	3418.36702529247	0
0	14362	3423.851680232343	1
0	14365	3425.810350637749	0
0	14373	3426.1581352007	1
0	14374	3426.267118409332	0
0	14383	3426.525518160226	1
0	14395	3430.417617577277	0
0	14428	3439.351227792793	1
0	14429	3439.47410773936	0
0	14436	3440.450649087803	1
0	14437	3441.401081074893	0
0	14462	3448.640006264996	1
0	14463	3449.303019206719	0
0	14471	3450.137351394925	1
0	14472	3451.431568936529	0
0	14527	3465.443702995389	1
0	14531	3467.276038333989	2
0	14532	3467.456956352039	1
0	14538	3469.635250783473	0
0	14597	3482.132874327825	1
0	14598	3482.175707198707	0
0	14611	3483.009862950516	1
0	14613	3483.394516403994	0
0	14628	3486.86190157622	1
0	14631	3487.117800244465	0
0	14684	3497.670761363738	1
0	14685	3497.676456855086	0
0	14721	3507.399706510148	1
0	14722	3507.896706120994	0
0	14763	3516.615141098097	1
0	14764	3516.760831887268	0
0	14789	3522.922951490237	1
0	14791	3523.600991260015	2
0	14794	3526.216565148533	1
0	14799	3526.474712687845	0
0	14823	3531.732849833758	1
0	14824	3533.19637100012	0
0	14837	3537.299885413034	1
0	14839	3538.330116090395	2
0	14844	3541.340033526772	1
0	14849	3541.385999715211	0
0	14868	3543.480834855017	1
0	14869	3545.381696547925	0
0	14879	3546.285909033483	1
0	14881	3547.910204891712	2
0	14885	3550.566145811139	3
0	14887	3550.753236236768	4
0	14891	3552.692969532045	3
0	14897	3552.982355190342	4
0	14898	3553.088708450584	3
0	14903	3553.471827788674	2
0	14908	3553.94246935253	1
0	14912	3554.767840989446	2
0	14914	3555.469791244466	3
0	14916	3556.551222732707	4
0	14918	3557.204299818127	5
0	14921	3557.33146885265	4
0	14925	3557.637958364383	5
0	14929	3558.505062558761	4
0	14933	3559.541719484821	5
0	14938	3560.813178641018	4
0	14944	3561.210549084988	3
0	14949	3561.609732995783	2
0	14954	3562.39203718979	1
0	14959	3562.93250152426	0
0	14963	3563.047840385445	1
0	14965	3563.325754928982	2
0	14970	3563.469769736488	1
0	14974	3563.547463378578	2
0	14977	3565.871902565274	1
0	14982	3565.994719900643	0
0	15003	3569.519081574338	1
0	15005	3569.927333837284	2
0	15006	3571.109278145738	1
0	15011	3571.200310525027	0
0	15033	3577.540308216668	1
0	15035	3578.285440716271	2
0	15036	3578.756729154601	1
0	15042	3578.925312760159	0
0	15075	3584.825810372401	1
0	15078	3587.12289179142	0
0	15085	3587.552959655392	1
0	15086	3587.835860633104	0
0	15092	3587.911896765571	1
0	15094	3589.651131170484	0
0	15158	3604.648333419663	1
0	15161	3605.58733840053	0
0	15174	3606.432159263465	1
0	15175	3606.929030652559	0
0	15232	3625.164920547561	1
0	15233	3625.438087718759	0
0	15249	3628.973559744661	1
0	15250	3630.775389448693	0
0	15276	3635.919560010855	1
0	15279	3638.478906712421	0
0	15309	3645.411220697891	1
0	15310	3645.510225110138	0
0	15319	3647.446922315458	1
0	15323	3653.038732428087	0
0	15329	3654.356660140603	1
0	15330	3655.746820501785	0
0	15343	3659.929329666156	1
0	15344	3660.054602701399	0
0	15364	3661.507425480026	1
0	15367	3663.841478138862	2
0	15368	3664.252060694645	1
0	15374	3666.41760871367	0
0	15391	3668.961088469511	1
0	15393	3669.851856502383	0
0	15413	3673.07146752871	1
0	15414	3673.521683661472	0
0	15420	3673.756411290319	1
0	15422	3676.988262091398	0
0	15434	3680.377197403356	1
0	15438	3685.759059343679	2
0	15441	3692.459470760398	1
0	15446	3693.880187650796	0
0	15454	3694.622014712858	1
0	15456	3695.441477359125	2
0	15459	3695.694570116011	3
0	15463	3696.383502694366	4
0	15464	3696.50798630589	3
0	15470	3697.120398234058	2
0	15475	3697.324171394441	1
0	15484	3698.470768409667	0
0	15500	3699.338639068153	1
0	15505	3700.472672714727	2
0	15506	3700.9172251431	1
0	15511	3701.104415447525	0
0	15535	3708.604897113267	1
0	15536	3709.406320430796	0
0	15588	3720.31520161713	1
0	15589	3721.870056550381	0
0	15597	3722.260795833845	1
0	15598	3722.44920771988	0
0	15617	3724.641929928501	1
0	15621	3725.455104368175	2
0	15624	3728.438757246502	3
0	15625	3728.439081727438	2
0	15634	3728.75213807537	3
0	15635	3728.776979998767	2
0	15641	3729.113158365877	1
0	15649	3729.621478899622	2
0	15651	3729.6699114747	3
0	15652	3730.727130316178	2
0	15657	3730.875970504772	1
0	15661	3731.849716102039	2
0	15664	3732.621391665203	1
0	15671	3735.412323889847	0
0	15679	3736.750161057277	1
0	15682	3737.014771443833	0
0	15696	3738.444952648462	1
0	15698	3738.453739362057	2
0	15700	3738.94961701546	3
0	15702	3739.763517110306	2
0	15708	3740.548673547395	1
0	15714	3740.65024101261	2
0	15715	3740.739071658693	1
0	15720	3740.764106453922	0
0	15735	3742.659358245041	1
0	15736	3743.316051522323	0
0	15748	3743.95787937765	1
0	15751	3745.899381736818	2
0	15753	3748.347647165896	3
0	15754	3748.784340386723	2
0	15760	3749.94570843727	1
0	15766	3750.747306878529	2
0	15771	3751.922413814458	1
0	15778	3752.242892131188	2
0	15782	3753.18432822765	3
0	15784	3753.605594784568	4
0	15786	3753.740116767621	5
0	15788	3754.257877640885	6
0	15791	3754.941649519432	5
0	15797	3755.018508380301	4
0	15803	3756.152248411816	3
0	15810	3756.970407515808	2
0	15817	3758.969680981437	1
0	15826	3761.252630045453	0
0	15832	3761.986871632067	1
0	15833	3762.966425701683	0
0	15839	3764.649829231898	1
0	15843	3765.144060414793	2
0	15844	3765.765273621484	1
0	15850	3766.132333090612	2
0	15852	3768.720556184598	1
0	15858	3771.421351257387	2
0	15859	3771.474593715948	1
0	15865	3773.158975696251	2
0	15866	3773.16103758177	1
0	15875	3776.906800249132	2
0	15876	3779.153434884036	1
0	15881	3780.250959827101	0
0	15885	3780.465398369249	1
0	15892	3782.687529030058	2
0	15893	3784.379383711334	1
0	15899	3784.638133795779	2
0	15903	3786.530918048705	1
0	15910	3786.807382365633	2
0	15911	3787.290820672604	1
0	15917	3787.678800170149	2
0	15918	3788.043956696416	1
0	15924	3788.744810921182	2
0	15926	3788.912926917586	3
0	15928	3791.051010837996	2
0	15934	3791.121801707027	3
0	15936	3791.298335819939	4
0	15938	3791.752274771918	3
0	15944	3793.190329818769	2
0	15949	3794.287804220724	1
0	15955	3796.966096211473	2
0	15958	3797.44902630878	1
0	15962	3798.19100113808	2
0	15965	3800.384348266025	1
0	15970	3800.435770788538	0
0	15976	3801.820933090097	1
0	15977	3801.985984488263	0
0	15981	3802.310218464927	1
0	15986	3803.95290842808	0
0	16021	3814.429610652697	1
0	16024	3814.656750291355	0
0	16030	3815.048994334696	1
0	16033	3815.829012622916	0
0	16044	3816.646689808112	1
0	16047	3817.505703570997	0
0	16067	3820.750070673029	1
0	16068	3820.831371704735	0
0	16077	3822.873884962222	1
0	16083	3828.467280360993	0
0	16096	3831.099339870106	1
0	16098	3832.261089143346	0
0	16117	3838.766925859619	1
0	16118	3839.072188157301	0
0	16129	3842.594989178342	1
0	16130	3843.394064501155	0
0	16144	3847.853790043224	1
0	16146	3848.610818331921	2
0	16148	3850.534823662789	3
0	16149	3850.625046041381	2
0	16155	3850.671140743795	3
0	16156	3851.115467981617	2
0	16162	3851.661112065401	1
0	16167	3851.69737365559	0
0	16173	3852.074225439895	1
0	16175	3852.325468808663	2
0	16179	3854.838713465327	1
0	16184	3855.306754028607	0
0	16193	3858.13156744729	1
0	16202	3861.631056387053	2
0	16203	3861.671960768395	1
0	16210	3862.12042997268	0
0	16219	3863.450688116364	1
0	16220	3865.527267208178	0
0	16226	3866.007659355055	1
0	16227	3867.258398909279	0
0	16252	3869.754353938987	1
0	16253	3870.73300365044	0
0	16261	3872.157116130615	1
0	16263	3874.620917132661	0
0	16278	3878.300933303476	1
0	16284	3881.37673574743	0
0	16313	3889.571764638273	1
0	16319	3890.16363776844	2
0	16320	3890.276563608236	1
0	16325	3890.494441583335	0
0	16339	3894.068346973391	1
0	16345	3895.294941145129	2
0	16346	3895.414327579818	1
0	16352	3895.702085451595	0
0	16369	3899.171776013883	1
0	16370	3899.578898135965	0
0	16434	3927.390639214604	1
0	16436	3931.200911479617	0
0	16459	3941.150548512225	1
0	16461	3942.695609734848	2
0	16462	3943.610180233775	1
0	16469	3944.338919918023	2
0	16470	3944.579798823167	1
0	16476	3944.941890317485	2
0	16477	3945.02265566828	1
0	16482	3945.335177406048	0
0	16548	3960.724614698061	1
0	16551	3963.907437195731	0
0	16568	3965.571676335178	1
0	16570	3966.999532977386	2
0	16573	3968.896966945015	1
0	16578	3969.003525670908	0
0	16591	3974.378845922584	1
0	16593	3974.575690093735	2
0	16595	3974.825355224261	3
0	16597	3975.544676062301	2
0	16602	3976.504854156922	1
0	16609	3976.815250596262	2
0	16613	3978.668619178588	3
0	16615	3979.061922986839	2
0	16623	3979.390596131835	3
0	16626	3981.218448402609	2
0	16635	3981.927889282853	1
0	16642	3984.167975945635	2
0	16644	3984.971989772227	1
0	16649	3985.433143805046	0
0	16660	3986.268218079423	1
0	16663	3987.304172821539	2
0	16664	3987.994314342675	1
0	16669	3989.986963149473	0
0	16673	3990.951090349176	1
0	16677	3992.516811159967	2
0	16683	3994.197617447003	1
0	16688	3994.322494150674	0
0	16692	3995.61274063062	1
0	16695	3996.656549957048	0
0	16707	3998.75022289954	1
0	16709	3999.510202907385	2
0	16711	4000.65822955653	1
0	16716	4001.064556390619	0
0	16723	4002.188854325996	1
0	16724	4002.951773397151	0
0	16762	4006.922109571298	1
0	16768	4008.959364360741	0
0	16781	4010.891220287302	1
0	16783	4011.766089365143	2
0	16784	4012.41223123246	1
0	16790	4013.692797789878	0
0	16835	4029.023407688778	1
0	16837	4029.552323898328	0
0	16940	4058.889879742887	1
0	16945	4061.028254387429	2
0	16948	4061.298979053121	1
0	16954	4061.895335356392	0
0	16983	4066.166652249902	1
0	16986	4067.62751082856	2
0	16988	4067.849188187083	3
0	16991	4069.006692300499	4
0	16993	4069.696570421793	5
0	16994	4069.809395842051	4
0	16999	4070.372582496786	3
0	17012	4071.588946791297	2
0	17018	4073.705193212678	1
0	17023	4074.02910545049	0
0	17048	4079.811949068656	1
0	17049	4080.765960057824	0
0	17064	4082.601471275023	1
0	17066	4082.721114848024	2
0	17069	4083.270705698809	1
0	17074	4083.509317556794	0
0	17085	4087.739553824574	1
0	17088	4087.99612928962	0
0	17105	4090.903743242542	1
0	17110	4092.586372618107	0
0	17121	4093.91399027449	1
0	17126	4095.061051669213	2
0	17128	4098.861610793117	3
0	17129	4102.254545405996	2
0	17135	4102.896097990288	3
0	17137	4103.298844199204	4
0	17138	4103.680239685811	3
0	17143	4104.06667492279	2
0	17151	4106.822989056708	1
0	17159	4107.726223394791	2
0	17162	4109.146541852279	1
0	17168	4110.770991812268	2
0	17172	4111.850020652603	1
0	17178	4112.496802868531	0
0	17195	4116.407315223539	1
0	17197	4118.134870504211	2
0	17198	4119.189610471613	1
0	17203	4119.710744344616	0
0	17209	4119.85728286799	1
0	17214	4120.643541770608	0
0	17220	4121.052685674558	1
0	17221	4121.098434609279	0
0	17253	4127.036936153382	1
0	17254	4127.631979114906	0
0	17268	4130.111361106936	1
0	17269	4130.235505853376	0
0	17283	4132.229112060068	1
0	17285	4133.031337209728	0
0	17296	4133.934308588964	1
0	17299	4136.922497686536	0
0	17313	4139.339942409732	1
0	17314	4139.712274337147	0
0	17321	4140.712508857074	1
0	17325	4141.883665229242	0
0	17362	4149.392065931135	1
0	17363	4150.264184614967	0
0	17370	4152.246258479149	1
0	17371	4152.270893650386	0
0	17398	4158.78973052246	1
0	17399	4158.958200276042	0
0	17411	4161.10410638673	1
0	17413	4161.242872910129	2
0	17414	4162.211802636369	1
0	17420	4162.511959651723	0
0	17467	4175.194595745188	1
0	17468	4175.328980608096	0
0	17498	4184.713301955044	1
0	17500	4186.068874876553	0
0	17514	4188.021245027064	1
0	17516	4188.992274463824	0
0	17522	4189.205413437999	1
0	17526	4190.41117051641	2
0	17527	4190.93951931337	1
0	17534	4191.900968121325	0
0	17555	4195.761544477439	1
0	17557	4196.420205189654	2
0	17560	4198.181655664389	1
0	17565	4198.484507168655	0
0	17579	4201.300631965961	1
0	17581	4204.386493182498	2
0	17586	4206.437987035937	1
0	17594	4209.235276569925	0
0	17611	4213.82641942794	1
0	17614	4215.885519546116	0
0	17620	4216.679048345902	1
0	17621	4216.936307365131	0
0	17640	4218.31567100417	1
0	17643	4218.904341195528	0
0	17659	4219.185799006704	1
0	17670	4223.351853775399	0
0	17689	4225.851355687972	1
0	17690	4226.001887738676	0
0	17696	4226.04872580388	1
0	17697	4226.46144495077	0
0	17713	4230.539790643202	1
0	17715	4230.889126094972	0
0	17721	4231.016539362099	1
0	17724	4231.635341920697	0
0	17746	4234.469035291174	1
0	17753	4238.425661757542	0
0	17759	4238.705061279894	1
0	17761	4239.141182957128	0
0	17844	4268.986218379372	1
0	17846	4269.234723941822	0
0	17904	4293.157812870924	1
0	17908	4294.200883247711	2
0	17910	4295.127945053102	3
0	17912	4297.458799047042	4
0	17913	4297.508023681652	3
0	17921	4298.600248035911	2
0	17927	4298.834163272582	3
0	17929	4299.635026129052	2
0	17936	4301.71947149269	1
0	17941	4302.11476860155	0
0	17965	4305.74412551918	1
0	17966	4306.076375225678	0
0	17975	4309.037982868965	1
0	17980	4312.303895639156	0
0	18020	4318.914785430929	1
0	18022	4319.435563351369	2
0	18026	4319.783353521313	3
0	18027	4319.815255046607	2
0	18033	4320.022581463757	3
0	18034	4320.07308886826	2
0	18039	4320.508765729425	1
0	18045	4320.533639434932	2
0	18047	4320.836409769686	3
0	18048	4320.85158421748	2
0	18052	4321.117511139196	3
0	18057	4321.884056424524	2
0	18063	4323.845353970391	3
0	18070	4327.458797491221	2
0	18076	4327.814162277262	1
0	18081	4330.379268865364	0
0	18120	4338.02322465452	1
0	18121	4338.242680073407	0
0	18173	4351.747745764465	1
0	18175	4352.986586347586	2
0	18179	4354.406172420203	3
0	18180	4354.92270351798	2
0	18186	4354.931514468317	3
0	18188	4356.211371259699	2
0	18195	4357.460418742999	3
0	18198	4360.418443889241	2
0	18205	4361.444665278764	1
0	18211	4361.514362049087	2
0	18212	4361.604774755173	1
0	18217	4362.381223234283	0
0	18228	4363.490272242125	1
0	18229	4364.310845595828	0
0	18237	4364.878725819284	1
0	18238	4365.23042364796	0
0	18250	4367.594655583813	1
0	18252	4368.095077570367	2
0	18253	4368.21610826555	1
0	18262	4369.590319921175	2
0	18268	4372.284454449568	3
0	18270	4373.111458998474	4
0	18271	4373.321315268404	3
0	18277	4375.137063987286	2
0	18282	4375.729753527884	1
0	18287	4377.17162501917	0
0	18310	4386.314983548112	1
0	18315	4387.582824964125	2
0	18316	4387.636692818739	1
0	18321	4389.53079205191	0
0	18335	4392.622795824821	1
0	18336	4393.853762260794	0
0	18350	4395.036717235127	1
0	18351	4395.240113560343	0
0	18372	4396.726441826986	1
0	18374	4397.024895812685	2
0	18376	4397.419595683472	1
0	18381	4398.357309548949	0
0	18439	4412.06596259041	1
0	18443	4413.25157187166	0
0	18456	4414.934799075744	1
0	18457	4415.003455754237	0
0	18463	4415.076833133148	1
0	18464	4415.13117896517	0
0	18524	4429.573173950201	1
0	18525	4430.195471276318	0
0	18540	4433.136192662382	1
0	18541	4433.277256746705	0
0	18574	4440.545050568993	1
0	18576	4441.274180644331	0
0	18612	4449.22944307121	1
0	18614	4450.28423247865	2
0	18617	4450.778546807901	1
0	18622	4451.258588495593	0
0	18681	4477.722662743436	1
0	18687	4478.556763762967	0
0	18700	4479.248176790786	1
0	18702	4480.385941111008	0
0	18721	4483.328526987366	1
0	18722	4483.554563704996	0
0	18751	4487.217144560836	1
0	18753	4487.356419498791	0
0	18765	4489.425169857906	1
0	18773	4491.145956900668	2
0	18774	4491.200040805499	1
0	18780	4491.648244556783	2
0	18781	4492.634391781378	1
0	18786	4493.30759375643	0
0	18796	4494.847093465713	1
0	18803	4497.636367005743	0
0	18828	4501.507251199075	1
0	18830	4502.537451249566	2
0	18832	4504.379686289594	3
0	18835	4506.135833941957	4
0	18840	4507.003645856197	3
0	18845	4507.60640082491	2
0	18850	4508.677813710357	1
0	18858	4512.001906930916	0
0	18932	4529.648448438071	1
0	18934	4530.478636412921	2
0	18937	4531.963526372094	1
0	18943	4532.477849622545	2
0	18944	4533.459864946279	1
0	18950	4535.590285644945	2
0	18951	4535.839535452677	1
0	18955	4538.411257351739	2
0	18957	4542.057996631916	3
0	18959	4542.061363408194	4
0	18969	4545.974025819656	3
0	18974	4546.614250804502	2
0	18982	4550.53206403413	1
0	18987	4550.728438582222	0
0	18994	4555.045365229025	1
0	18995	4556.097632201341	0
0	19011	4557.495455164823	1
0	19018	4561.413550675045	0
0	19035	4565.532848522164	1
0	19036	4566.937559169996	0
0	19042	4567.134231015994	1
0	19044	4567.702643291494	2
0	19047	4568.046665026788	1
0	19054	4569.670965062961	0
0	19072	4572.330443724168	1
0	19073	4572.515846004281	0
0	19079	4572.72298871257	1
0	19084	4573.663887336264	0
0	19107	4578.511268986324	1
0	19108	4579.018138928361	0
0	19126	4580.787095963748	1
0	19127	4581.463797986252	0
0	19139	4584.822756514939	1
0	19142	4586.339588105907	0
0	19148	4586.660810875776	1
0	19150	4587.990085938354	2
0	19151	4588.938088451572	1
0	19156	4589.060094802409	0
0	19170	4589.88212506616	1
0	19176	4592.056032455455	0
0	19180	4593.38314716909	1
0	19183	4595.153566222378	0
0	19187	4595.282904338496	1
0	19191	4596.180946888822	0
0	19206	4598.357194201962	1
0	19208	4599.589496051227	0
0	19218	4600.114992161467	1
0	19220	4601.367039519835	0
0	19237	4603.732676840449	1
0	19238	4604.171154289856	0
0	19262	4615.81783002927	1
0	19266	4617.541213779387	2
0	19268	4618.620052663726	3
0	19272	4621.674839525694	4
0	19273	4621.681823668275	3
0	19280	4622.430550613426	2
0	19285	4622.488161497551	1
0	19290	4623.102406986317	0
0	19306	4626.286932920274	1
0	19308	4626.38788044283	2
0	19310	4627.271662930995	3
0	19311	4627.560481437693	2
0	19317	4628.7585919981	3
0	19325	4630.479108789343	2
0	19331	4630.785354266886	1
0	19338	4631.063642689676	0
0	19344	4631.386353190361	1
0	19347	4633.532810803671	0
0	19360	4635.047420276032	1
0	19362	4635.183997721226	2
0	19364	4638.39963973879	3
0	19365	4638.969760697587	2
0	19372	4639.741861771378	3
0	19373	4639.804455052558	2
0	19380	4642.151278289655	1
0	19385	4642.198088696218	0
0	19414	4645.165012956798	1
0	19416	4646.886726707137	2
0	19419	4648.827570870123	1
0	19425	4649.044482314511	2
0	19427	4649.219530354766	3
0	19429	4649.740787292546	2
0	19434	4649.74626948651	1
0	19439	4650.476494527343	0
0	19445	4652.168660539311	1
0	19447	4652.790077162386	2
0	19449	4653.438794262424	1
0	19455	4653.934206473023	2
0	19458	4654.419855474546	1
0	19462	4654.92098257425	2
0	19468	4657.901921166967	1
0	19473	4658.038795853494	0
0	19502	4681.40698492878	1
0	19503	4682.053327184492	0
0	19509	4682.153988952027	1
0	19510	4682.241406910468	0
0	19518	4682.86464259664	1
0	19519	4683.700239948601	0
0	19535	4685.695409215119	1
0	19540	4693.794631474668	0
0	19546	4695.700860945924	1
0	19548	4697.922674569747	0
0	19554	4697.980935548285	1
0	19557	4698.762395652703	2
0	19560	4699.284220792877	1
0	19568	4700.086897586192	0
0	19592	4702.46944644625	1
0	19594	4702.885934375321	2
0	19600	4703.803903925242	3
0	19603	4708.86874135866	2
0	19610	4709.394966268509	1
0	19618	4710.000946390125	0
0	19649	4719.257057746978	1
0	19650	4719.299240881567	0
0	19677	4729.879891058198	1
0	19679	4730.469166262647	2
0	19680	4730.57529013705	1
0	19686	4730.885070103219	0
0	19692	4730.994792783509	1
0	19694	4731.592450083316	0
0	19718	4738.497308844718	1
0	19719	4739.306803701285	0
0	19790	4758.308544378666	1
0	19791	4759.315268494927	0
0	19797	4759.727508214937	1
0	19799	4760.082988767924	0
0	19825	4764.798569561036	1
0	19826	4765.26977401739	0
0	19873	4778.13242469352	1
0	19876	4779.495965845697	0
0	19890	4784.590903111493	1
0	19892	4784.971762244262	2
0	19894	4785.831467354396	3
0	19895	4786.850200212351	2
0	19901	4787.104558677761	3
0	19904	4787.359754387391	4
0	19905	4789.49495050162	3
0	19910	4789.589698448892	2
0	19916	4790.412642345166	1
0	19921	4790.41645204788	0
0	19930	4791.204163049623	1
0	19935	4793.505762915032	0
0	19975	4807.045378309238	1
0	19976	4807.271072861907	0
0	20001	4812.751668213224	1
0	20004	4813.829081173882	0
0	20028	4819.906657515519	1
0	20032	4820.727185245807	2
0	20038	4822.158001267621	3
0	20039	4822.420670996732	2
0	20046	4822.777537292403	1
0	20052	4822.887176665191	2
0	20053	4823.449423266088	1
0	20059	4823.600192023767	2
0	20063	4824.471648326186	1
0	20069	4825.466842652709	0
0	20076	4826.967535139508	1
0	20079	4827.134490597056	2
0	20080	4827.275125937224	1
0	20085	4827.788912499041	0
0	20089	4832.863492922144	1
0	20097	4837.840201300923	0
0	20116	4841.005110477977	1
0	20117	4841.056236053985	0
0	20142	4848.442053388058	1
0	20150	4849.851570567759	0
0	20196	4863.582048634443	1
0	20198	4864.907278641859	2
0	20202	4866.717037529843	3
0	20204	4867.420277357937	4
0	20205	4868.153359554401	3
0	20212	4869.123889357417	4
0	20213	4869.251400114444	3
0	20219	4870.643898293894	2
0	20226	4873.147830064144	1
0	20231	4873.271457048841	0
0	20250	4877.278809414721	1
0	20252	4877.746781467666	2
0	20254	4877.824762307539	3
0	20256	4878.045532400033	4
0	20258	4878.648455425045	5
0	20260	4879.21170512375	4
0	20266	4879.245845085662	5
0	20269	4880.187761575039	6
0	20270	4880.402483667298	5
0	20276	4880.631479560288	4
0	20282	4881.209730190069	5
0	20284	4881.651717829389	6
0	20287	4882.654671533184	5
0	20292	4882.741728997048	4
0	20298	4883.795213668789	3
0	20304	4884.84870591313	2
0	20311	4885.612840139616	3
0	20315	4888.319702118692	2
0	20322	4888.89484497748	3
0	20325	4890.358806599565	4
0	20326	4891.034371448808	3
0	20332	4892.193097450169	4
0	20333	4892.489997115952	3
0	20339	4892.587496350206	4
0	20342	4894.39465874116	3
0	20347	4894.546329267431	2
0	20352	4894.571895102064	1
0	20357	4894.996205734379	0
0	20361	4895.754178233725	1
0	20366	4896.521583904497	0
0	20377	4898.61144381502	1
0	20378	4900.000831933359	0
0	20409	4903.836306107004	1
0	20410	4903.923530971223	0
0	20450	4920.65941414263	1
0	20451	4920.663248417011	0
0	20460	4923.095674155411	1
0	20462	4924.003756227776	2
0	20463	4924.854588455641	1
0	20469	4925.751346593866	0
0	20480	4926.120143721716	1
0	20481	4926.926525892033	0
0	20487	4927.437724498996	1
0	20488	4927.995228940149	0
0	20492	4928.189071929407	1
0	20494	4928.213416301525	2
0	20498	4929.27188421972	1
0	20504	4929.843072763771	0
0	20510	4929.903747325549	1
0	20512	4930.805647579014	0
0	20519	4932.170352963391	1
0	20522	4932.478629735408	2
0	20523	4932.518050848947	1
0	20529	4932.793144800493	2
0	20530	4932.807197199501	1
0	20535	4932.881556725241	0
0	20541	4933.706837256607	1
0	20546	4936.807323900806	2
0	20548	4937.446925150268	1
0	20553	4938.259110335114	0
0	20566	4941.437523279932	1
0	20568	4942.552176171907	0
0	20592	4948.671386188204	1
0	20593	4948.707986260868	0
0	20608	4953.786848942316	1
0	20610	4953.884042420803	2
0	20612	4954.718576039456	1
0	20619	4955.356595875192	2
0	20620	4955.501558830297	1
0	20627	4956.051703765241	2
0	20628	4956.309649084781	1
0	20634	4957.501186503114	0
0	20648	4970.750310568291	1
0	20649	4972.118149373599	0
0	20669	4975.15709506013	1
0	20672	4975.50767772536	0
0	20707	4993.324591936368	1
0	20714	4995.208368871097	0
0	20723	4995.866988608011	1
0	20725	4997.233325149807	2
0	20729	4997.755380241333	3
0	20730	4998.67110655978	2
0	20735	4999.0533528884	1
0	20741	4999.875526946564	0
0	20777	5008.50706181159	1
0	20782	5009.40568134434	2
0	20786	5009.97841630253	3
0	20787	5010.18048459921	2
0	20793	5011.155755041563	1
0	20798	5011.516285776859	0
0	20845	5020.574279473702	1
0	20851	5021.530494848704	2
0	20853	5022.36042122687	1
0	20859	5024.965703294964	0
0	20865	5025.651054683078	1
0	20868	5026.717676082684	2
0	20870	5026.965649764529	3
0	20871	5027.064592160562	2
0	20877	5027.58067695655	3
0	20879	5027.714455262479	4
0	20881	5028.466534742478	3
0	20887	5028.629377224368	2
0	20893	5030.544360470695	1
0	20901	5033.464303458735	0
0	20944	5048.065452368471	1
0	20946	5049.374559461557	0
0	20991	5059.092970558619	1
0	20992	5059.149751931836	0
0	20998	5059.239808325777	1
0	20999	5059.50621407752	0
0	21093	5080.146136776197	1
0	21096	5081.2001750316	0
0	21110	5081.867922349155	1
0	21113	5082.705921483032	2
0	21115	5084.287719004088	1
0	21122	5086.492983284065	0
0	21191	5106.063006236228	1
0	21192	5106.239479070467	0
0	21199	5106.881753232833	1
0	21201	5108.893109066748	2
0	21202	5109.53150431101	1
0	21207	5109.696837136229	0
0	21221	5111.751974024	1
0	21226	5112.634970104768	2
0	21227	5112.72139585233	1
0	21232	5112.747034332994	0
0	21238	5112.815261069951	1
0	21240	5114.401440957263	0
0	21252	5115.595272758333	1
0	21255	5118.044651617143	2
0	21256	5118.168391098918	1
0	21262	5118.628246838135	2
0	21265	5118.921025974157	1
0	21272	5119.962042905438	0
0	21281	5120.149158180471	1
0	21284	5121.252002064374	0
0	21303	5125.468094792163	1
0	21306	5128.457143705855	0
0	21326	5130.62031596228	1
0	21327	5130.62130529742	0
0	21342	5131.986795879091	1
0	21346	5133.922883025173	2
0	21350	5134.318842802869	3
0	21352	5134.742910788824	2
0	21361	5135.668731148717	1
0	21367	5136.473382686614	0
0	21388	5140.045315392066	1
0	21391	5140.549107169478	0
0	21425	5147.664439613858	1
0	21428	5149.161916300009	0
0	21448	5150.903276545995	1
0	21449	5151.153987066107	0
0	21479	5158.823218962567	1
0	21483	5160.102477953274	2
0	21484	5160.550769721657	1
0	21492	5164.378658235407	0
0	21535	5176.752538664719	1
0	21536	5176.905695702991	0
0	21599	5195.714733202585	1
0	21600	5196.593757087414	0
0	21612	5198.599395033543	1
0	21614	5200.62016639393	0
0	21626	5202.404534716351	1
0	21629	5204.814086508953	0
0	21643	5208.850423979163	1
0	21645	5209.649432643372	2
0	21646	5209.789367937589	1
0	21652	5210.112982339957	2
0	21656	5211.873214945681	1
0	21663	5212.780366763987	0
0	21675	5215.752940368138	1
0	21678	5216.005776940311	0
0	21687	5218.128643387514	1
0	21689	5218.642824588499	2
0	21690	5219.717551983421	1
0	21699	5220.619758388165	0
0	21711	5222.30901658781	1
0	21715	5224.940720881384	2
0	21716	5225.198674879222	1
0	21725	5226.226651945812	2
0	21726	5226.386127925843	1
0	21731	5226.498527491328	0
0	21738	5227.239284435576	1
0	21741	5227.894238960607	2
0	21742	5228.196388847198	1
0	21747	5230.715190410743	0
0	21762	5232.279818515917	1
0	21764	5232.528201299127	0
0	21771	5232.933823109994	1
0	21772	5233.225027865662	0
0	21796	5236.045640875175	1
0	21801	5237.525440073625	0
0	21813	5240.661391482443	1
0	21815	5241.474351588768	0
0	21829	5245.837135512093	1
0	21831	5246.854028291447	2
0	21842	5248.956391023342	3
0	21843	5249.177805534633	2
0	21849	5249.591258042849	3
0	21857	5254.937670337611	4
0	21858	5255.002483299516	3
0	21863	5256.011853164981	2
0	21868	5256.090140762085	1
0	21873	5256.461634408274	0
0	21898	5264.125246915593	1
0	21902	5264.640531374658	2
0	21904	5265.040646554929	1
0	21910	5265.175600162208	2
0	21911	5265.554875427935	1
0	21917	5266.134405466281	0
0	21925	5267.006154698216	1
0	21928	5267.620857287555	0
0	21935	5268.589494541955	1
0	21939	5269.354283073624	2
0	21940	5270.375078642178	1
0	21946	5271.026070544752	0
0	21952	5271.916644176037	1
0	21953	5272.424992344005	0
0	21977	5273.855966046319	1
0	21979	5274.261586095151	0
0	21985	5274.345459059206	1
0	21986	5274.584820393855	0
0	21998	5276.404470565963	1
0	21999	5276.445701874178	0
0	22017	5279.470163148968	1
0	22018	5280.110904665515	0
0	22034	5282.356797635041	1
0	22039	5286.49117986464	0
0	22050	5287.534001443116	1
0	22052	5288.610676768449	2
0	22054	5289.267890178554	1
0	22059	5289.322926552053	0
0	22071	5291.314588892134	1
0	22072	5291.583560916903	0
0	22086	5292.350479388025	1
0	22089	5293.550478725542	0
0	22100	5295.745647006419	1
0	22101	5296.152875906672	0
0	22119	5302.319002166136	1
0	22120	5302.408867697975	0
0	22126	5303.481367842101	1
0	22128	5304.294260959878	2
0	22129	5306.47286800224	1
0	22134	5307.011706414697	0
0	22138	5308.511395724881	1
0	22145	5311.518438107391	0
0	22162	5313.789112368197	1
0	22163	5313.878299086402	0
0	22169	5314.265060238095	1
0	22173	5316.087183491816	2
0	22174	5316.936580355841	1
0	22179	5317.869012535423	0
0	22197	5320.250591682123	1
0	22199	5320.504254725827	2
0	22200	5322.526587548793	1
0	22206	5324.211417789723	0
0	22216	5325.387548807636	1
0	22218	5325.446159708117	2
0	22226	5332.918522436271	3
0	22227	5333.557210247581	2
0	22234	5334.14560985288	1
0	22239	5334.250851403472	0
0	22259	5341.019914206398	1
0	22267	5345.045131628452	2
0	22268	5345.973602060607	1
0	22275	5347.215595274865	2
0	22276	5348.155478746468	1
[...]
4	114366	27654.747143498912	3.563711920365
4	114408	27664.98537424271	2.009325181073
4	114412	27666.347391377276	1.528504147982
4	114454	27677.893816963719	0.569669230559
4	114474	27680.669221729005	2.503275661908
4	114513	27685.43420647889	4.559611939626
4	114527	27687.887869990487	6.840335803001
4	114535	27689.195230181214	5.616483245016
4	114550	27694.500204535075	7.90823623567
4	114565	27697.369818435526	5.269603239341
4	114576	27698.018547479618	0.575094784693
4	114595	27703.015483057977	3.149058215151
4	114605	27703.299084757073	1.319946724753
4	114644	27718.141330809432	1.310837950392
4	114667	27721.984078378541	0.600278467299
4	114695	27732.669361445521	9.086575436567
4	114710	27736.71406042749	12.591509470243
4	114715	27739.23329420902	11.238191645763
4	114719	27739.873433379955	5.078594577316
4	114729	27741.067488007222	0.489791857872
4	114738	27743.075762207201	2.418643476576
4	114814	27760.317011875795	3.278254223033
4	114825	27761.00050123173	0.388268212791
4	114834	27762.651785944552	0.47351778992
4	114849	27768.485128983402	3.695080824813
4	114909	27783.04505560218	6.743786897637
4	114926	27786.680202846988	10.050237382128
4	114933	27787.911390840044	5.322745556599
4	114981	27795.909053332015	0.329820981004
4	114985	27796.047216661939	0.453219513317
4	115032	27817.97269963572	9.041833386326
4	115059	27824.234948749895	13.358873481182
4	115073	27829.792134611541	12.473745174854
4	115080	27830.086935744273	11.14177669139
4	115085	27831.088507755194	12.108207186458
4	115094	27834.897552399995	15.644567384207
4	115111	27838.584812369098	13.620833076672
4	115130	27840.804710677384	10.863681206076
4	115136	27841.516171244734	6.837391193448
4	115145	27845.044209145344	6.081483006667
4	115154	27850.155561806546	8.453510544753
4	115191	27855.789320112313	11.649120267362
4	115195	27858.322665823203	5.498440211594
4	115202	27864.253371759731	0.634040284243
4	115220	27871.562447430919	1.255526592508
4	115245	27882.313644565478	4.023137150738
4	115273	27884.298456360479	4.211988157683
4	115288	27889.387324479934	6.954881583362
4	115302	27891.636278722494	9.061281325003
4	115309	27892.156049487219	0.641031912737
4	115318	27893.670535806043	1.829763983981
4	115341	27899.067999359803	5.527637022106
4	115376	27906.010466564009	1.265244626691
4	115401	27910.040072898684	2.86062047056
4	115410	27911.378787251614	1.93866505576
4	115437	27919.438250644935	2.015599571682
4	115456	27926.88042909859	0.392180852699
4	115502	27941.161007060431	7.025307694432
4	115523	27946.157257522536	9.363182009593
4	115528	27947.286263219402	6.054668851088
4	115538	27951.218080088183	7.170139254367
4	115547	27951.763187618629	3.567223297443
4	115560	27957.166171113772	4.38224084859
4	115587	27962.670810778928	7.005180783084
4	115612	27971.472696292518	7.374465429732
4	115642	27978.482611603172	0.255945152985
4	115658	27982.600255692142	2.080657644994
4	115684	27989.577438039438	7.691660972807
4	115740	28000.055350568968	13.025635708584
4	115752	28003.701276162474	7.663919830187
4	115762	28005.157987826365	4.152559136909
4	115788	28021.596337529176	2.089629767272
4	115801	28024.873153473619	2.576042426923
4	115825	28029.638566106314	0.081716191573
4	115835	28032.336398183723	1.771969657416
4	115851	28036.043605983705	2.869394383327
4	115892	28058.19914214011	5.575680175932
4	115923	28065.967685359571	4.062846273884
4	115942	28072.637487816975	0.143738133599
4	115982	28087.081985530049	1.212206565265
4	116054	28106.441127042662	13.813970775567
4	116065	28108.014910755019	9.827496530917
4	116075	28109.691821944713	9.975840855455
4	116086	28111.656014766996	10.330349858235
4	116093	28113.209626314232	6.855228725574
4	116152	28123.418453204641	13.881863010127
4	116164	28125.842357885779	9.887497862896
4	116174	28127.140556248752	6.804267703204
4	116189	28131.738334646276	10.644232032106
4	116219	28140.549755906661	19.399143091887
4	116242	28145.353611395903	21.487225512266
4	116247	28145.513532459094	17.043922416357
4	116270	28154.410635144521	25.509592566687
4	116510	28208.003555152841	68.666425616881
4	116604	28223.361741644727	80.121427769793
4	116615	28223.893469803223	80.297746702559
4	116630	28226.48010220693	78.784042426071
4	116649	28229.689575997323	76.748978409547
4	116662	28233.828094315929	80.886066378816
4	116673	28236.893533787427	83.438934726821
4	116678	28237.201757147629	83.116487351857
4	116685	28237.933713444722	81.590575691634
4	116708	28245.829805043521	81.365763104801
4	116727	28251.013851642824	85.913334574813
4	116753	28254.853847112845	80.696774079704
4	116772	28256.89460198148	79.275329877146
4	116780	28258.384192915376	80.356547732385
4	116789	28258.915983582094	80.096083003124
4	116800	28260.119885811001	67.325148541498
4	116809	28263.909457201805	67.829702347421
4	116826	28267.382737834878	60.033206424619
4	116831	28267.384597151409	58.59039522923
4	116839	28269.618192080108	59.823840533852
4	116855	28272.02995929234	60.26705184967
4	116860	28272.291570554297	56.824797662665
4	116865	28273.796260820756	55.341186033674
4	116874	28276.002357873191	55.231933346678
4	116885	28278.231338825296	53.170859550348
4	116993	28303.497624157592	78.429666700704
4	116999	28306.024736669531	79.596807375029
4	117007	28307.619030987044	61.113193087591
4	117024	28312.86526138522	56.690827055889
4	117036	28315.923606141492	57.787000491243
4	117051	28323.269217010126	52.008761364837
4	117058	28326.81519326118	52.332694292807
4	117066	28327.684245365899	52.449822221907
4	117081	28330.119960603253	53.284025558942
4	117086	28330.143835439368	44.485230742316
4	117093	28331.985501345762	39.184668776781
4	117106	28332.41953591593	21.182438129419
4	117126	28337.303793504977	25.144866127315
4	117133	28339.785914693924	22.501438516696
4	117157	28346.029337719211	24.454340648842
4	117207	28354.393008505461	25.464143934437
4	117214	28355.404270761796	22.086880017062
4	117223	28357.340446229221	17.852530652717
4	117233	28357.705287732461	17.893537456936
4	117242	28360.099610501991	18.920901134315
4	117259	28364.322881297452	22.709315225221
4	117279	28368.616948283776	26.15375528853
4	117299	28371.76968970938	26.327723496851
4	117308	28372.858612454041	25.312185420072
4	117322	28374.639760978966	26.811323414319
4	117327	28374.807802734093	11.804185418804
4	117331	28375.298417440542	3.194510178325
4	117338	28377.479429474598	0.308054467148
4	117345	28380.812940857467	1.621750890055
4	117352	28389.361148673752	1.205459871773
4	117379	28396.61768554832	3.327154361651
4	117390	28398.211163671427	4.674881310983
4	117424	28403.229812403805	2.276829472732
4	117434	28406.577702839649	4.124036086167
4	117447	28411.440588695469	0.682797576271
4	117472	28426.681699357879	3.946804487575
4	117476	28427.348894112595	3.755783825422
4	117500	28440.231330247536	1.671932006759
4	117511	28441.04816116059	2.108298090936
4	117578	28463.260586811838	0.701313596242
4	117587	28465.747978816777	0.356572923132
4	117599	28468.948223588611	1.224895554478
4	117609	28472.400778622687	4.441371729003
4	117618	28472.530536106432	0.202874417223
4	117674	28488.040991749494	0.953394558382
4	117736	28505.558188609849	1.187636880625
4	117755	28509.512894299129	0.021428753614
4	117794	28523.157532876612	0.858965803066
4	117806	28525.916397913984	1.439782921011
4	117819	28528.718573532271	0.471879444948
4	117876	28548.530034851373	4.316605242043
4	117881	28550.102213201554	5.580613110954
4	117893	28553.318112793297	5.00019871972
4	117905	28555.144030705131	4.194243586752
4	117937	28560.358529558879	5.033307603385
4	117955	28565.047589337536	1.48128146981
4	117983	28572.159592197425	2.691255540878
4	118009	28580.165895648061	5.280783750011
4	118015	28580.534010505494	2.901314634557
4	118025	28581.89161141763	1.962581638245
4	118041	28583.254216078148	2.105848187942
4	118083	28591.817143706582	9.137338842974
4	118090	28593.477441841045	5.387296849183
4	118096	28593.823036347159	4.135629755295
4	118103	28593.927121942675	1.486929555031
4	118107	28594.041845000386	0.153140239319
4	118141	28602.125993688282	2.434025733125
4	118161	28610.377020399201	3.19632774933
4	118166	28611.62793121854	2.992050028677
4	118173	28614.533686195352	5.419733048066
4	118182	28616.463179603177	2.284501747652
4	118216	28619.701469523802	4.605578698219
4	118225	28621.468129478749	0.428941114883
4	118270	28631.617657237921	0.412841099405
4	118300	28635.819813099028	1.211168646178
4	118313	28637.576678671062	0.868007121973
4	118365	28647.030935593789	0.649127953102
4	118382	28651.369274311446	3.903139865749
4	118403	28659.190361659679	6.078588897827
4	118422	28663.259683598316	9.636020628254
4	118426	28664.33208766005	9.775202309284
4	118438	28670.249570842493	4.965426061456
4	118446	28672.81318179925	5.093634613526
4	118460	28675.111155571246	6.961313366804
4	118485	28680.683267978421	2.903159819896
4	118489	28680.789812313216	1.221413680399
4	118559	28693.585673210817	7.941889845366
4	118568	28698.446885809967	9.994780447009
4	118583	28702.53184794884	13.077331574713
4	118588	28703.043687670198	13.170131810469
4	118599	28705.598734811353	8.240366608087
4	118627	28713.606159897816	15.129525168366
4	118679	28721.80319095869	16.94598033256
4	118686	28723.68446263352	9.21315786245
4	118692	28725.517735825523	9.77560260249
4	118699	28729.129091689014	12.572592557116
4	118717	28734.149094049383	17.119419891929
4	118730	28738.051935969498	14.496715546743
4	118741	28738.898464591946	6.200570207706
4	118752	28744.592043035649	11.591980710252
4	118783	28754.200046231803	21.185439498191
4	118792	28756.911646655295	22.644984490785
4	118828	28762.972458321556	26.739709299474
4	118873	28768.42326487668	31.126929947917
4	118878	28769.078339112685	29.435087489904
4	118885	28769.66510488382	18.72177512984
4	118894	28771.442588608482	19.56174241786
4	118906	28774.65769070103	22.605974948745
4	118910	28774.999413631943	3.62967028101
4	118929	28779.810674181314	1.576948999652
4	118933	28781.80150736491	2.313950186509
4	118947	28787.163930001324	1.140680367192
4	118957	28788.61981926866	1.445277364395
4	118961	28789.715722861271	1.258605172616
4	118969	28793.592486493822	3.415400975761
4	119014	28813.520771279933	2.097130527734
4	119049	28819.74486712169	0.297332230271
4	119117	28845.129545367556	3.373009907744
4	119136	28848.043315672025	0.644744129578
4	119174	28858.54349574065	1.256038874261
4	119188	28860.721427428155	1.632178245333
4	119208	28864.018909091557	4.392777054901
4	119227	28866.16839705294	0.934149230213
4	119319	28887.984071464399	0.616614122766
4	119328	28889.441211980896	0.069337872775
4	119364	28900.940903010023	1.327311421436
4	119377	28908.798439637954	8.613413951003
4	119418	28922.60629623772	22.275483365258
4	119443	28925.031360397446	20.095353314037
4	119454	28928.207182823682	11.550161045613
4	119464	28929.002208488553	3.379488262794
4	119477	28934.873471081951	8.904311788617
4	119496	28936.867498044094	5.912116260997
4	119501	28938.221579775607	4.371855680228
4	119525	28949.564115368435	2.35719305397
4	119550	28959.506269500736	0.717990006841
4	119561	28964.201906460702	0.314383893663
4	119574	28968.301303601443	1.231153150426
4	119591	28973.996662047734	2.772779354053
4	119609	28977.039975275725	0.82349541117
4	119660	28988.421855214544	9.844652902107
4	119676	28990.938067774599	11.231284608928
4	119698	28995.0772074801	11.597122043895
4	119703	28996.593228213382	6.942965933283
4	119714	29000.501773517742	8.088794026579
4	119733	29007.14636601603	7.518950843719
4	119742	29009.729795563078	5.144923239833
4	119751	29012.422457998419	3.489592214023
4	119760	29015.621038625326	0.510716068056
4	119767	29017.887130691558	1.782624018695
4	119808	29026.795408033499	2.882724947625
4	119812	29028.796914202419	3.854921526096
4	119823	29035.493743079647	1.988077556835
4	119844	29047.566462121818	0.558321440035
4	119851	29051.871678636259	1.56646841264
4	119868	29057.19102907821	1.086183682414
4	119875	29059.319471393652	0.674630496617
4	119890	29062.461430059244	1.016927191281
4	119917	29067.328311259999	2.223810616059
4	119925	29069.103706224754	3.764580484715
4	119975	29081.08386058897	9.398257973671
4	119981	29082.380645228776	3.927637185546
4	119990	29087.970383731625	7.458539907726
4	120011	29090.253450924448	7.517903547926
4	120023	29091.024348778337	2.085914441404
4	120043	29100.050061568048	11.006831352306
4	120102	29111.229362214784	21.824724705616
4	120109	29111.335686121804	9.292943947377
4	120134	29113.597638064386	6.619952183962
4	120139	29113.745511742854	2.383014498896
4	120144	29114.227667962323	1.989685303897
4	120160	29127.039723711423	0.508662635254
4	120167	29129.152884476584	0.426708894676
4	120183	29138.378561269158	1.382428980473
4	120190	29141.342666868968	1.560246542284
4	120202	29142.868005987784	1.224986002531
4	120215	29144.98693765802	2.322616623434
4	120219	29147.716033040515	4.563979539957
4	120266	29155.225876385136	0.607393227271
4	120289	29161.82750012851	0.869734943387
4	120305	29163.987903642478	2.251764884104
4	120324	29166.061235368455	2.713136615739
4	120467	29198.068287547155	21.785924236496
4	120478	29202.203363154899	16.172110274024
4	120528	29211.556651942678	9.037150928672
4	120534	29212.146027744083	2.810324486202
4	120541	29213.057478457481	2.785097601873
4	120545	29213.72260347375	1.022555476519
4	120552	29215.261343458657	0.406484206652
4	120566	29219.415266565255	2.247402037281
4	120631	29237.510247352178	2.033934816558
4	120641	29238.940715095805	0.465941557291
4	120646	29239.731028633213	0.892771156395
4	120661	29243.09679131298	1.196087383085
4	120684	29250.359978977412	2.019779299041
4	120761	29271.2368151632	14.964754142101
4	120774	29273.285908171241	10.813994509377
4	120781	29276.467752060395	8.195666406583
4	120792	29284.568746359287	16.002241170635
4	120817	29291.307171980868	18.062320600532
4	120827	29293.002126362675	18.009395618206
4	120839	29295.100646376796	13.707667160875
4	120844	29295.549967559883	8.120137283761
4	120854	29299.238386516579	7.400813942632
4	120882	29305.534724798594	5.937824080637
4	120909	29308.976930457134	8.397990510944
4	120916	29309.917725533468	5.876214117949
4	120921	29311.395164867079	3.056163088347
4	120957	29316.549939560719	2.360475393661
4	120968	29317.511959381427	0.854806873157
4	121019	29327.545037966818	0.741889487497
4	121052	29331.934076864026	3.050970293981
4	121122	29348.5835648934	2.432661724706
4	121142	29354.340277472781	3.1415666936
4	121156	29356.22021862748	1.59076666274
4	121161	29356.605716051175	1.05972803348
4	121193	29363.961703650458	4.635079712948
4	121219	29368.192909115665	3.567166586472
4	121234	29372.184167381204	6.632690651784
4	121256	29376.96041634276	9.139415525182
4	121263	29377.126943695873	8.545525834348
4	121300	29386.806370148502	13.585312569334
4	121305	29386.998218022765	10.581784583797
4	121309	29387.221065509767	3.002741424745
4	121321	29394.733368778973	2.778172780691
4	121325	29397.234570568173	4.67602210256
4	121340	29405.934150299632	0.530681371443
4	121374	29419.203676294562	9.316899860034
4	121399	29425.955141701374	14.939312982183
4	121412	29430.463018204473	18.532736140397
4	121440	29434.399671116445	13.240136599107
4	121451	29435.656394213195	8.320948656131
4	121459	29445.176518260348	12.352570785549
4	121474	29448.0751133111	2.744748238821
4	121515	29457.238008776722	5.20839218597
4	121527	29458.217175468811	4.354742875509
4	121559	29463.473105667836	6.727687313882
4	121578	29468.618986270455	10.924748963245
4	121593	29470.49033274559	10.120379910349
4	121598	29471.031232254515	10.286497062389
4	121611	29473.727157253567	12.544151688658
4	121650	29480.470226205942	4.040271197365
4	121656	29480.665509220818	3.304369354156
4	121660	29481.138441860023	3.371340966453
4	121670	29483.265368338816	1.255705533944
4	121704	29488.279088331497	4.505233656977
4	121719	29490.24649492738	6.452758406472
4	121741	29494.218675628867	4.219995296768
4	121753	29495.032137316077	1.923590831972
4	121781	29503.782485048422	1.926205889912
4	121795	29505.39074805326	2.747683761622
4	121819	29509.548676155456	5.066422380267
4	121823	29510.433381891626	3.921017661105
4	121833	29513.439895337892	1.727162935012
4	121837	29514.176293222269	1.258339617586
4	121873	29526.23310835302	1.720679293459
4	121894	29534.834143477376	4.647577527268
4	121903	29537.886015769583	0.135683792349
4	121922	29544.977348312497	2.855788261524
4	121934	29548.940286358841	5.523477650813
4	121972	29555.125131233208	8.303580913265
4	121976	29555.127465123266	4.793285203371
4	121986	29557.25936326281	0.03532597903
4	122074	29578.800047461125	16.588915452477
4	122087	29581.537762774142	16.33033578914
4	122096	29583.98143272018	13.281365274992
4	122113	29588.282041979683	12.640214044986
4	122125	29594.101918112603	18.391239448073
4	122137	29598.41545058827	21.70217237088
4	122144	29599.123822663272	22.40159581366
4	122155	29602.063727565259	22.43968785511
4	122161	29602.507312777304	20.601446926377
4	122170	29606.797390378546	17.449153238118
4	122189	29609.188407111597	1.16749313769
4	122252	29627.326041237743	2.50755573654
4	122288	29630.873891767345	2.876869831246
4	122301	29636.915889652109	3.516761822636
4	122316	29640.929667363857	2.527394175865
4	122333	29644.39103888276	2.78945815309
4	122357	29650.149591246499	1.979937824522
4	122478	29674.086095982319	13.490475418532
4	122523	29685.059226412351	19.725449054768
4	122541	29687.369925076349	17.949573316748
4	122551	29688.267893671272	17.559888545542
4	122560	29690.76367986972	19.861342496546
4	122585	29695.177707653323	23.059189491179
4	122604	29700.954226090374	7.687742529017
4	122612	29704.766956989851	7.099914256178
4	122616	29708.214585170974	4.405521763383
4	122633	29712.35929638899	3.499473988374
4	122650	29714.666752243745	4.067634216833
4	122671	29731.052554585234	19.9908886249
4	122728	29737.925249409072	25.996879972171
4	122734	29738.427089350178	17.742556151665
4	122749	29741.430999510573	17.659437281942
4	122774	29744.817646474899	19.134362905947
4	122780	29746.720101271753	12.572620847953
4	122787	29747.878254083217	9.98149173288
4	122793	29750.925803403729	11.418046829255
4	122802	29751.397831930414	11.404587089266
4	122827	29756.985654491186	15.216519095264
4	122843	29761.512236752481	6.930075842684
4	122856	29764.123573711443	8.986661437141
4	122871	29768.018645680515	12.675639418554
4	122877	29770.213575211907	10.382215959845
4	122884	29773.58642253462	12.434102028787
4	122895	29776.381436909863	11.947872281256
4	122906	29779.946980395766	14.137158212725
4	122950	29795.749290058089	6.489191918125
4	123014	29811.663545489123	18.952711169444
4	123106	29832.028287349935	32.661108717505
4	123111	29833.207969667333	33.009684390862
4	123117	29833.836609950975	30.722193566263
4	123127	29836.233972295516	23.845450116209
4	123154	29843.206248898275	21.722750716217
4	123213	29853.342116008829	27.503062487428
4	123218	29854.14798823431	19.151218034779
4	123224	29855.380403846415	18.880663656248
4	123231	29857.555151367089	17.563090058959
4	123245	29861.966907465833	20.331697036895
4	123271	29868.604450350031	12.817192665059
4	123277	29873.947740729286	14.914493477805
4	123284	29875.811697204032	15.843058667299
4	123295	29878.643087820422	15.077250328077
4	123302	29880.154275325114	0.124135202112
4	123314	29888.308638098697	4.571065156589
4	123329	29891.035870542119	2.355475555453
4	123334	29891.701333066614	2.293309849865
4	123341	29892.505401846919	0.448526405844
4	123352	29897.179129860048	1.043207353637
4	123365	29900.575482694161	0.571188395436
4	123390	29908.063698929928	0.620087039633
4	123405	29913.203218327757	0.470862481948
4	123439	29920.120386942297	0.760250211537
4	123483	29931.331757157896	0.844852871363
4	123522	29940.391497255592	3.497003740154
4	123531	29942.520055404799	0.979337242859
4	123538	29944.602880136532	0.897758337735
4	123604	29964.757494619614	1.220112480791
4	123630	29970.214064914383	0.86656185302
4	123634	29971.335971423905	1.14618057942
4	123676	29985.623253385555	4.444372141349
4	123691	29990.903032047737	7.055646903734
4	123722	29995.097077041764	8.248692620773
4	123726	29996.09310172494	5.361902047968

