version 2
run Second-n2-12-20191016-14:52:58-7476
attr configname Second-n2
attr datetime 20191016-14:52:58
attr experiment Second-n2
attr inifile omnetpp.ini
attr iterationvars ""
attr iterationvarsf ""
attr measurement ""
attr network org.omnetpp.queueing.Pizza
attr processid 7476
attr repetition 12
attr replication ""
attr resultdir results
attr runnumber 12
attr seedset 12
param **.PS.maxInventoriedPS 2
param **.U1.interArrivalTime exponential(3s)
param **.U2.interArrivalTime exponential(5s)
param **.PS.serviceTimeForInventoryU1 exponential(1.0s)
param **.PS.serviceTimeForInventoryU2 exponential(1.2s)
param **.PS.serviceTimeDirectU1 exponential(1.4s)
param **.PS.serviceTimeDirectU2 exponential(1.4s)
param **.PS.probabilityProducing 0.7
param **.CS.serviceTimeU1 exponential(1.1s)
param **.CS.serviceTimeU2 exponential(1.4s)

vector 0 Pizza.EntryQueueU1 queueLength:vector ETV
attr interpolationmode sample-hold
attr title "queue length, vector"
vector 1 Pizza.CS queueLength:vector ETV
attr interpolationmode sample-hold
attr title "queue length, vector"
vector 2 Pizza.EntryQueueU2 queueLength:vector ETV
attr interpolationmode sample-hold
attr title "queue length, vector"
vector 3 Pizza.sink lifeTime:vector ETV
attr interpolationmode none
attr title "lifetime of arrived jobs, vector"
attr unit s
vector 4 Pizza.sink lifeTimeU2:vector ETV
attr interpolationmode none
attr title "lifetime of arrived jobs, vector"
attr unit s
0	0	0	0
0	12	4.544079627315	1
0	15	4.647742685778	2
0	17	4.749720756831	3
0	18	4.810059113956	2
0	23	4.972400601896	1
0	29	5.008108668951	2
0	31	6.212105333864	1
0	37	7.802955186689	2
0	39	7.809740571748	3
0	43	8.441445705322	4
0	44	8.892321783	3
0	51	10.500077726359	2
0	56	10.523210037402	1
0	64	13.677817577402	0
0	98	19.213807240134	1
0	99	19.830582962333	0
0	115	27.254329639338	1
0	116	30.301844575787	0
0	152	45.044035226983	1
0	154	45.128949074368	2
0	156	45.172763329395	3
0	158	46.243517076394	4
0	159	46.734196233775	3
0	164	46.796446890613	2
0	171	48.000162283582	3
0	174	48.148422434844	4
0	175	48.593491613728	3
0	180	48.930799503297	2
0	187	49.287758510147	1
0	191	50.697155427628	2
0	194	51.50159208459	1
0	201	53.252832721104	2
0	203	55.195140541416	1
0	208	55.264532314016	0
0	215	56.366000253695	1
0	217	57.677118488129	0
0	239	62.017932528269	1
0	244	63.787685402185	2
0	246	64.780649169828	3
0	247	65.14221356906	2
0	252	65.667078389487	1
0	258	66.090460303613	0
0	282	72.524797405891	1
0	284	72.542578068392	2
0	286	73.693445706813	3
0	287	74.219015947998	2
0	296	76.508571297063	1
0	303	76.782883654816	2
0	304	76.92038854049	1
0	310	77.000188246743	2
0	313	78.694815945504	1
0	319	79.273967513048	0
0	332	80.134504085653	1
0	334	80.598089688993	2
0	335	81.403724003723	1
0	341	82.627033251722	0
0	353	83.730114075472	1
0	354	83.935564350537	0
0	367	85.275564676753	1
0	369	85.513726081867	2
0	370	85.906137913059	1
0	375	86.113459684587	0
0	388	88.300375545265	1
0	390	89.523035773054	2
0	391	89.554949914086	1
0	396	89.5637890098	0
0	406	90.139788131913	1
0	410	90.608348075547	0
0	417	92.618666487616	1
0	419	93.177287517909	2
0	420	93.291652160203	1
0	425	93.596112370555	0
0	429	95.733215836147	1
0	433	97.75887224072	2
0	435	98.000678194746	1
0	442	99.318745773523	2
0	445	99.803563896164	3
0	446	99.854404348502	2
0	452	102.560736173953	1
0	457	102.846524106427	0
0	463	103.921730100607	1
0	465	105.189235549658	2
0	466	105.393745983851	1
0	471	106.592624422042	0
0	513	119.314190336771	1
0	518	122.124177846872	0
0	535	129.753196656304	1
0	537	129.910358121735	2
0	538	130.81763150695	1
0	544	130.940756956616	0
0	565	138.141346467291	1
0	570	142.931670819168	0
0	589	149.078771876437	1
0	594	153.611645388088	0
0	653	170.761261902516	1
0	657	172.278938870445	2
0	658	172.304362312674	1
0	664	173.033092210613	0
0	676	174.437511042489	1
0	679	175.983817841249	0
0	715	181.638998106595	1
0	716	181.772104637964	0
0	742	185.026117531236	1
0	743	185.137154821509	0
0	777	202.61726545399	1
0	779	203.079616015952	2
0	783	203.42923017686	3
0	785	205.565379758362	4
0	787	205.959164312701	5
0	790	208.212555210445	4
0	795	208.25510291503	3
0	803	209.748704756427	2
0	809	209.91653423958	3
0	812	211.147465684555	2
0	818	212.512224044911	1
0	823	212.724930736297	0
0	833	214.041649154759	1
0	835	214.162501274808	2
0	837	214.701300986975	3
0	840	216.276181136101	2
0	845	216.816133049433	1
0	853	217.813091727741	0
0	879	222.241368621868	1
0	880	222.650170323425	0
0	891	225.50566507041	1
0	893	226.068472093308	2
0	896	226.526152228891	1
0	900	227.220799653015	2
0	907	229.048398754217	3
0	910	230.123517379203	2
0	916	230.896636078496	3
0	917	231.081780806505	2
0	923	232.731023706131	1
0	930	233.691960656301	0
0	937	234.619676156408	1
0	939	234.665309895889	2
0	940	235.736784360799	1
0	945	236.203103884012	0
0	957	236.479502115173	1
0	959	237.655491460146	0
0	968	238.339473160655	1
0	969	239.596682363727	0
0	997	245.686727594532	1
0	998	245.959066171372	0
0	1002	246.363731363809	1
0	1006	247.048605322425	0
0	1038	252.36722911442	1
0	1041	255.334250695893	0
0	1048	255.537012067959	1
0	1049	258.221083188245	0
0	1077	267.683875139212	1
0	1078	267.779702217162	0
0	1084	268.585768622169	1
0	1089	271.890536668658	2
0	1090	272.00490269713	1
0	1097	272.393725210424	0
0	1104	273.39019588205	1
0	1105	273.808662210875	0
0	1167	293.909945334989	1
0	1169	294.551589550377	0
0	1215	308.761188799627	1
0	1218	310.352355568217	2
0	1219	310.731804719958	1
0	1224	312.451605686378	0
0	1230	313.618415736507	1
0	1231	314.706559271267	0
0	1238	315.083066338863	1
0	1239	315.412508850836	0
0	1262	323.461472169658	1
0	1265	325.704719060949	0
0	1343	348.721850924293	1
0	1345	350.310805280981	2
0	1347	351.060572965531	1
0	1353	351.985730711455	2
0	1355	352.320458579791	1
0	1362	355.067372595717	2
0	1363	355.49531790413	1
0	1372	356.418128784154	2
0	1373	357.236842281286	1
0	1381	359.01737206636	0
0	1400	361.370621866781	1
0	1401	361.684278946911	0
0	1407	361.787198634186	1
0	1409	362.488889580823	2
0	1412	363.250862731956	3
0	1413	363.42852459262	2
0	1419	363.77946712388	3
0	1420	363.95279478863	2
0	1425	363.973497936576	1
0	1431	365.251926987623	2
0	1432	365.252565016437	1
0	1438	366.525071991445	2
0	1443	367.163950556811	1
0	1449	367.382230418069	0
0	1453	367.728617259894	1
0	1456	367.995538698691	0
0	1467	369.188638250765	1
0	1469	369.544265121073	2
0	1470	369.625876777887	1
0	1475	372.219413517609	0
0	1482	373.382656060078	1
0	1484	374.291553091836	0
0	1490	374.743714734217	1
0	1492	375.421709314864	0
0	1513	378.239393739575	1
0	1516	379.408046512259	0
0	1523	379.516038062098	1
0	1525	379.958132686306	2
0	1526	380.913665298615	1
0	1535	382.915758609133	2
0	1538	383.763569071701	1
0	1543	384.379228901747	0
0	1568	392.453693820601	1
0	1571	393.462517962495	0
0	1578	394.865188805752	1
0	1579	395.685655297194	0
0	1585	395.764779412367	1
0	1588	398.187553595215	2
0	1589	399.402211412207	1
0	1594	399.722027637037	0
0	1603	400.95051111547	1
0	1609	404.207628328636	2
0	1612	404.484156581552	3
0	1615	406.109296803908	2
0	1622	407.995198126899	3
0	1628	413.878300096177	4
0	1631	415.19780368119	3
0	1636	415.468154342913	2
0	1643	416.750957740867	1
0	1650	417.976576561552	0
0	1657	418.032409526604	1
0	1658	418.087876240205	0
0	1691	426.984924733604	1
0	1693	427.396714292761	2
0	1694	427.896459260731	1
0	1700	428.168330191146	2
0	1702	429.051462917215	3
0	1703	429.091008684638	2
0	1708	429.267043850741	1
0	1717	432.927568007503	2
0	1718	433.192499304452	1
0	1724	433.438213341691	2
0	1725	433.912678137579	1
0	1732	436.248608506057	2
0	1734	436.741572328499	3
0	1736	437.833185602266	2
0	1742	442.084014644276	1
0	1748	442.765866351278	0
0	1759	443.210452645152	1
0	1761	443.355385862994	2
0	1762	443.636830414154	1
0	1766	445.390831306075	2
0	1770	446.084785706427	1
0	1777	447.299701480904	0
0	1827	460.982969773967	1
0	1832	462.952256431688	2
0	1836	463.094163101199	3
0	1837	464.214293486161	2
0	1843	466.615014131754	1
0	1849	466.635222098383	2
0	1850	467.765923608428	1
0	1856	467.800037551412	2
0	1859	468.544537573904	1
0	1868	469.672856289727	2
0	1877	473.95890109092	1
0	1886	476.339286994938	0
0	1897	476.71109975587	1
0	1899	477.877600827139	2
0	1900	477.878152792695	1
0	1906	479.121066112412	0
0	1922	480.63841351932	1
0	1926	483.216890120517	2
0	1927	483.452073991023	1
0	1938	486.759528031991	2
0	1940	487.430142443515	1
0	1945	488.14078005444	0
0	1951	488.642507818154	1
0	1954	488.705481935225	2
0	1958	490.181754193217	1
0	1963	490.439863490577	0
0	1984	494.623230244969	1
0	1987	496.918847248002	0
0	2001	497.464047345859	1
0	2002	499.262260237771	0
0	2008	500.453792704153	1
0	2011	501.339359794448	0
0	2027	507.688318009566	1
0	2031	509.468394951294	0
0	2076	516.503927227054	1
0	2082	519.896930902077	0
0	2088	520.126663332496	1
0	2089	520.652685826632	0
0	2104	522.69473590186	1
0	2106	522.70886380163	2
0	2108	523.401937722814	3
0	2112	524.394391387822	2
0	2117	526.37643755255	1
0	2123	526.64655173149	2
0	2125	526.680015828097	3
0	2126	526.876239546936	2
0	2130	527.056574306216	3
0	2134	527.210270529268	4
0	2135	527.767199642655	3
0	2142	528.8189751183	2
0	2147	528.95884125999	1
0	2156	531.983834269777	0
0	2176	536.131970762327	1
0	2179	536.59813723299	0
0	2185	537.059711214233	1
0	2186	537.935944073833	0
0	2195	542.977881826124	1
0	2201	544.514501496825	2
0	2203	546.043474571829	1
0	2210	546.733195754325	2
0	2211	546.963583988991	1
0	2216	547.288981592246	0
0	2220	548.05277955759	1
0	2225	548.650909839184	0
0	2229	548.836570270753	1
0	2231	549.812455024284	2
0	2234	552.507181808711	1
0	2241	553.575719469692	0
0	2245	554.005614030741	1
0	2248	556.178385285325	0
0	2258	558.307020593714	1
0	2259	560.108760596242	0
0	2283	569.966861479826	1
0	2287	571.3742383165	2
0	2288	572.181892758062	1
0	2293	572.781019500199	0
0	2302	573.59983980872	1
0	2306	574.082593291279	2
0	2308	574.089547036153	3
0	2316	577.072755407659	4
0	2317	579.551256935426	3
0	2323	579.698328082615	4
0	2324	581.666642512343	3
0	2329	581.872924568537	2
0	2333	582.10748238599	3
0	2335	585.116938533132	4
0	2340	588.413143291623	3
0	2346	588.94770108167	2
0	2353	589.133421216395	3
0	2354	589.719340410452	2
0	2359	590.596709281695	1
0	2364	590.670061746757	0
0	2368	593.236077229237	1
0	2374	594.972346044066	2
0	2375	595.042576353684	1
0	2383	596.023266601713	2
0	2385	596.473793888238	3
0	2386	597.078164649845	2
0	2391	597.593750963848	1
0	2396	599.371699253623	0
0	2411	602.144185199101	1
0	2413	602.318128538709	2
0	2419	604.370138522701	1
0	2425	604.948231491564	2
0	2427	610.613731409314	1
0	2432	610.665395974451	0
0	2450	615.767689161803	1
0	2452	616.728410503358	2
0	2453	617.599774829825	1
0	2460	620.173331874259	2
0	2461	621.368798152236	1
0	2466	621.570137656195	0
0	2483	624.880605458052	1
0	2486	625.234782953419	0
0	2495	627.327474510396	1
0	2496	627.507171970706	0
0	2510	630.735884537205	1
0	2513	631.675150584559	0
0	2548	640.650020047729	1
0	2555	642.539256958398	2
0	2558	644.841553861967	1
0	2563	644.935917473361	0
0	2570	645.492395021492	1
0	2572	647.113500140414	0
0	2593	652.764281971951	1
0	2598	655.034489633263	0
0	2610	656.912075979997	1
0	2612	656.917396535972	2
0	2614	658.001448273007	1
0	2620	659.075730923059	0
0	2649	667.076765448486	1
0	2654	667.736035014372	2
0	2655	668.071928600742	1
0	2660	668.108120856739	0
0	2673	669.965314849861	1
0	2675	669.976429425255	2
0	2677	670.635204714248	1
0	2683	671.295336600481	2
0	2684	671.328619888534	1
0	2689	672.206041087471	0
0	2695	672.489075400175	1
0	2699	673.64814855899	2
0	2703	674.794154864604	1
0	2708	675.819181250815	0
0	2712	675.852786006606	1
0	2716	676.280147576558	2
0	2718	677.800252737554	1
0	2724	679.423642220809	2
0	2725	679.649441521468	1
0	2731	682.088734271016	2
0	2732	682.116714083094	1
0	2737	683.080864814058	0
0	2772	692.541454298827	1
0	2775	693.350304250065	0
0	2781	694.57458692387	1
0	2784	695.199396465096	2
0	2785	695.23665406621	1
0	2790	695.341093618677	0
0	2810	697.389542278227	1
0	2812	697.860339478525	2
0	2813	698.027851867334	1
0	2818	699.265254545912	0
0	2840	704.038006489564	1
0	2842	704.480831077188	2
0	2844	706.152851955265	3
0	2845	706.421882210506	2
0	2851	706.660053194404	3
0	2853	707.418187211589	2
0	2861	708.888308284348	3
0	2864	711.34206160382	2
0	2872	712.083153716995	1
0	2878	712.743100269711	2
0	2881	713.655066568022	1
0	2886	713.721110409359	0
0	2892	714.045243224605	1
0	2894	715.499224297424	2
0	2896	717.467468133877	1
0	2901	717.684754762692	0
0	2914	720.487312894436	1
0	2916	720.994182547281	0
0	2920	721.281712181018	1
0	2924	721.910063729367	2
0	2926	722.308696713698	3
0	2927	722.841494163318	2
0	2933	724.629314265175	3
0	2935	724.702373961933	4
0	2937	725.430675519559	5
0	2946	730.627743117032	4
0	2951	731.202501859735	3
0	2955	731.242264491789	4
0	2957	731.672832385382	5
0	2960	732.662398366303	4
0	2965	733.805156823734	3
0	2969	733.813161578608	4
0	2972	734.808828420257	3
0	2977	735.986107299666	2
0	2984	738.044402052425	1
0	2990	738.41310439557	0
0	2997	739.894123859088	1
0	2998	740.16990670362	0
0	3025	746.634898971814	1
0	3027	746.932429062843	2
0	3031	747.653405725647	3
0	3032	747.854496321155	2
0	3037	747.875460174329	1
0	3042	747.928718933516	0
0	3052	750.769595205194	1
0	3053	751.001919947428	0
0	3092	763.547045971996	1
0	3093	765.665607066344	0
0	3102	766.24958109151	1
0	3106	768.662471784988	0
0	3112	768.770930016721	1
0	3117	770.511932745164	2
0	3120	772.100488844606	1
0	3125	772.922112252037	0
0	3138	775.126543499662	1
0	3139	775.575862724524	0
0	3158	780.987868697727	1
0	3161	781.962056097015	0
0	3178	787.431748613857	1
0	3182	789.498773127489	2
0	3183	789.751738421596	1
0	3192	791.675205411867	0
0	3223	805.649358926495	1
0	3225	806.478698781477	2
0	3227	809.831336419066	3
0	3231	811.496435657808	4
0	3233	812.226818845689	5
0	3234	813.319185823032	4
0	3239	813.710724216364	3
0	3244	813.944378399168	2
0	3248	814.744060360927	3
0	3251	814.783107540601	2
0	3256	816.170484347601	1
0	3263	820.46303786567	0
0	3269	820.488721839365	1
0	3271	822.07467407642	0
0	3283	826.777483261795	1
0	3284	826.877387452038	0
0	3298	832.697383838251	1
0	3299	834.571055886165	0
0	3333	843.417140594469	1
0	3336	845.387434649585	0
0	3343	846.389377309974	1
0	3346	847.660797653055	0
0	3368	854.296482707873	1
0	3370	854.401168709722	2
0	3374	854.628659783335	3
0	3375	854.743670728073	2
0	3379	858.213175895341	3
0	3383	861.457602925417	2
0	3388	861.869183772944	1
0	3392	862.784391347583	2
0	3395	863.176293787713	1
0	3405	864.256309508282	2
0	3406	865.270651053176	1
0	3411	866.148281108801	0
0	3422	874.937724053665	1
0	3423	876.256334729124	0
0	3430	876.957560146671	1
0	3435	878.831957225713	0
0	3439	879.912484398461	1
0	3444	883.745980143888	0
0	3450	885.646564081735	1
0	3453	886.442282876426	0
0	3488	900.191966290487	1
0	3490	900.680228420648	2
0	3491	902.443482991871	1
0	3496	903.236208200369	0
0	3510	906.342730467642	1
0	3511	908.060810503414	0
0	3525	910.83992749574	1
0	3527	911.6968360165	0
0	3541	915.105515524453	1
0	3545	917.513723676	2
0	3551	921.738800036801	1
0	3557	922.155161404895	2
0	3559	922.368697135212	3
0	3560	922.44941883029	2
0	3566	922.709581109829	1
0	3572	922.857052656609	2
0	3574	923.693640032788	1
0	3579	924.399245009747	0
0	3583	924.614952271832	1
0	3587	925.295673186663	0
0	3617	934.759829784244	1
0	3618	934.870602452937	0
0	3708	958.145549951189	1
0	3711	958.791290905602	0
0	3751	966.497481383466	1
0	3755	967.186805296862	0
0	3794	974.243476533163	1
0	3798	976.466980118158	0
0	3844	989.175267221184	1
0	3845	989.47063448602	0
0	3859	990.251215920831	1
0	3860	990.537569009711	0
0	3869	991.652497125591	1
0	3871	991.88431567354	0
0	3878	992.612674473137	1
0	3879	992.855597774813	0
0	3887	993.60884636848	1
0	3888	993.876987415616	0
0	3911	1000.219104384201	1
0	3912	1000.382070752888	0
0	3937	1004.923493747407	1
0	3940	1005.41045334492	0
0	3946	1005.41460295006	1
0	3949	1006.514754161696	0
0	3956	1007.499024433404	1
0	3958	1009.289121346915	0
0	3971	1010.310923958723	1
0	3974	1011.761449051523	0
0	3983	1012.668370597131	1
0	3984	1013.274956569944	0
0	3990	1013.86942049806	1
0	3992	1015.092335922734	0
0	3998	1015.234877068404	1
0	4000	1015.718933622533	0
0	4011	1015.884063329409	1
0	4014	1017.477788683028	0
0	4026	1019.20971295654	1
0	4027	1019.46118428863	0
0	4052	1025.236884672539	1
0	4054	1025.537195359984	0
0	4095	1034.535469040963	1
0	4096	1035.434395970973	0
0	4173	1053.297136765267	1
0	4178	1055.467107633631	0
0	4208	1061.594028143841	1
0	4209	1061.786197056719	0
0	4216	1062.920011323342	1
0	4219	1063.545718640638	2
0	4220	1064.780188901606	1
0	4228	1066.079802888334	2
0	4231	1066.82728967011	1
0	4237	1066.837791247981	2
0	4239	1067.550600562501	1
0	4244	1068.002253244863	0
0	4264	1076.381245256954	1
0	4267	1077.373410933846	2
0	4268	1077.427524692857	1
0	4275	1079.476264084176	0
0	4281	1081.033792057978	1
0	4283	1082.476032710685	2
0	4284	1083.148028166405	1
0	4289	1083.210239776475	0
0	4304	1087.330045963863	1
0	4307	1088.11850704796	2
0	4309	1089.127971913222	3
0	4310	1089.571636677503	2
0	4318	1091.366844281994	1
0	4324	1092.24429288314	0
0	4368	1100.218721012346	1
0	4370	1100.32108066138	2
0	4371	1100.455975530528	1
0	4381	1102.380182536162	2
0	4385	1102.822086227461	3
0	4386	1102.985972901731	2
0	4392	1105.121206684803	1
0	4398	1106.636767104815	0
0	4415	1110.467039441912	1
0	4416	1110.840728384135	0
0	4427	1112.568941593405	1
0	4429	1113.386455975703	2
0	4432	1113.618625664971	1
0	4442	1115.865212889429	2
0	4443	1116.932918366415	1
0	4448	1117.057095095188	0
0	4454	1117.245205274708	1
0	4456	1119.720374102285	0
0	4483	1122.545077217304	1
0	4484	1122.937805554841	0
0	4495	1124.492526839714	1
0	4497	1126.062228360598	2
0	4500	1128.01539788182	1
0	4506	1130.285332512016	2
0	4509	1130.424650841091	3
0	4513	1130.840941406446	4
0	4515	1132.076661147903	3
0	4520	1133.30266146988	2
0	4526	1133.685773971019	3
0	4527	1133.697788616084	2
0	4534	1135.023563705825	1
0	4539	1135.443450606125	0
0	4551	1136.749270705902	1
0	4553	1137.316069529958	2
0	4555	1139.183076006902	1
0	4562	1139.821316673879	2
0	4565	1142.898401357254	1
0	4570	1143.386133319657	0
0	4583	1144.800763424887	1
0	4584	1145.081811921253	0
0	4592	1147.925170828067	1
0	4593	1147.939856677222	0
0	4606	1148.152665454523	1
0	4610	1149.128563483371	0
0	4619	1150.138359271655	1
0	4621	1150.716079743873	2
0	4622	1150.830313468952	1
0	4628	1152.158133846084	2
0	4629	1152.287111514152	1
0	4634	1152.581142022101	0
0	4657	1157.465998975165	1
0	4659	1157.878738364332	0
0	4691	1175.005572524034	1
0	4692	1175.159404867025	0
0	4732	1187.024719086839	1
0	4734	1187.300892282405	2
0	4737	1187.749566556988	1
0	4745	1188.208540401823	2
0	4746	1188.692119155098	1
0	4752	1189.708944299878	2
0	4761	1191.262088377184	1
0	4769	1191.378496421033	2
0	4771	1191.61551396252	3
0	4772	1191.873586971364	2
0	4777	1192.231664391739	1
0	4781	1192.51466613899	2
0	4786	1194.44249572644	1
0	4792	1196.31428703837	0
0	4801	1196.863412300258	1
0	4805	1198.00686470498	0
0	4820	1201.275005355502	1
0	4823	1202.608880100644	0
0	4832	1205.299063899032	1
0	4833	1206.628679200487	0
0	4843	1207.221279949724	1
0	4851	1212.612322408024	2
0	4852	1214.331698175372	1
0	4860	1215.140811879863	0
0	4868	1216.037815498793	1
0	4877	1217.970240608798	2
0	4878	1218.170941283191	1
0	4883	1218.447054132826	0
0	4897	1221.371804702029	1
0	4899	1222.241382848849	2
0	4900	1222.783205145266	1
0	4905	1223.190204420869	0
0	4921	1225.07809693801	1
0	4922	1225.171499003829	0
0	4926	1227.562310116535	1
0	4930	1230.711410559654	2
0	4934	1232.304462230882	1
0	4943	1233.830483403779	0
0	4954	1237.762731762333	1
0	4955	1239.011748426047	0
0	4962	1239.631030024866	1
0	4963	1241.458758745409	0
0	4970	1242.800742621242	1
0	4972	1243.298070381625	2
0	4973	1244.515240885166	1
0	4979	1244.544644384882	2
0	4980	1244.796992766526	1
0	4985	1245.151036071457	0
0	5007	1248.67835397528	1
0	5010	1250.905029440698	0
0	5022	1251.395056019491	1
0	5024	1251.449932826307	2
0	5027	1251.785723087943	3
0	5029	1254.657023570015	4
0	5031	1255.365969429001	5
0	5033	1257.814752981502	6
0	5035	1258.248781010405	7
0	5036	1260.060154195464	6
0	5042	1260.219415352282	7
0	5044	1260.288220959387	8
0	5048	1262.602255154891	7
0	5054	1263.029791603704	6
0	5059	1263.214899188236	5
0	5069	1265.096151658239	6
0	5072	1266.652050673661	5
0	5079	1268.082335769216	4
0	5084	1268.376185573364	3
0	5095	1272.606726186843	2
0	5101	1272.802555528048	1
0	5106	1272.834045370439	0
0	5116	1274.902601946188	1
0	5117	1275.630510921814	0
0	5129	1276.707228226845	1
0	5131	1277.38960687302	2
0	5134	1279.079463455542	1
0	5139	1279.35086381509	0
0	5145	1279.541725125155	1
0	5148	1280.138195032531	2
0	5149	1280.490383368194	1
0	5154	1280.910551597263	0
0	5186	1289.085829886445	1
0	5193	1290.521272582574	0
0	5204	1291.681455618439	1
0	5208	1292.717952104637	2
0	5210	1293.325305012699	3
0	5211	1295.619901887996	2
0	5216	1295.787117486935	1
0	5222	1296.221360874944	0
0	5226	1298.140735608371	1
0	5229	1298.975207564685	0
0	5233	1299.555197422963	1
0	5238	1301.913514255308	0
0	5257	1307.150080612882	1
0	5258	1307.171356995151	0
0	5276	1312.111118992707	1
0	5277	1313.39099455343	0
0	5302	1319.489590362521	1
0	5304	1321.684334586348	2
0	5308	1323.937301022138	1
0	5319	1325.147064628642	0
0	5330	1325.757004195244	1
0	5331	1326.681090243808	0
0	5349	1333.179721863682	1
0	5350	1333.771566166526	0
0	5356	1334.082806992145	1
0	5358	1334.333648344343	2
0	5359	1334.509217663467	1
0	5367	1335.524714835001	0
0	5373	1335.568557690701	1
0	5375	1335.638547032561	2
0	5384	1340.309010198023	3
0	5385	1340.384602362651	2
0	5391	1341.003398282515	3
0	5393	1341.940728850839	4
0	5396	1343.195570333887	5
0	5398	1343.398362905524	6
0	5399	1343.872322632799	5
0	5405	1344.096237642811	4
0	5410	1344.729003688128	3
0	5415	1344.965523543619	2
0	5420	1352.347718196098	1
0	5427	1353.654793631921	0
0	5431	1355.24813003507	1
0	5434	1356.49537738351	0
0	5504	1382.469472741004	1
0	5509	1386.02099120993	0
0	5520	1387.093968623395	1
0	5521	1389.362363786801	0
0	5532	1390.394091795432	1
0	5535	1391.215171642991	2
0	5536	1391.328055992365	1
0	5542	1392.442361934791	0
0	5568	1400.202513317613	1
0	5571	1403.092107665168	0
0	5586	1408.678622990695	1
0	5593	1410.888677755735	0
0	5605	1419.210862940696	1
0	5610	1421.011671450973	0
0	5643	1430.062531729966	1
0	5644	1430.450776710726	0
0	5653	1430.775898537297	1
0	5658	1432.47292373541	2
0	5659	1432.981258357829	1
0	5669	1435.644501469941	2
0	5671	1438.449077312407	3
0	5673	1438.624626549641	4
0	5675	1438.89010603118	5
0	5677	1439.233934669404	6
0	5679	1439.630791360376	7
0	5680	1440.234985161272	6
0	5686	1440.246461761462	7
0	5687	1440.478279625482	6
0	5693	1440.762651123721	7
0	5694	1441.001155664725	6
0	5698	1441.594726288813	7
0	5701	1442.779401644935	6
0	5705	1443.578311905421	7
0	5709	1448.139607733455	6
0	5716	1449.210585184966	5
0	5722	1449.965707576063	4
0	5727	1450.903541194366	3
0	5731	1451.772522437022	4
0	5733	1452.989767827358	5
0	5736	1455.882980743782	4
0	5742	1456.915162537403	5
0	5743	1457.221957759273	4
0	5751	1460.195374181623	5
0	5754	1461.66744658474	4
0	5758	1462.806582940268	5
0	5761	1466.987463461319	4
0	5765	1468.955995071415	5
0	5768	1470.756625851512	4
0	5775	1473.018903177586	3
0	5780	1473.033967264641	2
0	5787	1473.248460750148	1
0	5792	1473.337699262102	0
0	5805	1474.412384926816	1
0	5806	1474.565878356987	0
0	5812	1474.797555682776	1
0	5815	1475.142808476429	2
0	5816	1475.26258338026	1
0	5822	1475.823843299905	2
0	5823	1475.983472483567	1
0	5828	1476.203834967857	0
0	5842	1480.901911608804	1
0	5843	1481.215930598461	0
0	5872	1488.446262191974	1
0	5874	1488.698389350862	2
0	5876	1489.484904413379	3
0	5877	1490.649835626462	2
0	5886	1492.253926833565	1
0	5892	1494.184056316715	0
0	5942	1504.887947099516	1
0	5944	1505.098833982764	0
0	5995	1517.716733556253	1
0	5999	1519.566831978966	2
0	6002	1520.280740986145	1
0	6008	1520.351357933171	2
0	6011	1521.919584811365	1
0	6016	1522.036400495385	0
0	6020	1522.883829898321	1
0	6025	1525.455198184959	0
0	6031	1525.731856103673	1
0	6032	1526.10436343281	0
0	6042	1528.2850890443	1
0	6044	1528.390676978865	2
0	6052	1529.926585397603	3
0	6055	1531.041734953474	2
0	6060	1531.31726081396	1
0	6071	1535.302464081116	0
0	6086	1536.752409252206	1
0	6090	1538.058906756094	2
0	6092	1538.61736817702	3
0	6094	1540.832549037822	2
0	6101	1544.868765754448	3
0	6102	1545.198106266302	2
0	6108	1545.477391020139	1
0	6113	1545.681025531498	0
0	6133	1549.373090512684	1
0	6135	1550.258568832239	0
0	6159	1554.509144338361	1
0	6160	1555.034222760732	0
0	6172	1555.904570771055	1
0	6177	1557.892088824149	0
0	6186	1558.869463476377	1
0	6188	1559.751357516137	0
0	6194	1559.755366739578	1
0	6197	1559.911476283119	2
0	6198	1560.127560332731	1
0	6204	1561.453583712817	2
0	6206	1562.718856628441	3
0	6207	1562.987489095573	2
0	6212	1563.466595686425	1
0	6217	1564.235491556525	0
0	6221	1564.98586404426	1
0	6223	1565.762517053492	2
0	6227	1566.241694503007	3
0	6230	1570.191059424626	2
0	6234	1570.531636517992	3
0	6236	1571.74307518501	4
0	6242	1574.626634515599	5
0	6246	1576.227298473912	4
0	6251	1577.080191089923	3
0	6256	1577.70668087076	2
0	6262	1577.896387607571	1
0	6267	1578.187757064251	0
0	6283	1579.511163128233	1
0	6287	1581.08582390189	2
0	6289	1581.307022558848	1
0	6294	1581.646841654568	0
0	6307	1583.129127168944	1
0	6308	1583.394519973411	0
0	6323	1588.647655123672	1
0	6327	1589.852582679045	2
0	6333	1590.586473421041	3
0	6334	1591.440607875722	2
0	6339	1591.573079393258	1
0	6346	1592.858057506489	0
0	6353	1593.090386267174	1
0	6354	1593.230775858817	0
0	6360	1593.585985869386	1
0	6365	1595.275758796363	2
0	6368	1595.736911388673	3
0	6371	1596.236223936607	2
0	6377	1596.713474409863	1
0	6383	1597.419437282824	0
0	6397	1598.982578617513	1
0	6399	1599.034674192475	2
0	6401	1600.937327523286	3
0	6402	1601.577983693131	2
0	6407	1602.213723029974	1
0	6412	1602.418288877822	0
0	6434	1604.322714381235	1
0	6435	1605.286074812484	0
0	6441	1605.749663990251	1
0	6442	1605.864287321505	0
0	6474	1613.187977456839	1
0	6480	1614.364092522863	0
0	6497	1618.572773508389	1
0	6498	1620.321098921706	0
0	6507	1620.836706952582	1
0	6514	1623.154105900708	2
0	6515	1624.341278005021	1
0	6520	1624.678058813489	0
0	6540	1629.073662978055	1
0	6545	1629.833176745891	0
0	6572	1634.533825585357	1
0	6573	1635.144541303544	0
0	6585	1636.00170736783	1
0	6587	1636.862654765476	2
0	6590	1637.49733323793	1
0	6597	1637.986345143925	2
0	6599	1638.667111225585	1
0	6604	1638.667270087998	0
0	6646	1644.022682785229	1
0	6651	1646.483470498781	0
0	6664	1647.625703418351	1
0	6667	1648.215410822931	2
0	6668	1648.660021705997	1
0	6676	1649.789857608056	0
0	6683	1649.888037415391	1
0	6685	1650.372412849289	2
0	6686	1650.642569970222	1
0	6691	1651.161963942732	0
0	6717	1660.805399788286	1
0	6722	1663.653483623145	2
0	6723	1664.083075903658	1
0	6728	1664.847462160885	0
0	6734	1665.005262357395	1
0	6737	1666.015164227154	2
0	6738	1666.071492585106	1
0	6744	1666.108915392658	0
0	6748	1666.258581290439	1
0	6753	1668.031069095448	2
0	6754	1668.665378267382	1
0	6759	1668.809394284535	0
0	6766	1670.030910017041	1
0	6768	1670.198348248842	2
0	6769	1671.254193495651	1
0	6775	1672.04235021186	2
0	6776	1672.233980061371	1
0	6780	1672.819588996822	2
0	6782	1672.907066076869	3
0	6785	1673.581873972453	2
0	6790	1673.7212968319	1
0	6800	1675.347952615077	2
0	6802	1676.687093296115	3
0	6804	1677.90111265254	4
0	6805	1681.84423308265	3
0	6812	1682.305196825474	4
0	6813	1683.06920801099	3
0	6818	1684.32687633812	2
0	6824	1685.39399562833	1
0	6829	1687.45015228054	0
0	6837	1689.642711387048	1
0	6838	1690.192037599999	0
0	6887	1714.652255183859	1
0	6888	1716.612038465723	0
0	6926	1725.477223886803	1
0	6927	1726.005356801735	0
0	6958	1738.825720989029	1
0	6959	1738.830807386993	0
0	7009	1747.861750864056	1
0	7011	1748.022393066859	2
0	7017	1749.019178941777	3
0	7018	1749.611085921582	2
0	7026	1750.774982007235	1
0	7035	1751.328270754636	2
0	7036	1753.079127650439	1
0	7041	1753.141854438737	0
0	7054	1755.08303824588	1
0	7055	1755.348109964323	0
0	7069	1756.875138451981	1
0	7072	1758.23240873914	0
0	7088	1759.85412028212	1
0	7089	1760.985432666475	0
0	7112	1765.318807298541	1
0	7113	1766.855605359981	0
0	7141	1777.463627808807	1
0	7145	1778.515930538788	0
0	7151	1779.414604082326	1
0	7152	1779.876590206793	0
0	7161	1780.037712470811	1
0	7169	1782.446574563477	2
0	7173	1784.888039782077	1
0	7178	1785.038064244919	0
0	7194	1786.353944920455	1
0	7196	1788.516690378909	2
0	7199	1789.025979551482	1
0	7204	1789.361363079858	0
0	7227	1793.529304247405	1
0	7229	1794.09956413788	2
0	7231	1794.469485407684	3
0	7233	1794.475512222435	4
0	7234	1794.479891398784	3
0	7240	1795.372476989246	2
0	7245	1796.792120768491	1
0	7254	1798.54023362302	2
0	7257	1799.210195765026	1
0	7262	1800.427062410569	0
0	7268	1800.483007761337	1
0	7269	1800.566721531622	0
0	7280	1802.027042863762	1
0	7286	1803.629415959955	2
0	7288	1803.778227292713	1
0	7293	1804.099093509935	0
0	7308	1804.861654161753	1
0	7311	1806.148638600618	2
0	7312	1807.121005960089	1
0	7318	1807.510933593881	2
0	7319	1808.497943831521	1
0	7330	1810.490654074642	2
0	7332	1811.266910756799	1
0	7337	1812.482115843233	0
0	7354	1814.515800790737	1
0	7356	1816.308924375543	0
0	7363	1817.289188680556	1
0	7365	1817.422290918313	0
0	7372	1818.814199540944	1
0	7373	1825.614009264861	0
0	7379	1826.185557793923	1
0	7385	1828.177886734176	2
0	7386	1828.185363681868	1
0	7391	1828.94791731297	0
0	7398	1829.685249203979	1
0	7400	1829.762825607453	2
0	7402	1830.115463771951	3
0	7403	1830.82027540193	2
0	7408	1832.469760425419	1
0	7412	1833.985038052187	2
0	7416	1835.102560279076	3
0	7417	1835.436283004441	2
0	7424	1835.961847426739	1
0	7428	1836.608228343932	2
0	7434	1838.44918490288	1
0	7439	1839.170510651546	0
0	7445	1840.763304737856	1
0	7446	1840.837040640566	0
0	7450	1843.431076911375	1
0	7454	1843.568128635675	2
0	7458	1845.096835987853	3
0	7460	1845.208271251677	4
0	7463	1845.482479628659	3
0	7468	1846.101201093923	2
0	7473	1846.877679570403	1
0	7482	1848.097186865312	2
0	7486	1849.648006479921	3
0	7487	1850.732729622107	2
0	7493	1851.545928041703	1
0	7499	1851.654653099449	2
0	7500	1851.682559025989	1
0	7506	1852.630390512626	0
0	7529	1856.323771157429	1
0	7530	1856.744138558406	0
0	7537	1858.506855233876	1
0	7538	1858.602021709389	0
0	7563	1867.291534764003	1
0	7566	1869.645688958859	0
0	7572	1870.478673555343	1
0	7574	1872.04788515954	0
0	7583	1873.4252610639	1
0	7587	1874.015809719819	2
0	7591	1875.042862778436	1
0	7597	1876.124107731383	0
0	7616	1879.785162394613	1
0	7618	1880.107174336791	2
0	7620	1881.860079660751	3
0	7627	1885.000448636593	4
0	7629	1885.560012473409	3
0	7637	1886.140464174654	4
0	7639	1886.51748865061	5
0	7641	1887.821679269655	4
0	7650	1889.235830964497	5
0	7651	1889.311474837852	4
0	7658	1889.827413905875	3
0	7664	1893.537506340846	2
0	7675	1896.311441591228	1
0	7681	1897.560667858828	2
0	7683	1897.919434447565	3
0	7686	1900.032130130112	2
0	7695	1903.180694925743	1
0	7701	1903.78791023334	0
0	7731	1908.529893046044	1
0	7735	1910.545239356646	2
0	7740	1914.643459005205	1
0	7746	1915.781931808821	2
0	7747	1915.939650021891	1
0	7753	1916.609574166024	2
0	7756	1919.924664931606	1
0	7762	1920.565677260666	2
0	7767	1922.939710605841	3
0	7769	1923.140963102666	4
0	7771	1924.38878196762	5
0	7772	1925.160599608492	4
0	7778	1925.922160052841	5
0	7779	1925.925185344457	4
0	7785	1926.65092087767	3
0	7790	1927.052222425496	2
0	7794	1927.208100878492	3
0	7796	1927.639498271203	4
0	7799	1928.16145623162	3
0	7803	1928.171430355581	4
0	7807	1928.473996225113	5
0	7809	1929.433959108264	6
0	7810	1929.590633156749	5
0	7819	1935.305186837717	4
0	7824	1937.103724093732	3
0	7831	1939.503634388924	4
0	7832	1940.15315942725	3
0	7837	1941.501704503401	2
0	7844	1943.297563856039	1
0	7850	1943.402699738181	0
0	7872	1945.42504833922	1
0	7875	1945.975700428653	0
0	7911	1953.623521522121	1
0	7913	1953.95579351773	0
0	7932	1956.631856337067	1
0	7934	1956.780258288776	2
0	7942	1959.483485982254	3
0	7944	1960.009006929944	4
0	7945	1960.637372318475	3
0	7951	1961.084824197417	2
0	7957	1961.482744676821	3
0	7958	1962.601769917882	2
0	7964	1962.775009919294	3
0	7968	1964.82071543554	4
0	7969	1964.99600750442	3
0	7974	1966.139044521625	2
0	7980	1966.807537205323	3
0	7981	1967.76012044602	2
0	7985	1968.658447828232	3
0	7987	1969.100055553552	4
0	7991	1971.009487653282	3
0	7998	1972.057751797537	2
0	8002	1973.031523918228	3
0	8004	1973.084919182487	4
0	8010	1977.246691993932	5
0	8011	1977.367859200287	4
0	8016	1977.382694029969	3
0	8022	1978.154369460397	2
0	8027	1978.158461490366	1
0	8031	1978.287072777968	2
0	8034	1979.971174698714	1
0	8042	1984.195949403947	2
0	8044	1984.957143616285	3
0	8046	1985.432368705523	2
0	8052	1985.983222626219	3
0	8053	1986.460702821567	2
0	8058	1986.567926353018	1
0	8065	1989.658325136168	2
0	8067	1991.223439531279	1
0	8072	1991.352233549145	0
0	8078	1991.626056414211	1
0	8079	1991.639047955834	0
0	8114	1998.400401654781	1
0	8117	1999.355300021019	0
0	8132	2001.081400156592	1
0	8134	2002.841434663572	2
0	8139	2005.922693314477	1
0	8144	2006.444700623031	0
0	8159	2008.810406973584	1
0	8164	2010.120482293577	2
0	8165	2010.587130706291	1
0	8171	2012.2609296301	0
0	8185	2016.150551616371	1
0	8187	2016.925034837254	2
0	8189	2016.979432882873	3
0	8190	2018.135283619929	2
0	8196	2018.976392760806	3
0	8197	2019.160832465337	2
0	8203	2019.17575451704	3
0	8206	2020.072328320891	2
0	8211	2020.409973177425	1
0	8219	2021.665421569313	0
0	8225	2021.778874366571	1
0	8226	2022.026387224073	0
0	8251	2030.194086776987	1
0	8254	2031.601815612783	0
0	8271	2034.208847414652	1
0	8274	2035.063858586085	2
0	8276	2036.790016029057	3
0	8281	2040.444344994795	2
0	8287	2041.255373046143	1
0	8294	2042.040453329962	0
0	8301	2042.704385552007	1
0	8303	2043.892678750517	2
0	8304	2043.98190509573	1
0	8311	2044.423155680507	0
0	8317	2044.712676214662	1
0	8318	2045.352235764199	0
0	8334	2048.308287821407	1
0	8335	2048.556537438072	0
0	8344	2049.541193060966	1
0	8347	2050.701696758256	0
0	8360	2053.291443655573	1
0	8361	2054.969651116206	0
0	8393	2065.666467408128	1
0	8397	2070.615965093559	0
0	8427	2078.011359444475	1
0	8428	2078.222593912586	0
0	8466	2092.330584271466	1
0	8473	2094.071073411893	0
0	8477	2094.947925498298	1
0	8483	2096.734093343398	0
0	8489	2096.913487461921	1
0	8492	2098.014874581889	0
0	8524	2103.776387122932	1
0	8528	2105.230670461277	2
0	8531	2105.903518931227	1
0	8536	2106.312437180809	0
0	8542	2106.348132742535	1
0	8543	2106.789000517199	0
0	8552	2111.133413142398	1
0	8553	2111.23983588324	0
0	8571	2111.931214972905	1
0	8572	2112.343957600434	0
0	8581	2118.090489914671	1
0	8582	2118.333886365331	0
0	8654	2144.100690040386	1
0	8655	2145.633978646671	0
0	8696	2153.867902020765	1
0	8697	2154.587608739646	0
0	8741	2170.286860773586	1
0	8747	2173.140410852887	0
0	8766	2178.13448939708	1
0	8770	2178.808732462454	2
0	8772	2181.888824667827	3
0	8774	2181.982648268944	4
0	8776	2184.441141807151	5
0	8780	2185.751459055065	6
0	8783	2186.805836230747	5
0	8788	2187.919158951179	4
0	8794	2188.680469168132	3
0	8801	2189.171072087968	2
0	8806	2189.322280046514	1
0	8811	2190.334364964165	0
0	8821	2192.196590343951	1
0	8824	2193.468609099234	0
0	8840	2194.81232232639	1
0	8841	2194.899796063862	0
0	8852	2196.827883397824	1
0	8856	2198.04937446971	2
0	8858	2198.33781796971	1
0	8865	2199.906238952916	0
0	8900	2206.282407026654	1
0	8903	2206.968504687894	0
0	8921	2210.453946442521	1
0	8922	2211.325538931289	0
0	8948	2215.459450892885	1
0	8949	2216.710853257027	0
0	8973	2219.785802414803	1
0	8974	2220.014775213928	0
0	8988	2223.461190320027	1
0	8989	2224.249931208183	0
0	8995	2224.870453872023	1
0	8996	2224.908097034385	0
0	9036	2238.586690574849	1
0	9040	2240.230012370208	0
0	9046	2240.31000586584	1
0	9050	2241.239391289091	0
0	9104	2257.688333916023	1
0	9107	2260.413012146755	0
0	9114	2262.463133039741	1
0	9115	2263.521155922067	0
0	9121	2264.261104266355	1
0	9124	2265.505630711997	2
0	9125	2265.556317574891	1
0	9132	2266.902598737446	2
0	9136	2268.057182782922	3
0	9137	2268.141511559517	2
0	9143	2268.696393082326	1
0	9150	2271.227069660809	2
0	9152	2272.593853994678	3
0	9153	2273.739924097151	2
0	9158	2273.901210905234	1
0	9165	2274.426422314458	2
0	9169	2275.362900211322	3
0	9171	2275.477756963726	4
0	9175	2275.806123358801	3
0	9180	2276.41324271646	2
0	9187	2277.5704798008	1
0	9194	2278.257211031507	0
0	9219	2281.925282223474	1
0	9220	2282.06689591267	0
0	9256	2292.802841432512	1
0	9257	2292.971532501239	0
0	9271	2298.60091903933	1
0	9274	2299.984514821888	0
0	9297	2306.716686888806	1
0	9298	2307.020380477256	0
0	9372	2329.083275566028	1
0	9377	2330.64554078854	0
0	9404	2341.270185008907	1
0	9406	2341.502787584699	2
0	9410	2342.321296019187	3
0	9413	2343.712318610393	2
0	9418	2344.230767389336	1
0	9425	2344.618804353824	0
0	9444	2348.028136285982	1
0	9445	2348.208781200827	0
0	9454	2349.992424278344	1
0	9455	2350.460458059422	0
0	9461	2350.684277487014	1
0	9463	2350.779339680347	2
0	9465	2351.115393371526	3
0	9466	2351.19849990528	2
0	9474	2352.231994371782	1
0	9479	2352.387953783721	0
0	9485	2354.710281555188	1
0	9491	2358.013809250707	2
0	9492	2358.740458170888	1
0	9498	2359.674722176505	2
0	9502	2359.96409800936	3
0	9505	2361.280513835591	2
0	9511	2361.809984295811	1
0	9518	2362.119094200288	2
0	9519	2362.768581139581	1
0	9525	2362.901393444673	2
0	9526	2363.975991245761	1
0	9531	2363.986620190423	0
0	9535	2364.136892666172	1
0	9537	2364.541142195645	2
0	9539	2365.058303847771	3
0	9542	2368.317475548258	2
0	9552	2372.611118916945	3
0	9553	2373.168756762254	2
0	9562	2375.925165273603	1
0	9567	2376.197982265436	0
0	9599	2383.694477892538	1
0	9600	2383.885852981635	0
0	9607	2385.086887232191	1
0	9609	2385.155016471172	2
0	9610	2385.35460468726	1
0	9615	2385.99847180276	0
0	9632	2389.692475230472	1
0	9634	2390.121543199673	2
0	9638	2391.851979844109	3
0	9639	2392.596305237032	2
0	9644	2393.32358125309	1
0	9650	2393.886680920656	0
0	9665	2395.151335925496	1
0	9669	2396.039169989453	2
0	9672	2396.854697855881	1
0	9677	2397.165932947251	0
0	9694	2400.079202343527	1
0	9696	2401.85990937494	0
0	9702	2401.874367408701	1
0	9703	2402.150135602865	0
0	9721	2406.292860612561	1
0	9722	2406.534411526025	0
0	9738	2408.614473405148	1
0	9741	2410.318998970895	0
0	9749	2410.643968999987	1
0	9750	2410.692855465511	0
0	9756	2412.201207087731	1
0	9759	2413.059757326928	2
0	9762	2413.712296166044	3
0	9767	2414.15362724168	2
0	9773	2414.344575654991	1
0	9779	2415.203322309015	0
0	9786	2415.926641791692	1
0	9789	2418.702599445854	0
0	9806	2419.633464268725	1
0	9810	2420.255756164422	2
0	9811	2421.212589442576	1
0	9817	2421.692010473142	0
0	9830	2423.106076402135	1
0	9831	2423.207960360785	0
0	9842	2423.668263898499	1
0	9845	2425.367089502034	2
0	9846	2425.676724272208	1
0	9852	2426.157750343143	0
0	9868	2430.051140485197	1
0	9869	2431.208067994086	0
0	9875	2431.622748227544	1
0	9877	2432.027902980772	2
0	9885	2433.548204912155	1
0	9890	2435.392771991341	0
0	9896	2436.318012970524	1
0	9898	2436.772810793962	2
0	9899	2437.146877174932	1
0	9905	2438.782122650345	2
0	9907	2439.744733273319	3
0	9911	2442.083043646308	2
0	9916	2442.89794187043	1
0	9923	2444.515161763645	0
0	9927	2444.851384844775	1
0	9929	2445.865252903309	2
0	9931	2445.922908984916	3
0	9933	2447.347875260791	4
0	9935	2447.568490457219	5
0	9937	2447.709584029118	6
0	9940	2447.873852405634	5
0	9948	2449.335646982035	6
0	9949	2449.413370166795	5
0	9953	2450.199870408792	6
0	9957	2452.992428540786	7
0	9958	2453.047807665742	6
0	9964	2454.449821824225	5
0	9969	2455.19984693422	4
0	9973	2457.615455900845	5
0	9976	2459.243882247565	4
0	9981	2459.329115335081	3
0	9988	2460.45972667959	4
0	9991	2462.0532866965	3
0	10000	2467.025633759794	2
0	10006	2467.879627375101	1
0	10011	2468.162277803855	0
0	10032	2471.73377731871	1
0	10037	2474.552761755493	0
0	10051	2479.68317348863	1
0	10052	2479.914751458654	0
0	10065	2487.082258519893	1
0	10066	2487.785169344365	0
0	10077	2488.873882552788	1
0	10082	2489.587958682084	2
0	10083	2490.686751030665	1
0	10089	2492.8281611888	0
0	10109	2497.746960628054	1
0	10110	2497.929073116359	0
0	10124	2500.843903608666	1
0	10126	2501.48989887955	2
0	10127	2502.456553346517	1
0	10132	2502.657556281231	0
0	10145	2504.466930923421	1
0	10148	2505.697507270197	0
0	10161	2507.615490620983	1
0	10163	2507.953075551133	2
0	10168	2510.479040471046	1
0	10175	2511.876301592071	0
0	10192	2518.926267302079	1
0	10197	2520.699706341171	0
0	10213	2522.19977362139	1
0	10216	2522.332835511278	2
0	10219	2522.821277751453	1
0	10226	2524.020310831691	0
0	10265	2532.283838076474	1
0	10267	2532.457746323215	2
0	10273	2538.601442140081	3
0	10274	2538.824060057716	2
0	10280	2540.402661106321	1
0	10285	2540.465470494345	0
0	10302	2542.186932323953	1
0	10306	2543.160295893385	2
0	10309	2544.332094580442	1
0	10316	2544.464982913593	2
0	10319	2545.558863776614	3
0	10321	2545.796859548202	4
0	10323	2545.936855284076	5
0	10325	2546.273959366361	6
0	10327	2549.37105476209	7
0	10331	2550.354499032977	8
0	10332	2552.001227400548	7
0	10340	2555.627888287855	6
0	10345	2556.097270943588	5
0	10350	2556.242070432847	4
0	10359	2559.831449584194	3
0	10364	2564.009319288429	2
0	10372	2568.72283149225	3
0	10374	2568.878467785843	4
0	10375	2571.840172471544	3
0	10379	2573.709240070063	4
0	10386	2576.166756079661	3
0	10392	2577.63148029294	2
0	10397	2577.885395588293	1
0	10404	2579.470752880099	2
0	10406	2579.537629418928	3
0	10408	2579.713450972637	4
0	10409	2579.888464031616	3
0	10415	2580.582070507272	2
0	10420	2581.274433551912	1
0	10427	2584.942891225806	0
0	10460	2588.637872989905	1
0	10461	2589.048812641411	0
0	10467	2589.712980388752	1
0	10468	2589.794156752565	0
0	10481	2591.753380371782	1
0	10483	2593.822721326255	0
0	10489	2594.000986316244	1
0	10491	2594.822289056824	2
0	10494	2597.08648716516	1
0	10499	2597.199086076786	0
0	10527	2610.089377301463	1
0	10528	2610.093513613949	0
0	10548	2616.616058389204	1
0	10552	2617.420212209627	0
0	10567	2619.158593559568	1
0	10571	2622.816434475215	2
0	10572	2623.006762277628	1
0	10577	2623.231412406239	0
0	10615	2632.194498060357	1
0	10616	2634.085281901714	0
0	10651	2644.573467471018	1
0	10657	2646.008678743191	2
0	10661	2648.578624601736	3
0	10663	2648.82272926634	4
0	10665	2650.298790504097	5
0	10666	2651.104052359638	4
0	10672	2651.796442167006	3
0	10677	2651.89663340777	2
0	10686	2653.507078860763	1
0	10691	2653.880253967993	0
0	10709	2657.053837236195	1
0	10713	2657.798195425918	0
0	10729	2663.056959482065	1
0	10732	2663.345946728114	2
0	10737	2664.865448940481	1
0	10744	2665.70888322528	2
0	10745	2666.143542006632	1
0	10751	2666.318143576036	2
0	10753	2668.001850837202	1
0	10758	2668.437954090495	0
0	10778	2672.418680043726	1
0	10781	2674.837369338678	0
0	10813	2684.174755608351	1
0	10814	2684.219956640369	0
0	10822	2685.01719158272	1
0	10824	2685.226855929468	2
0	10826	2685.351206978288	3
0	10828	2686.477119118227	4
0	10829	2686.694488331666	3
0	10834	2686.979556020014	2
0	10842	2688.466057444106	1
0	10847	2689.025232181096	0
0	10851	2690.274801037488	1
0	10853	2690.296205622692	2
0	10858	2695.038979239288	1
0	10864	2695.786575525036	2
0	10865	2696.027384177387	1
0	10873	2700.057371978595	0
0	10886	2701.946382927165	1
0	10887	2702.319141366879	0
0	10899	2704.741017383416	1
0	10901	2705.165655162807	2
0	10904	2705.301751153692	1
0	10909	2705.340905415804	0
0	10918	2705.556393533943	1
0	10923	2706.030498470855	0
0	10930	2706.349263935657	1
0	10931	2706.44867528854	0
0	10935	2707.099417288708	1
0	10940	2709.75057341116	0
0	10953	2712.029394949215	1
0	10955	2712.926531225565	2
0	10957	2713.485925953376	3
0	10958	2714.078254013964	2
0	10964	2716.55436982342	1
0	10970	2716.807495511109	2
0	10972	2717.777843419019	1
0	10978	2718.875470555113	2
0	10979	2719.631980023749	1
0	10984	2719.92259050191	0
0	10992	2721.894689642501	1
0	10994	2722.323305861631	0
0	10998	2722.911454467185	1
0	11001	2723.87726380047	0
0	11015	2727.735672360064	1
0	11017	2730.209604223549	0
0	11036	2732.093919295793	1
0	11040	2732.655469282033	2
0	11041	2732.684044216447	1
0	11046	2732.719753170074	0
0	11057	2735.137187999345	1
0	11061	2735.35274805592	2
0	11062	2735.890808078645	1
0	11066	2739.656785093385	2
0	11074	2742.012744185564	3
0	11077	2743.051316683103	4
0	11079	2744.311804438748	3
0	11084	2744.325292272326	2
0	11090	2744.424794481847	3
0	11093	2745.39051055058	2
0	11098	2745.601446083737	1
0	11102	2746.107697930524	2
0	11104	2746.112921377889	3
0	11107	2747.203133834754	2
0	11115	2748.615676771964	3
0	11119	2749.852203414121	4
0	11120	2750.589124142017	3
0	11126	2750.932461608371	4
0	11129	2753.527976060259	5
0	11132	2754.051718083969	4
0	11138	2756.369220402254	3
0	11143	2757.239007062418	2
0	11149	2757.864500145135	1
0	11155	2758.976865106397	0
0	11170	2761.159850564854	1
0	11171	2761.189971893998	0
0	11185	2762.357404273969	1
0	11189	2762.793926654429	2
0	11191	2763.397513761991	3
0	11198	2765.789143560811	2
0	11203	2766.018046907774	1
0	11210	2766.363438373378	0
0	11214	2767.992794544476	1
0	11217	2768.451878642742	0
0	11221	2768.614517355364	1
0	11223	2769.047989821073	2
0	11225	2769.095862137486	3
0	11227	2770.422814440753	4
0	11229	2770.76092498212	5
0	11233	2772.094281884534	6
0	11238	2772.755654664923	7
0	11239	2773.183729517471	6
0	11245	2774.267491852372	5
0	11251	2774.897934291887	4
0	11259	2775.926626290493	5
0	11260	2776.498508632911	4
0	11265	2776.95396852915	3
0	11269	2777.418020712289	4
0	11271	2779.585221787711	5
0	11275	2780.526198272383	6
0	11278	2780.897873294784	5
0	11283	2781.630659205795	4
0	11289	2783.991636337029	5
0	11294	2785.496179163031	6
0	11295	2786.463978365015	5
0	11300	2787.275653976671	4
0	11306	2789.243733602979	3
0	11312	2790.897528714301	4
0	11313	2791.87569724727	3
0	11318	2792.465923896259	2
0	11322	2793.215344409908	3
0	11324	2793.750132086272	4
0	11327	2795.848465120538	3
0	11334	2799.657211082739	2
0	11342	2802.24449356535	1
0	11347	2802.311668477991	0
0	11368	2803.777840450254	1
0	11371	2806.005454309643	0
0	11380	2806.766210172459	1
0	11383	2808.316212155085	0
0	11393	2809.958669567924	1
0	11396	2810.491212631691	0
0	11403	2811.166056877106	1
0	11405	2811.314532759752	2
0	11408	2812.175335160461	3
0	11410	2812.479005372857	4
0	11412	2812.644781161111	3
0	11417	2812.663269557418	2
0	11422	2813.207523716582	1
0	11429	2817.331890678699	0
0	11446	2818.442246029513	1
0	11447	2818.887727733373	0
0	11453	2819.16397744228	1
0	11456	2819.896314348394	0
0	11472	2823.249958845167	1
0	11474	2825.272654311374	0
0	11488	2827.366314225337	1
0	11489	2827.494470097617	0
0	11495	2828.589716884103	1
0	11496	2828.607695578254	0
0	11546	2844.212933342616	1
0	11548	2844.320241580692	2
0	11550	2845.213921835228	3
0	11552	2847.17277084584	4
0	11557	2848.495737808002	3
0	11563	2852.217030646997	2
0	11568	2852.220289376441	1
0	11576	2853.339194443167	0
0	11595	2854.201665655656	1
0	11598	2857.241691710709	2
0	11599	2857.363634616566	1
0	11606	2858.352783494624	0
0	11615	2858.828022087565	1
0	11617	2860.386209277111	2
0	11621	2861.880962536386	3
0	11623	2862.256606104677	4
0	11627	2864.611316501281	3
0	11634	2866.475076241585	4
0	11636	2867.135099737684	3
0	11641	2867.738327676249	2
0	11647	2870.875163377359	1
0	11651	2871.13972144491	2
0	11654	2873.056004475716	1
0	11661	2875.430058527013	0
0	11667	2875.514410009288	1
0	11669	2876.814780142947	0
0	11687	2880.037132540999	1
0	11692	2881.267626038156	2
0	11694	2881.411333581622	3
0	11696	2883.092154996521	4
0	11697	2883.121721293667	3
0	11706	2884.442403841519	4
0	11707	2884.681729710375	3
0	11718	2886.495859900593	4
0	11721	2886.75051075356	3
0	11726	2887.753970242224	2
0	11731	2888.744436966579	1
0	11735	2889.46103597773	2
0	11741	2892.071851557393	3
0	11743	2892.651822895546	4
0	11744	2893.104085988383	3
0	11749	2895.080356379133	2
0	11753	2895.375907107464	3
0	11757	2896.024910388599	2
0	11763	2896.804084503269	3
0	11767	2896.890237319724	4
0	11771	2899.397333993604	3
0	11777	2900.881082181663	4
0	11778	2902.139482755463	3
0	11784	2902.318189582329	2
0	11791	2902.708845441074	3
0	11793	2903.839060731708	2
0	11798	2905.707449505629	1
0	11805	2907.186345897878	0
0	11816	2909.87866418408	1
0	11818	2910.227491295396	0
0	11826	2912.909690906894	1
0	11829	2913.647647527559	0
0	11870	2925.374666945877	1
0	11871	2926.975142167626	0
0	11924	2945.051309193471	1
0	11925	2945.118171249019	0
0	11945	2946.997010715057	1
0	11948	2947.359405800054	2
0	11950	2947.917354368199	3
0	11954	2950.042954965039	4
0	11960	2951.442042631911	5
0	11961	2951.818145592958	4
0	11966	2952.146171594448	3
0	11973	2952.487706221816	4
0	11976	2954.167778455791	5
0	11979	2954.889273033196	4
0	11985	2955.733865527968	3
0	11992	2957.853083087072	2
0	11997	2958.034127793782	1
0	12002	2958.160771944877	0
0	12019	2962.206989418201	1
0	12021	2963.736169052092	2
0	12022	2964.439222185873	1
0	12034	2965.865638984919	0
0	12051	2970.269177872505	1
0	12052	2970.748838261539	0
0	12061	2971.30917389232	1
0	12062	2971.385672459775	0
0	12071	2972.367153724924	1
0	12074	2973.197502605054	0
0	12088	2977.433877053825	1
0	12090	2978.179746021807	2
0	12093	2979.999119979021	1
0	12098	2980.793899541238	0
0	12102	2981.265947344229	1
0	12105	2987.434793812423	0
0	12122	2993.155043676176	1
0	12124	2993.603248676639	0
0	12131	2993.910757604092	1
0	12135	2994.548927272978	0
0	12144	2996.36658240231	1
0	12147	2999.790846800441	0
0	12160	3002.325213078122	1
0	12161	3007.024085679249	0
0	12176	3009.617034462615	1
0	12178	3013.961914113158	2
0	12179	3014.57807700932	1
0	12185	3020.382601309699	0
0	12201	3021.371748746562	1
0	12204	3022.111622400739	2
0	12207	3022.904043950077	1
0	12217	3024.841562660396	0
0	12226	3026.191137778362	1
0	12235	3030.915842725521	2
0	12236	3030.999474302089	1
0	12241	3031.444278168735	0
0	12254	3036.192531709038	1
0	12255	3037.568236778651	0
0	12285	3044.782082124808	1
0	12286	3045.034450746253	0
0	12297	3045.397729211912	1
0	12300	3046.398885399983	2
0	12302	3046.665435982736	3
0	12307	3049.18314169868	4
0	12309	3051.23154921153	5
0	12310	3051.487931100624	4
0	12316	3051.565627068982	5
0	12320	3056.062342205489	4
0	12325	3056.344613513384	3
0	12331	3056.404394135529	4
0	12333	3056.656047933661	3
0	12341	3056.981739676245	4
0	12345	3057.630713642193	3
0	12351	3057.85267768637	2
0	12357	3058.892288916911	3
0	12358	3058.973328950922	2
0	12365	3060.816339406986	3
0	12367	3061.113451550535	2
0	12372	3061.645168719562	1
0	12378	3062.806405844153	0
0	12382	3062.930241660219	1
0	12386	3065.053565552592	2
0	12391	3067.15902664551	3
0	12393	3069.253244463001	2
0	12399	3070.186148915321	1
0	12405	3070.509387128295	0
0	12412	3072.498651483792	1
0	12413	3072.873662337344	0
0	12444	3080.094543109444	1
0	12445	3080.568481723358	0
0	12461	3083.847022064928	1
0	12465	3087.957982468836	2
0	12466	3088.62824889684	1
0	12472	3089.488374923831	0
0	12481	3092.339608071621	1
0	12487	3097.832667445101	2
0	12488	3098.324883686201	1
0	12495	3099.034693220367	2
0	12497	3099.520777448557	3
0	12498	3100.849165413814	2
0	12503	3101.269478071103	1
0	12509	3101.619185898924	0
0	12517	3105.729901106467	1
0	12519	3106.929219921409	2
0	12520	3107.91397742722	1
0	12526	3108.321855744769	2
0	12527	3109.150222938707	1
0	12532	3110.307061560954	0
0	12536	3111.652626904422	1
0	12541	3113.65087061392	0
0	12545	3115.951386483388	1
0	12547	3116.130560520503	2
0	12550	3116.935562772851	1
0	12554	3117.505102057631	2
0	12561	3120.690482968214	3
0	12563	3121.149650431693	4
0	12564	3121.221726845532	3
0	12576	3125.174836201535	4
0	12577	3125.942818398328	3
0	12583	3126.041843504824	4
0	12585	3126.617335914612	5
0	12586	3126.819765843244	4
0	12592	3126.844251511783	5
0	12593	3128.283274436043	4
0	12597	3129.228341378488	5
0	12603	3131.064219232706	4
0	12608	3131.090048702033	3
0	12614	3132.392721591947	2
0	12620	3132.479956628768	3
0	12621	3132.737689591454	2
0	12626	3133.572701467737	1
0	12630	3134.492832221459	2
0	12633	3136.787631757227	1
0	12640	3138.561850413444	2
0	12641	3138.602412117199	1
0	12646	3140.207663077589	0
0	12660	3144.086540000014	1
0	12662	3144.234072326629	2
0	12664	3144.449012242475	3
0	12667	3145.55834792085	2
0	12673	3146.161245805918	3
0	12674	3146.235067314686	2
0	12679	3146.283626966153	1
0	12684	3146.444619369702	0
0	12719	3153.144053957385	1
0	12723	3154.658118813632	2
0	12724	3154.708709546861	1
0	12729	3155.030320354139	0
0	12743	3156.116544327548	1
0	12744	3156.552969346445	0
0	12750	3157.592987176523	1
0	12752	3158.217565788171	2
0	12753	3158.996009663345	1
0	12759	3159.355941868718	2
0	12768	3162.581136189175	1
0	12773	3162.949119545999	0
0	12789	3166.079090818279	1
0	12793	3170.014746852522	2
0	12794	3170.629413686227	1
0	12799	3170.657769927217	0
0	12805	3171.359028388144	1
0	12807	3171.870312090244	0
0	12811	3173.19031702713	1
0	12814	3174.028830639092	0
0	12827	3175.476361668275	1
0	12830	3177.453137465287	0
0	12851	3181.574983009708	1
0	12852	3182.81144848597	0
0	12912	3203.793984381032	1
0	12915	3206.693009655235	0
0	12924	3208.325442379069	1
0	12927	3210.816000115536	0
0	12942	3214.041937216794	1
0	12944	3214.687575290199	0
0	12960	3217.51496083976	1
0	12967	3220.168567999121	0
0	13000	3228.76538845026	1
0	13003	3229.742649979675	0
0	13012	3234.495234471325	1
0	13016	3235.789006037273	2
0	13019	3237.504436334912	3
0	13020	3239.411410860153	2
0	13027	3239.716546105767	1
0	13034	3240.398999286071	0
0	13045	3242.477067502221	1
0	13047	3243.679333733683	2
0	13051	3245.574647959037	1
0	13057	3245.577785420053	2
0	13059	3245.735625586172	3
0	13061	3246.182410898578	4
0	13062	3246.937300299276	3
0	13067	3247.730698168416	2
0	13073	3248.969045065893	1
0	13079	3252.839816208948	0
0	13085	3254.126228646993	1
0	13088	3255.157338369926	2
0	13090	3255.993070322602	1
0	13097	3256.596016070824	2
0	13098	3256.685414369152	1
0	13103	3258.582448154647	0
0	13123	3260.097660806134	1
0	13126	3260.840417117447	0
0	13132	3260.971843324637	1
0	13133	3261.121984810313	0
0	13150	3265.806360443393	1
0	13159	3270.337827339102	0
0	13193	3276.090677283151	1
0	13196	3279.230327649868	0
0	13202	3280.501982749828	1
0	13203	3280.599155558959	0
0	13220	3282.084757133218	1
0	13222	3282.80245479994	2
0	13223	3282.811758958142	1
0	13229	3283.437156057076	2
0	13230	3283.832471637683	1
0	13237	3284.238004045211	2
0	13242	3284.893977814602	3
0	13244	3284.960394107543	4
0	13245	3285.370544640306	3
0	13252	3286.128800619987	4
0	13254	3287.535199265849	5
0	13256	3287.91857972989	6
0	13259	3289.820228031702	5
0	13265	3291.422923905823	4
0	13273	3293.871978235709	3
0	13280	3295.149210407295	4
0	13282	3297.710511015571	5
0	13284	3298.072007832921	6
0	13285	3298.584781217998	5
0	13290	3298.651760393061	4
0	13296	3299.658204087356	3
0	13301	3299.779195936184	2
0	13310	3302.758372862252	3
0	13312	3302.878033375975	4
0	13313	3302.999320400463	3
0	13318	3303.062678903886	2
0	13325	3304.384094037443	1
0	13334	3307.302236573362	2
0	13342	3309.032189678683	3
0	13345	3312.847950773174	2
0	13350	3314.160465577816	1
0	13354	3315.047150148733	2
0	13356	3316.091749446653	3
0	13359	3317.097305586676	2
0	13364	3320.164990834856	1
0	13369	3320.819341495726	0
0	13375	3322.272357889537	1
0	13377	3322.579282035857	2
0	13378	3322.708202056113	1
0	13386	3324.735129506222	2
0	13387	3324.771320284722	1
0	13391	3325.351637299119	2
0	13393	3326.944399599383	3
0	13398	3330.168989777191	2
0	13405	3335.658781799286	1
0	13412	3336.837995930906	0
0	13447	3343.344198477229	1
0	13449	3344.741286870133	0
0	13460	3345.703838146683	1
0	13463	3350.125415173777	2
0	13465	3350.131275230907	3
0	13466	3351.336094106713	2
0	13476	3353.028756893874	1
0	13481	3353.821562964965	0
0	13496	3358.586096186875	1
0	13498	3359.515707073336	2
0	13500	3359.629668030951	3
0	13506	3361.853087898786	2
0	13511	3363.234327056846	1
0	13518	3364.756305299609	0
0	13553	3372.60012204002	1
0	13554	3373.464050711647	0
0	13563	3374.359418895014	1
0	13569	3376.429925963446	2
0	13571	3376.941172426372	3
0	13575	3378.394305987037	2
0	13580	3378.398394405203	1
0	13585	3378.613275853766	0
0	13601	3379.897786242279	1
0	13604	3381.528286484981	0
0	13621	3386.98154830589	1
0	13623	3387.22083752702	2
0	13624	3387.519889962795	1
0	13630	3387.84326805601	2
0	13632	3387.907507966887	3
0	13633	3388.283810737757	2
0	13638	3388.552087081179	1
0	13644	3389.63666693836	0
0	13648	3389.701359688482	1
0	13651	3392.144409892414	0
0	13662	3393.692495941476	1
0	13666	3394.30829091528	2
0	13669	3396.475985128838	3
0	13670	3396.834527610853	2
0	13676	3398.098030862107	1
0	13680	3399.002229219284	2
0	13683	3402.55193392606	1
0	13690	3403.172992071036	0
0	13713	3407.124643009069	1
0	13715	3407.430649575876	2
0	13719	3407.688385922676	3
0	13721	3407.696619147356	4
0	13722	3407.924053112654	3
0	13727	3408.100103147351	2
0	13739	3410.520841557005	3
0	13741	3410.802141012021	2
0	13748	3412.168940156898	3
0	13751	3412.995172825696	2
0	13757	3413.122135142502	3
0	13758	3413.871404091559	2
0	13766	3416.997861906795	1
0	13771	3417.524676156557	0
0	13777	3417.880572220974	1
0	13783	3420.438302854711	2
0	13784	3421.363792544213	1
0	13788	3424.391953025248	2
0	13793	3427.653010630701	1
0	13799	3429.840366686178	0
0	13805	3430.311113513784	1
0	13807	3432.10067134573	0
0	13819	3433.096602527419	1
0	13823	3435.950388666248	0
0	13842	3439.035040755205	1
0	13843	3439.282993542762	0
0	13862	3441.468673308829	1
0	13864	3441.933725559297	0
0	13878	3446.117772037881	1
0	13880	3446.211341514903	2
0	13885	3447.898570233961	1
0	13891	3448.734503513188	0
0	13900	3449.918921852683	1
0	13904	3452.401512250292	0
0	13919	3456.679313768006	1
0	13920	3457.456256292959	0
0	13952	3465.498358083719	1
0	13956	3470.869937025953	2
0	13957	3471.21445050177	1
0	13962	3472.14858222788	0
0	13981	3474.228557065796	1
0	13983	3476.281721460151	0
0	13990	3477.657339675041	1
0	13991	3478.270864951188	0
0	13999	3479.641141858311	1
0	14000	3479.99515217187	0
0	14008	3481.077665822645	1
0	14010	3481.214816665101	2
0	14011	3484.104934347095	1
0	14016	3484.142960496561	0
0	14038	3488.553369437371	1
0	14041	3490.155300101271	0
0	14062	3497.106418200126	1
0	14066	3498.52966545356	2
0	14067	3499.05508657167	1
0	14072	3499.462427000716	0
0	14092	3502.062723454877	1
0	14095	3503.220483616495	2
0	14097	3503.944753709954	3
0	14099	3504.485105410203	4
0	14101	3505.281573069317	3
0	14107	3505.50897148931	2
0	14117	3507.834314675957	1
0	14123	3508.064687629397	2
0	14124	3508.089134584634	1
0	14130	3508.401538735968	0
0	14161	3511.633818131554	1
0	14163	3511.854381160715	2
0	14165	3512.745328268156	1
0	14171	3512.763352774547	2
0	14172	3513.32811168509	1
0	14178	3514.474146757455	0
0	14196	3517.871838470149	1
0	14197	3518.38498945566	0
0	14216	3521.685257561993	1
0	14219	3523.431852922123	0
0	14259	3535.267862237842	1
0	14262	3535.478698227652	0
0	14276	3539.238836522012	1
0	14280	3540.253363225224	2
0	14283	3541.523575202718	1
0	14288	3541.651405194496	0
0	14294	3543.606138212482	1
0	14297	3543.933837092763	2
0	14302	3545.443607043289	1
0	14308	3545.80343673897	2
0	14309	3545.846176684618	1
0	14314	3546.612703067145	0
0	14323	3547.547955369808	1
0	14325	3549.239522012674	0
0	14349	3553.494768422405	1
0	14350	3553.714648667903	0
0	14362	3556.063621800376	1
0	14364	3556.208231992086	2
0	14365	3556.659280465615	1
0	14371	3556.855767607838	2
0	14375	3557.589399222102	3
0	14377	3557.993185281606	2
0	14384	3559.280063516395	3
0	14388	3560.652338663006	4
0	14389	3561.257639080605	3
0	14395	3562.89784630742	2
0	14400	3562.990334943781	1
0	14405	3564.632287414177	0
0	14409	3565.388259992778	1
0	14411	3567.386716404825	2
0	14414	3569.577443171376	1
0	14420	3571.047634503972	2
0	14422	3571.283486904178	3
0	14424	3572.34292275481	2
0	14430	3573.300063865147	3
0	14433	3573.899273872575	4
0	14435	3574.271836876201	5
0	14437	3574.626766137234	6
0	14440	3575.916786092058	5
0	14445	3576.009906990504	4
0	14456	3578.501743729748	5
0	14457	3578.660741472372	4
0	14462	3579.028068197759	3
0	14467	3579.424777471584	2
0	14471	3579.481030058559	3
0	14478	3584.538967366219	2
0	14484	3585.49264008128	1
0	14490	3585.819397289453	0
0	14504	3588.698096849691	1
0	14507	3589.858216024238	0
0	14513	3590.371124042387	1
0	14520	3592.217710978266	0
0	14533	3597.457638356317	1
0	14534	3597.774283173036	0
0	14597	3615.213116589056	1
0	14602	3617.909071725083	0
0	14611	3618.41744160742	1
0	14613	3618.538977867066	2
0	14618	3619.758089877616	3
0	14619	3620.527825127564	2
0	14625	3620.839905272765	1
0	14631	3621.936506639109	0
0	14647	3626.827390252337	1
0	14651	3627.276287220735	2
0	14654	3629.760772985853	1
0	14662	3629.952072618417	2
0	14663	3630.350664226515	1
0	14668	3630.808980438835	0
0	14672	3631.608404564729	1
0	14676	3633.163390211204	2
0	14679	3634.330322190214	1
0	14685	3635.790968152361	0
0	14689	3637.812204808572	1
0	14696	3639.272897445575	0
0	14700	3640.00661126497	1
0	14705	3642.873491568585	0
0	14727	3646.91136748004	1
0	14730	3647.276405437769	2
0	14731	3650.129299906935	1
0	14737	3650.403357445762	0
0	14748	3653.003379959283	1
0	14752	3655.405896320198	2
0	14753	3656.009393062969	1
0	14758	3656.163367350076	0
0	14765	3657.548592901827	1
0	14767	3660.062952928444	2
0	14768	3661.480424655919	1
0	14774	3661.494074934475	2
0	14778	3661.9488108649	1
0	14783	3662.46830194374	0
0	14806	3664.613572710518	1
0	14811	3666.515915480988	0
0	14834	3673.689901948619	1
0	14835	3675.597086978819	0
0	14849	3676.943396074003	1
0	14850	3677.645655903629	0
0	14857	3678.808914659137	1
0	14858	3678.995853342996	0
0	14904	3697.894448324961	1
0	14907	3698.874528338276	0
0	14914	3700.552812111868	1
0	14915	3700.924026744598	0
0	14935	3709.077061119696	1
0	14937	3709.425424569182	2
0	14938	3710.598659644274	1
0	14943	3710.713083421274	0
0	14996	3732.026835859631	1
0	14998	3732.033268016766	2
0	14999	3732.144084203488	1
0	15007	3732.891894657951	2
0	15009	3733.261851044742	1
0	15014	3733.366368620035	0
0	15018	3733.591471711732	1
0	15020	3734.728188414457	2
0	15026	3737.396439415238	1
0	15033	3739.036038007922	0
0	15081	3752.047763789412	1
0	15083	3752.707465248108	2
0	15085	3753.19583814643	1
0	15091	3755.974155049888	0
0	15121	3764.405216531994	1
0	15122	3764.667050138788	0
0	15154	3771.583185487256	1
0	15156	3772.402233619054	2
0	15157	3773.162781031321	1
0	15163	3773.419252803479	0
0	15170	3774.322148399439	1
0	15172	3774.955801304814	2
0	15174	3775.412131434803	1
0	15180	3776.399078818711	0
0	15198	3778.642698704565	1
0	15202	3779.042420916052	2
0	15206	3780.129050035097	1
0	15214	3782.227157144756	2
0	15217	3782.963711029007	1
0	15223	3785.113414587032	0
0	15237	3786.727015210287	1
0	15238	3788.903501317965	0
0	15252	3790.318290992536	1
0	15254	3791.266659694305	2
0	15259	3793.191990481314	1
0	15266	3793.396167817778	0
0	15277	3793.977201570216	1
0	15278	3794.107603342706	0
0	15282	3795.08348075812	1
0	15287	3797.051093077045	0
0	15301	3800.751494698981	1
0	15302	3800.755004544765	0
0	15312	3803.732411107203	1
0	15314	3804.522620668416	2
0	15317	3807.339845229511	1
0	15322	3807.378536942556	0
0	15333	3808.057167961126	1
0	15337	3808.270351949549	0
0	15367	3819.302012393645	1
0	15368	3822.363585436005	0
0	15389	3825.82238855177	1
0	15393	3826.384538961838	2
0	15395	3827.90231087572	3
0	15396	3828.799317367896	2
0	15404	3829.594100812408	1
0	15409	3830.016574308704	0
0	15451	3840.179700206855	1
0	15453	3840.917165268238	2
0	15458	3841.974871563511	1
0	15463	3843.003866045599	0
0	15483	3844.893269311436	1
0	15485	3845.786835930187	0
0	15497	3847.767623057817	1
0	15500	3849.913421915898	0
0	15506	3850.025644899579	1
0	15507	3850.042449861032	0
0	15537	3857.422297471818	1
0	15542	3859.715912881689	0
0	15551	3861.85320851108	1
0	15552	3862.359453810024	0
0	15565	3865.740621175778	1
0	15566	3870.74215888717	0
0	15582	3872.827924270802	1
0	15583	3872.985500772455	0
0	15647	3887.654395722853	1
0	15649	3887.684082763776	2
0	15653	3888.728829713153	1
0	15658	3888.953898722762	0
0	15670	3889.944188291867	1
0	15676	3890.713461557877	2
0	15680	3891.368309279021	3
0	15683	3892.074481385204	4
0	15688	3893.446742191444	5
0	15690	3893.709085513588	6
0	15692	3893.879923478742	7
0	15693	3894.425784607098	6
0	15699	3896.535974902614	5
0	15706	3897.235261641788	6
0	15708	3897.640677076239	5
0	15713	3897.700726287665	4
0	15721	3898.953527979587	3
0	15726	3899.268522612332	2
0	15730	3899.935591869145	3
0	15733	3901.072801118503	2
0	15743	3903.936009128544	1
0	15748	3903.985419460695	0
0	15752	3904.526637812088	1
0	15757	3907.236984448148	0
0	15769	3907.864418957271	1
0	15771	3910.336363508181	0
0	15793	3913.567019472523	1
0	15795	3913.718045632931	2
0	15796	3914.542279230109	1
0	15803	3915.875875348252	2
0	15806	3916.968121009388	1
0	15813	3917.250155605614	2
0	15814	3918.210300724937	1
0	15821	3919.936470145225	2
0	15822	3920.148936879519	1
0	15832	3921.00741586536	0
0	15838	3921.015470563067	1
0	15839	3921.385494262424	0
0	15860	3926.300200899977	1
0	15864	3927.220747301615	0
0	15870	3928.291956695901	1
0	15873	3929.891322521317	0
0	15877	3931.130028389625	1
0	15881	3933.596995451173	2
0	15883	3933.731576451054	1
0	15890	3933.906273809765	0
0	15902	3936.173024695541	1
0	15906	3938.285181227027	0
0	15931	3943.82610438647	1
0	15932	3943.898108829217	0
0	15946	3948.825759280107	1
0	15949	3948.864517123848	0
0	15988	3970.657683557373	1
0	15990	3970.825591463418	2
0	15992	3971.017239846198	3
0	15994	3971.973529618723	4
0	15995	3973.182640539185	3
0	16001	3974.553407740258	2
0	16006	3975.939659927381	1
0	16012	3976.679830446307	2
0	16013	3977.895354111399	1
0	16017	3978.436473458165	2
0	16021	3979.064077760462	3
0	16022	3979.612221610289	2
0	16026	3979.855649020533	3
0	16034	3983.340009501002	2
0	16040	3984.973110070631	3
0	16044	3985.228278472763	4
0	16046	3985.520263078993	5
0	16049	3987.624440511356	4
0	16055	3990.026169149888	3
0	16061	3991.12979493508	4
0	16064	3991.859798648846	3
0	16069	3991.955751714879	2
0	16076	3996.046837659063	1
0	16080	3997.971632526596	2
0	16083	3999.207521298458	1
0	16087	4002.509691196831	2
0	16091	4005.157202136458	1
0	16097	4007.298610177347	0
0	16120	4008.820982816124	1
0	16122	4009.117085148417	2
0	16124	4010.922029122051	1
0	16129	4012.01228219492	0
0	16136	4012.98115788767	1
0	16137	4013.275112705023	0
0	16150	4013.900632140868	1
0	16154	4014.627751666665	2
0	16156	4016.182771039775	1
0	16162	4016.951181969139	0
0	16185	4021.004262003242	1
0	16187	4021.540153543842	0
0	16193	4022.521572983565	1
0	16194	4023.058416818513	0
0	16225	4030.706242440618	1
0	16226	4030.767970141083	0
0	16234	4032.51100027187	1
0	16235	4032.517384051569	0
0	16247	4033.453423556784	1
0	16250	4036.310025222983	0
0	16256	4036.939037361083	1
0	16258	4037.135792599898	0
0	16281	4045.347288511276	1
0	16284	4045.820895363541	0
0	16322	4053.795627823218	1
0	16324	4053.811539146077	2
0	16328	4055.150059814902	3
0	16330	4055.516020869375	4
0	16331	4056.065516221487	3
0	16338	4056.158035456847	2
0	16343	4056.186799893635	1
0	16349	4056.810659646609	2
0	16351	4057.665045666262	3
0	16362	4060.984007511092	2
0	16367	4062.659769207282	1
0	16372	4062.97948804308	0
0	16383	4065.08314031972	1
0	16386	4065.984410754183	0
0	16399	4068.223614514	1
0	16402	4069.353189007648	0
0	16410	4070.37016633147	1
0	16411	4070.465721663238	0
0	16425	4070.927415844584	1
0	16430	4073.281247156772	0
0	16444	4077.656038558939	1
0	16447	4078.27084733183	2
0	16448	4079.241280526111	1
0	16454	4079.980266500218	2
0	16455	4080.147664346347	1
0	16462	4080.836721256166	0
0	16491	4086.058205699576	1
0	16495	4088.350149246212	2
0	16496	4089.325565472387	1
0	16502	4090.002274481589	2
0	16504	4090.099396783528	1
0	16510	4090.924254473513	0
0	16524	4091.882318563529	1
0	16526	4092.928867484832	2
0	16528	4093.907782411005	3
0	16530	4094.49089021467	4
0	16532	4095.982154288925	5
0	16536	4097.909070143804	4
0	16544	4099.200191905403	5
0	16546	4099.49813552294	6
0	16548	4099.898661633348	7
0	16550	4101.038608430613	6
0	16555	4101.816828780259	5
0	16559	4101.868489561007	6
0	16564	4103.17440657271	5
0	16573	4105.458214293207	6
0	16575	4105.471029424424	7
0	16576	4105.86576400816	6
0	16581	4106.641343459898	5
0	16586	4107.881417489026	4
0	16593	4109.753133152732	3
0	16599	4110.44323097083	2
0	16604	4110.730599886023	1
0	16610	4112.291600995908	2
0	16612	4112.345756695002	3
0	16618	4115.299186190743	2
0	16623	4116.854238753467	1
0	16635	4119.083720893416	0
0	16659	4123.574002920844	1
0	16660	4124.063602594212	0
0	16693	4131.794366122039	1
0	16698	4132.488715945264	0
0	16716	4135.14523798578	1
0	16718	4135.159774156679	2
0	16722	4135.544789264756	3
0	16724	4138.280315274015	4
0	16726	4139.421718065315	5
0	16728	4139.779796527036	6
0	16729	4140.080303236595	5
0	16741	4142.690647680892	4
0	16747	4144.47225298346	5
0	16748	4144.850473923505	4
0	16755	4145.441492082356	5
0	16758	4147.120869731523	6
0	16759	4147.322992433777	5
0	16765	4147.541368763987	4
0	16770	4147.624701463964	3
0	16775	4147.744975556993	2
0	16779	4148.322084353713	3
0	16782	4150.034078956144	2
0	16788	4151.527790279449	3
0	16789	4153.822299777635	2
0	16797	4154.162755221802	3
0	16801	4155.091628559508	4
0	16802	4156.435220355366	3
0	16809	4157.87766110796	4
0	16811	4157.972835536144	5
0	16814	4159.216194426466	4
0	16821	4159.67336944906	5
0	16824	4159.859713270575	4
0	16829	4160.594778786249	3
0	16836	4163.740997438202	2
0	16841	4164.8258477438	1
0	16846	4165.079264687481	0
0	16866	4166.881712734889	1
0	16867	4167.11459928225	0
0	16878	4168.654950925041	1
0	16880	4169.617503031464	0
0	16894	4170.645062998323	1
0	16896	4171.595541301872	2
0	16898	4172.5357947856	3
0	16900	4173.78660427956	4
0	16904	4177.451466399004	5
0	16905	4178.230501992814	4
0	16910	4178.562182808896	3
0	16915	4178.783058081639	2
0	16923	4181.071308068285	3
0	16924	4181.510539271533	2
0	16931	4182.032879060918	3
0	16933	4182.512913484809	4
0	16938	4183.837558779508	5
0	16942	4184.727116187344	4
0	16947	4185.701237514212	3
0	16953	4186.261250361611	4
0	16954	4186.975659058339	3
0	16960	4192.535465339633	4
0	16962	4192.823259468797	5
0	16963	4193.444152393999	4
0	16968	4195.224325352805	3
0	16972	4195.925286839452	4
0	16975	4197.847688471738	3
0	16981	4202.123510542032	4
0	16990	4204.695838809901	3
0	16998	4207.964731796874	2
0	17003	4208.987907008717	1
0	17010	4210.598709989608	0
0	17030	4216.635449122082	1
0	17031	4217.492954377373	0
0	17049	4220.029891073283	1
0	17051	4220.196965412228	2
0	17053	4223.02546774083	1
0	17060	4223.915025651542	2
0	17061	4226.301015302258	1
0	17067	4226.700577775346	2
0	17068	4226.765286906885	1
0	17074	4228.521372849715	0
0	17086	4228.76454913855	1
0	17087	4228.940533598208	0
0	17103	4230.41829120901	1
0	17106	4231.801272027609	0
0	17123	4236.63247756834	1
0	17128	4238.880239815681	2
0	17130	4239.934377178273	3
0	17131	4240.015307067249	2
0	17136	4240.77765731415	1
0	17141	4241.390525944369	0
0	17147	4242.902702051073	1
0	17149	4244.021492618851	2
0	17153	4244.723115117103	3
0	17155	4245.196152347451	4
0	17156	4245.2567328519	3
0	17168	4249.221306574967	2
0	17174	4250.979268723263	1
0	17179	4251.113361110175	0
0	17197	4254.932624246735	1
0	17198	4255.393646891953	0
0	17212	4255.646840585013	1
0	17214	4256.428738967629	2
0	17217	4257.236891427097	1
0	17226	4258.787110510024	0
0	17239	4262.248617053811	1
0	17241	4263.801754937726	2
0	17243	4263.874021184508	3
0	17247	4265.395965611116	4
0	17249	4265.691069702164	5
0	17251	4265.996602354267	6
0	17252	4268.292260077796	5
0	17258	4268.684934619582	4
0	17269	4270.044367811997	3
0	17274	4270.047111022229	2
0	17280	4270.619346579194	1
0	17285	4271.561144163215	0
0	17293	4274.07394106118	1
0	17295	4274.413151956874	0
0	17322	4281.42807143827	1
0	17325	4281.715971732661	0
0	17331	4281.793921342588	1
0	17333	4282.632042553769	0
0	17347	4285.28666649682	1
0	17348	4285.36098702376	0
0	17407	4295.353907673271	1
0	17408	4296.482285435839	0
0	17470	4314.422342629884	1
0	17473	4315.101851845086	0
0	17486	4316.945755625378	1
0	17487	4317.279797988794	0
0	17511	4323.587728232902	1
0	17515	4324.055724007604	0
0	17526	4325.392306464147	1
0	17528	4325.573951826533	2
0	17533	4326.959710804953	3
0	17534	4329.189663252329	2
0	17540	4330.510537962543	3
0	17541	4332.185897291803	2
0	17546	4333.873037268114	1
0	17553	4335.091615256987	0
0	17559	4335.50628128652	1
0	17560	4336.420127283362	0
0	17591	4339.771822285633	1
0	17594	4341.459199222924	0
0	17615	4346.399873149311	1
0	17617	4346.402472110832	2
0	17619	4347.676383597643	1
0	17624	4348.478504159621	0
0	17633	4348.939291813508	1
0	17634	4351.469856577077	0
0	17647	4352.902559711911	1
0	17649	4353.613772472507	0
0	17660	4354.984419101943	1
0	17661	4355.324016851287	0
0	17670	4356.76129271763	1
0	17676	4357.055748097003	0
0	17684	4360.837085109542	1
0	17685	4364.403292231232	0
0	17691	4364.576394400728	1
0	17694	4364.799482182991	0
0	17720	4368.415379606281	1
0	17721	4368.459804706953	0
0	17733	4371.561854913591	1
0	17735	4372.417943178607	2
0	17737	4372.641061076919	1
0	17742	4373.612442330405	0
0	17779	4379.957671862101	1
0	17781	4380.313174063032	2
0	17783	4381.092057690134	1
0	17790	4381.687102713154	2
0	17791	4381.915860106527	1
0	17796	4382.717341231293	0
0	17803	4383.785603756216	1
0	17804	4384.074090818142	0
0	17817	4388.199079828359	1
0	17818	4388.624251660525	0
0	17829	4390.677370376349	1
0	17834	4391.823922140045	0
0	17840	4391.916272423826	1
0	17843	4393.076681659105	0
0	17856	4396.254394570585	1
0	17859	4397.210217456182	2
0	17861	4398.965310740484	3
0	17864	4402.723918976094	2
0	17870	4402.842820679048	3
0	17872	4403.484853104809	2
0	17881	4405.897460346264	3
0	17883	4407.05344776146	4
0	17884	4407.787425769561	3
0	17890	4408.537190688232	2
0	17896	4408.676877235305	3
0	17899	4410.170526651542	4
0	17901	4410.373493945308	5
0	17902	4410.386813280169	4
0	17908	4411.992592463478	3
0	17916	4414.570626168926	2
0	17924	4416.805194157177	3
0	17925	4417.665937310005	2
0	17930	4419.510688717114	1
0	17935	4421.625726426298	0
0	17939	4422.472717356239	1
0	17941	4423.741721036504	2
0	17944	4425.016701618718	1
0	17950	4427.660314597538	2
0	17953	4428.418084770991	1
0	17958	4428.859641636635	0
0	17966	4429.104373542305	1
0	17968	4429.297548141987	2
0	17969	4431.742322745059	1
0	17974	4434.40973524511	0
0	17986	4436.497651792233	1
0	17988	4437.23623745471	0
0	18002	4439.318345089182	1
0	18007	4445.119230550752	2
0	18010	4446.346134803307	3
0	18012	4449.415611780109	2
0	18017	4450.107679078568	1
0	18029	4451.99358696058	2
0	18030	4452.685171840268	1
0	18035	4453.847017937739	0
0	18041	4457.045992294786	1
0	18043	4459.735090648065	2
0	18047	4460.107651865947	3
0	18048	4461.190600156586	2
0	18053	4461.721635612241	1
0	18059	4463.037877061338	2
0	18061	4463.384647781019	3
0	18065	4465.966625839894	4
0	18067	4466.260840155143	3
0	18072	4466.371784068653	2
0	18077	4467.449804480503	1
0	18081	4467.540135552619	2
0	18086	4468.260102362969	1
0	18094	4470.732693633437	0
0	18116	4471.769062002151	1
0	18117	4472.216470123767	0
0	18142	4478.862175854186	1
0	18146	4479.882466076861	2
0	18148	4479.966474386772	3
0	18152	4480.583777251586	2
0	18161	4483.365816699041	1
0	18167	4486.161442483045	2
0	18168	4486.611602055838	1
0	18177	4491.783564741248	2
0	18180	4493.516267481929	3
0	18183	4494.309376315525	2
0	18189	4494.77262565485	3
0	18190	4494.935559782325	2
0	18199	4498.437198247645	1
0	18204	4498.892449318448	0
0	18234	4509.714401442789	1
0	18237	4513.063504859967	0
0	18248	4514.339593035855	1
0	18249	4514.616367950824	0
0	18258	4515.102693396618	1
0	18266	4517.95557976286	2
0	18269	4519.364216772609	1
0	18278	4521.600794451385	0
0	18284	4521.662668997789	1
0	18285	4521.67189129913	0
0	18309	4524.488155955144	1
0	18311	4527.327665218079	2
0	18312	4527.588490285204	1
0	18318	4528.442136304326	0
0	18339	4532.203914474402	1
0	18341	4532.406835792433	2
0	18342	4534.465543613646	1
0	18347	4534.482046559661	0
0	18353	4534.925202212865	1
0	18358	4536.734355239983	0
0	18392	4542.140373592461	1
0	18393	4542.774551852229	0
0	18413	4545.174785245179	1
0	18418	4547.803360808127	0
0	18435	4553.619979739518	1
0	18439	4556.286996779254	0
0	18445	4556.305828658645	1
0	18446	4557.730440312657	0
0	18458	4558.237554649273	1
0	18460	4559.687497250562	0
0	18471	4561.860752357306	1
0	18472	4562.443695256145	0
0	18479	4565.604875129022	1
0	18480	4565.69763975423	0
0	18541	4588.429613029159	1
0	18543	4589.144804004878	2
0	18544	4589.820212418058	1
0	18551	4591.516186854749	0
0	18596	4597.880346680803	1
0	18597	4599.300339233083	0
0	18637	4606.336587648075	1
0	18639	4606.863174289678	0
0	18645	4608.516231926133	1
0	18649	4609.219960662138	2
0	18652	4609.857150317348	1
0	18658	4610.406446288969	2
0	18659	4610.441510008815	1
0	18664	4610.628843806828	0
0	18675	4612.080914567202	1
0	18680	4615.260885148067	2
0	18682	4616.496181550265	3
0	18683	4617.156955785736	2
0	18689	4617.287220604399	3
0	18690	4617.850079361722	2
0	18695	4618.646982591789	1
0	18699	4618.817528406022	2
0	18701	4618.890166242824	3
0	18704	4618.901982909362	2
0	18710	4619.493839874694	3
0	18712	4620.056452686914	2
0	18721	4624.050381419819	3
0	18722	4624.81075839011	2
0	18727	4625.019057888145	1
0	18732	4625.407228690619	0
0	18738	4626.21419633502	1
0	18744	4628.717318939873	2
0	18745	4628.848343279015	1
0	18751	4629.078780657832	2
0	18752	4629.087514145874	1
0	18758	4629.293590870776	2
0	18763	4630.753170926606	3
0	18764	4631.400412392488	2
0	18769	4631.558820265313	1
0	18773	4631.749661702218	2
0	18775	4632.975158196083	3
0	18778	4636.654222913503	2
0	18782	4637.279976617475	3
0	18784	4637.315833339243	4
0	18787	4638.027478942569	3
0	18794	4639.481135985668	2
0	18799	4639.756293288455	1
0	18804	4639.88372210893	0
0	18808	4643.036535714149	1
0	18810	4643.329627528726	2
0	18812	4643.408723742726	3
0	18817	4645.858141512099	2
0	18822	4646.195383369302	1
0	18827	4646.39050784985	0
0	18838	4647.626527334643	1
0	18839	4648.279229275793	0
0	18843	4648.45837657261	1
0	18849	4650.610042129051	0
0	18869	4653.052671962553	1
0	18871	4653.49312974651	0
0	18877	4654.159602435465	1
0	18883	4658.78667039894	2
0	18884	4658.93441284361	1
0	18890	4660.050054601993	2
0	18892	4661.133706921091	3
0	18893	4661.705080460893	2
0	18898	4662.188804740208	1
0	18906	4662.928279917728	0
0	18922	4663.487781632182	1
0	18923	4663.732882364824	0
0	18927	4664.025658086873	1
0	18931	4664.383111485781	2
0	18937	4666.85939156516	3
0	18938	4667.257375152195	2
0	18945	4667.70180944671	3
0	18949	4671.114172510278	2
0	18957	4672.527800582759	1
0	18962	4673.071555537842	0
0	18982	4680.952971761055	1
0	18992	4684.86599697687	2
0	18994	4685.766946106123	3
0	18997	4687.746860580488	2
0	19002	4687.821373693706	1
0	19011	4689.772859345694	0
0	19035	4692.608301004119	1
0	19040	4695.07198445083	2
0	19042	4695.912002806703	3
0	19043	4697.121477532119	2
0	19048	4697.141119571303	1
0	19053	4697.999305381447	0
0	19059	4698.134079356963	1
0	19062	4699.035557413136	0
0	19066	4699.189855366661	1
0	19068	4699.656799115186	2
0	19071	4700.25959726941	1
0	19078	4702.021130030836	0
0	19096	4703.410475413458	1
0	19097	4704.015232343719	0
0	19116	4708.400401857347	1
0	19118	4708.765880537669	2
0	19120	4708.935270351622	3
0	19122	4709.426263464542	4
0	19124	4709.884776627757	5
0	19125	4709.962155609628	4
0	19131	4712.557077278065	3
0	19136	4713.726151522987	2
0	19141	4715.075786503005	1
0	19147	4717.498404018162	2
0	19150	4718.050983446846	1
0	19162	4722.06975203551	2
0	19166	4723.798963813129	1
0	19171	4724.26254296774	0
0	19194	4728.611326154577	1
0	19196	4729.353827558922	2
0	19200	4731.022649011495	1
0	19206	4731.971953524308	2
0	19209	4732.697060534246	3
0	19210	4733.559092874717	2
0	19219	4735.351118149901	1
0	19224	4736.402716732537	0
0	19252	4738.828734999722	1
0	19253	4738.952161546605	0
0	19257	4740.469380681493	1
0	19266	4742.584293555994	2
0	19267	4743.050749713618	1
0	19273	4744.519343810846	0
0	19288	4746.81783475121	1
0	19290	4747.102419093202	0
0	19307	4749.597531434793	1
0	19309	4750.136464484599	2
0	19310	4751.631163440766	1
0	19316	4752.143645166406	0
0	19324	4753.809824887745	1
0	19325	4754.127528408795	0
0	19339	4757.949138647094	1
0	19340	4758.493622188473	0
0	19346	4758.524668423565	1
0	19347	4758.954869445941	0
0	19356	4760.514154362842	1
0	19359	4763.026152855741	0
0	19363	4764.77582536546	1
0	19370	4766.361890071905	2
0	19371	4766.591664053969	1
0	19383	4772.580108525409	2
0	19384	4772.740317793791	1
0	19389	4773.787387105509	0
0	19395	4773.877035194262	1
0	19398	4774.343284719207	0
[...]
4	113789	27813.027507387703	45.693895520129
4	113799	27815.969803288945	34.826711028778
4	113843	27823.128846960062	24.997256064346
4	113858	27825.631754986143	26.371948175365
4	113870	27826.898166137232	25.79547094201
4	113875	27827.005544850827	16.854362393423
4	113880	27827.641684362773	16.277851895621
4	113885	27828.548184436077	16.32459585265
4	113902	27831.744788832586	9.574627541005
4	114001	27854.106650679122	24.730108441091
4	114008	27854.291867315828	24.279998937895
4	114013	27855.390291090144	16.217873256436
4	114025	27859.864195638166	20.301985220003
4	114053	27866.344441243767	25.488540831372
4	114068	27867.576683105637	18.550587105135
4	114075	27868.59270359585	15.510453922007
4	114101	27875.173473698742	20.996335236726
4	114212	27896.612868139257	25.508916643418
4	114218	27896.782107760461	12.869747055798
4	114224	27900.832052155237	14.535452538701
4	114232	27904.541601140434	13.623713767853
4	114243	27907.280197649296	16.255606601955
4	114282	27918.925635529604	26.882761425695
4	114295	27921.570194863946	29.14241632165
4	114300	27922.327265606531	19.755414647353
4	114309	27923.377705476809	13.647913156078
4	114319	27926.51398021916	9.475101020878
4	114327	27931.750529744101	12.57238039076
4	114342	27940.685332881111	20.124736869315
4	114427	27959.489714904324	38.157289340875
4	114435	27964.472935896405	41.674222364105
4	114440	27964.929828782461	35.727580589602
4	114449	27968.900511050408	35.801520235041
4	114470	27971.656123198727	30.600523855479
4	114493	27975.003462811539	33.132201571012
4	114500	27976.902753784125	33.827090330392
4	114512	27979.526510894876	36.055556829409
4	114523	27986.741081839571	33.201635664432
4	114543	27990.715246890069	32.85228876418
4	114557	27992.251858593283	28.413184155534
4	114571	27996.997904148071	31.99654532706
4	114588	28001.826661546137	31.417260881059
4	114629	28009.349724271589	38.821990569989
4	114634	28010.152527415844	29.890743336736
4	114642	28012.545231065258	20.86950848478
4	114647	28013.566421219447	19.58287445095
4	114654	28018.82871500886	21.170422952189
4	114671	28022.045184684763	24.256684156403
4	114688	28024.986196946331	24.777785776615
4	114699	28026.028231819246	13.669713012098
4	114714	28030.770527554344	11.558795019352
4	114739	28032.238623158624	11.939246287623
4	114752	28043.550704256339	19.33993774028
4	114825	28057.660831837715	30.870291225339
4	114832	28060.556622335058	31.375603595773
4	114837	28060.798845836859	28.675775262465
4	114844	28063.658453872877	18.695263482823
4	114849	28064.391775375518	16.18623466866
4	114856	28069.376985654114	20.228397141745
4	114879	28073.089974549838	21.676490830246
4	114888	28075.688386731818	17.609228422383
4	114900	28078.788056148327	15.250914381215
4	114905	28079.901869187779	9.319971310731
4	114914	28083.846622993447	11.889080187187
4	114941	28091.936009482058	18.315580829116
4	115073	28129.695938561493	40.099238085833
4	115082	28133.061807659422	36.689310172341
4	115098	28138.973290949556	34.557452761024
4	115121	28144.243575712029	39.090136954188
4	115169	28155.949204836379	46.639627941898
4	115185	28158.351518475086	47.867504543142
4	115351	28197.124380756226	86.478964785237
4	115359	28198.281637584079	76.814358819138
4	115366	28200.392802446598	71.608225622198
4	115382	28204.192051361999	71.431718779391
4	115400	28209.017786048767	65.755871252874
4	115407	28210.439700492771	65.045545993654
4	115418	28210.726829943662	63.30598216919
4	115425	28213.885210942929	56.224581434794
4	115436	28217.651167759696	59.071060680005
4	115451	28222.436409541609	58.642619500662
4	115501	28237.368815349853	73.341484957662
4	115528	28241.953719944635	76.583222690504
4	115538	28246.516127562079	66.381023603158
4	115559	28252.676503875103	69.697098862797
4	115580	28258.3770457703	74.254098186438
4	115596	28260.980214286622	65.00625885719
4	115613	28261.976619527008	61.435805329536
4	115620	28264.631068707883	63.084838550553
4	115625	28264.903124285871	60.340081760304
4	115642	28267.588020067404	59.864072096785
4	115676	28272.460101847543	54.685349264475
4	115692	28276.438284696894	56.729086811285
4	115742	28287.076605336993	65.590130923471
4	115750	28288.914541132389	64.561746072931
4	115767	28293.581221256994	63.500472477155
4	115781	28295.263222506636	53.341709102667
4	115790	28296.490087100439	49.23143328828
4	115802	28298.062203426052	38.428046933415
4	115812	28300.277662156809	33.911649032381
4	115820	28302.60758043825	35.512663999223
4	115831	28304.402736054482	33.186434376954
4	115836	28305.13573337899	31.811385143895
4	115845	28307.050348651435	32.305978583535
4	115858	28311.238422788236	36.486026336846
4	115863	28313.86958635187	23.358920611256
4	115870	28314.747082490933	22.404722739125
4	115879	28318.171703349084	23.300388222649
4	115892	28320.885572967704	25.626814810808
4	115897	28321.272617452604	25.184755799339
4	115908	28324.153209788137	18.790364496289
4	115932	28326.871193561056	12.848888368422
4	115938	28327.780198218841	11.451089494901
4	115949	28330.805336255317	11.301016246235
4	115980	28335.054240213301	12.349052309655
4	115988	28335.963393997817	5.139782566369
4	115998	28339.62219167298	8.108402222435
4	116009	28343.931731722672	10.044959512665
4	116020	28345.509627524666	10.441506881966
4	116038	28348.435004468622	9.932796835563
4	116059	28353.341873843432	8.803647783333
4	116148	28372.7566396702	21.424603174557
4	116153	28373.827153599004	18.651167533235
4	116162	28375.905667982914	16.798254534696
4	116172	28378.195843016548	11.807503096331
4	116229	28386.917649034244	11.760193904818
4	116249	28391.005961797002	2.13965438038
4	116274	28395.143064783887	1.644280499418
4	116293	28397.598975363989	3.989983666234
4	116313	28405.795417414153	9.941243391059
4	116420	28433.160729229555	33.232174576346
4	116428	28436.117527624995	35.022951145203
4	116435	28436.625809863147	34.332112273695
4	116452	28443.097358625243	37.901126770762
4	116514	28459.442689749781	50.15917061402
4	116525	28460.290675066934	41.335759230649
4	116534	28461.867923409676	40.882497050289
4	116626	28479.133451589651	57.797483391007
4	116642	28480.575764209607	57.081426012983
4	116647	28480.914140694271	51.730176949459
4	116654	28483.682310142529	50.385298659824
4	116661	28488.789797938363	52.521667789702
4	116672	28490.851789348767	52.18522047778
4	116694	28495.547618705021	56.818215633624
4	116705	28498.426464437756	56.54756667232
4	116713	28501.095179945971	54.895827564993
4	116726	28501.399526002005	53.843286906828
4	116740	28503.442274430682	45.959876097335
4	116745	28505.279476047083	38.742303178734
4	116752	28510.788762807643	41.906668357145
4	116766	28513.615623953977	44.213378834983
4	116771	28516.043920675469	46.26435385745
4	116777	28516.483520100825	34.226492316865
4	116787	28518.940182330497	31.151733958082
4	116807	28520.411250264743	31.382555703129
4	116824	28527.766698517576	24.461422490435
4	116831	28529.140239198788	18.067736289455
4	116838	28530.33917875703	11.473348278283
4	116845	28532.974974622525	10.966944223021
4	116881	28539.593184901112	16.86394654757
4	116904	28546.429862041207	17.626746137918
4	116922	28548.265708509824	18.753861360358
4	116934	28549.144921967749	12.169215503891
4	117158	28608.044383094225	64.656717512987
4	117163	28608.07186238347	54.480048730931
4	117168	28609.321100298775	47.286862890189
4	117173	28612.006357045393	44.037981997819
4	117179	28612.474688545602	41.498066000283
4	117189	28617.364882732013	44.053754624899
4	117199	28618.760051149598	42.77537924229
4	117208	28620.491752496913	40.733036897669
4	117213	28621.900107766216	36.981139952533
4	117220	28623.294679550976	37.974149957716
4	117234	28627.236759917978	35.41408559436
4	117254	28629.268451567464	30.524894210356
4	117259	28629.57402445436	25.089341185561
4	117268	28630.944533102507	14.187863132934
4	117282	28634.568470524144	14.7350874225
4	117310	28639.953905348976	17.581462915383
4	117322	28642.472966445317	18.781663346709
4	117336	28644.604661817215	19.990052045831
4	117371	28653.327450282843	24.810558908246
4	117517	28685.967185066623	55.073636810741
4	117528	28687.145297451911	51.60016519956
4	117534	28690.478698027321	51.360762077868
4	117541	28693.772049224449	54.542483060466
4	117551	28694.801314934384	49.788416210582
4	117560	28698.609629091433	52.091320422496
4	117567	28700.137093550549	53.212151302032
4	117590	28702.781213659819	46.395231261862
4	117603	28705.604855992079	47.815124333587
4	117626	28710.387356762903	51.015504188647
4	117653	28718.147298587541	57.127581840609
4	117660	28718.826170953743	57.38196244908
4	117715	28729.048710227319	65.248790838894
4	117720	28729.307148226153	63.480405991111
4	117733	28734.908104380507	68.703645212973
4	117762	28739.925571963817	42.243584492027
4	117775	28745.081352282182	44.604772098954
4	117798	28750.190764450649	47.697679800315
4	117814	28751.956487350643	43.349925182391
4	117824	28752.966954241148	42.446710617511
4	117844	28758.778102086249	33.986060902742
4	117849	28758.944883743448	32.721655828403
4	117856	28762.425952168962	28.996832052064
4	117866	28764.599054870486	28.559569359498
4	117875	28766.785356195392	14.425489421214
4	117897	28770.232990129019	12.169652749594
4	117903	28770.586532085269	3.490161726828
4	117908	28773.801985445904	4.377011420461
4	117926	28780.910518463939	2.053284035474
4	117993	28799.743339356282	4.284118413457
4	118000	28801.391056338601	0.138646477194
4	118017	28803.736783866705	0.710791692013
4	118076	28825.004007906405	1.994880965553
4	118102	28835.456391956357	1.822597761218
4	118116	28838.821790835365	4.064817411304
4	118120	28839.425606996827	1.732365483343
4	118143	28843.411235999293	1.384020759028
4	118163	28847.40581495955	4.148648470846
4	118174	28848.337013899826	0.642624679474
4	118222	28860.294957050401	8.929911604196
4	118268	28870.681049586981	0.208715708634
4	118283	28876.438213555153	1.372141350295
4	118304	28880.609202580377	4.840948163483
4	118317	28885.658134806059	8.175580839053
4	118322	28886.218041863418	7.663723856589
4	118330	28886.972420837045	7.196938607818
4	118341	28889.807934992269	9.211936916428
4	118345	28892.648930823616	7.344537756025
4	118365	28895.257536866772	1.293981313931
4	118375	28895.793782519554	1.033751739692
4	118390	28907.695084854066	7.099749295349
4	118430	28913.824559620315	10.390226619384
4	118446	28916.655554951893	8.340692008276
4	118453	28918.138654952129	0.985976033952
4	118675	28969.720627197917	51.21095953734
4	118685	28969.957631807483	49.579534861392
4	118690	28970.35430337415	49.519550604617
4	118696	28972.295287301453	45.314014661139
4	118703	28974.453298686724	41.260905246548
4	118708	28975.281040210217	39.40794136393
4	118724	28979.137942477498	40.412614258327
4	118744	28981.151686909735	40.834342420803
4	118751	28983.036382396282	36.959021992038
4	118815	29006.864577971847	58.936106717728
4	118836	29009.313940355745	60.706722337966
4	118849	29010.334491305776	60.200772513352
4	118861	29012.772130316905	61.164946129745
4	118868	29015.285903156892	61.120092139179
4	118885	29018.031833374218	52.575189136192
4	118916	29022.87387624959	54.051719309214
4	118927	29026.967339947632	53.335429054595
4	118932	29027.231608282968	51.905613724111
4	118946	29032.180868018777	56.097087218821
4	118989	29040.82244227953	56.022032498969
4	119000	29041.105450796609	46.074670081106
4	119007	29041.95222829418	23.314855382162
4	119014	29042.544114978261	17.644616892315
4	119031	29047.626756789841	22.685990838913
4	119054	29052.379369082826	26.273457314494
4	119185	29081.396738360551	49.404819749201
4	119192	29081.794175284611	44.868352055535
4	119213	29087.561797308843	49.992018139768
4	119243	29092.524820948934	51.898603855595
4	119251	29093.745736947994	53.005990098679
4	119256	29093.978564906226	52.190005129622
4	119266	29096.139264767938	50.819490946934
4	119277	29098.060255337718	45.729036016159
4	119284	29099.113286477063	45.755787166645
4	119291	29103.651922115939	49.952787783927
4	119310	29108.600382352277	54.315266660155
4	119359	29117.174458585759	58.189459186742
4	119369	29117.457278866374	51.449438439583
4	119381	29126.445612154573	52.66375108174
4	119406	29129.904615203172	53.041766441472
4	119424	29134.214199061879	47.585017829687
4	119605	29173.697875563809	86.867629950921
4	119611	29173.736085401843	80.496695787291
4	119621	29175.760207872659	81.395431718766
4	119635	29178.545525073739	79.586742128459
4	119706	29201.909371561113	97.996190719672
4	119724	29205.383892083918	95.039729152108
4	119729	29205.522980914401	93.008205321711
4	119737	29208.996296017628	95.326406225594
4	119754	29215.726134605898	95.924207711589
4	119775	29218.258319469716	84.121980614097
4	119792	29220.658461416363	83.773909206644
4	119797	29221.118490032113	82.390172001733
4	119804	29223.055888754325	80.15163020967
4	119811	29225.805842172242	82.879673446397
4	119819	29227.973439089715	80.918979454471
4	119842	29234.34225719626	80.536228676687
4	119867	29236.827861718437	82.286739788861
4	119876	29239.194668013487	83.664122136383
4	119895	29243.87924470209	84.628113823398
4	119900	29244.857228223182	83.997185836574
4	119909	29249.20859545473	86.530175840362
4	119928	29250.869104086252	82.956073243667
4	119951	29257.763308248854	83.343948250275
4	119963	29261.113797671222	77.104898230535
4	119968	29263.942180865773	76.194319807466
4	119975	29264.958676624542	75.05627577599
4	119988	29267.446788407682	77.411074522451
4	120037	29278.333859820538	86.059056168079
4	120042	29278.788148770859	77.537026748106
4	120049	29283.589808132194	70.241459084008
4	120068	29286.484109685323	72.956136082477
4	120073	29291.56949591312	75.617797982935
4	120081	29297.465659065975	81.26417351019
4	120091	29301.015725051967	83.874340950655
4	120106	29302.353971572899	80.567841680321
4	120111	29303.617263132344	80.401476102063
4	120118	29306.538550556984	78.125847763955
4	120193	29325.27453801835	90.861049871138
4	120200	29326.304159057454	91.26557508378
4	120210	29328.347257040293	91.906518325177
4	120296	29350.70395764676	111.57492361992
4	120301	29350.854836170033	104.51225528385
4	120311	29353.068809959651	95.930706342918
4	120328	29355.763007696366	91.596218018583
4	120340	29360.252520346721	92.952464820311
4	120346	29360.49423679821	68.321485464844
4	120357	29361.266765421787	52.411492030061
4	120371	29364.539031853891	45.925474245588
4	120394	29367.564948234464	47.677200928684
4	120399	29368.870114348929	48.520116412881
4	120407	29370.204259079689	47.941086028582
4	120415	29372.669151842842	47.054989055746
4	120422	29375.149256770836	44.162601174441
4	120430	29379.677535790803	46.041941631712
4	120441	29381.561515131156	42.686776078241
4	120446	29382.375162599435	42.869458931802
4	120459	29386.813850597524	46.862279654137
4	120482	29389.158448618202	38.024027182121
4	120635	29425.078877032714	71.704197227499
4	120650	29427.970796207065	74.407735371318
4	120675	29432.317756778002	74.346710106993
4	120684	29435.04739291424	74.363337488591
4	120736	29441.837161868505	80.953682764508
4	120745	29445.660381205964	84.745120748823
4	120758	29448.778082154417	84.740417551979
4	120764	29455.943573825512	86.180580238518
4	120769	29456.257110944278	85.367953783524
4	120778	29458.783197442954	85.559795171937
4	120796	29461.507499871063	76.329487041145
4	120804	29463.183237176675	66.760281942884
4	120809	29463.484235275664	66.051815384202
4	120822	29468.632312196455	69.711959786586
4	120846	29473.190655929606	74.264626203337
4	120858	29473.65307398031	73.56498856788
4	120871	29476.586361654951	75.650949979126
4	120960	29492.664244528161	65.845783888533
4	120965	29492.761092696568	52.687378892405
4	120974	29493.91395365556	50.730029741477
4	120996	29499.691273907898	53.091594798176
4	121034	29509.367214550064	50.802468432587
4	121063	29518.274337090305	55.628171047893
4	121068	29520.489823969364	56.506369645004
4	121084	29523.370980768362	55.352046237564
4	121245	29554.3603929346	84.258853894624
4	121252	29554.789398055693	83.563567378989
4	121257	29555.799270850228	83.310609069995
4	121269	29560.779134065425	79.447567717211
4	121292	29564.504551911168	80.006636932572
4	121301	29569.635217960992	76.812527452556
4	121312	29572.442066329745	76.828193742847
4	121317	29572.839653824418	75.629703364075
4	121324	29574.877764814446	77.575262185519
4	121331	29576.023251833676	64.525939827743
4	121344	29585.54447779377	62.654010181807
4	121353	29591.261934049018	65.513302346917
4	121379	29598.893968196341	72.105083126503
4	121384	29599.338576558451	70.728137776238
4	121392	29603.142873196139	74.369723338452
4	121405	29612.299323815256	83.092082332544
4	121428	29619.27785694784	87.997885435683
4	121441	29621.044777337643	86.626296896234
4	121448	29625.335596822408	89.596350507456
4	121470	29628.703746439032	87.972982036729
4	121492	29634.786760272858	91.154823358383
4	121511	29637.772332106767	88.088128529806
4	121530	29644.538216557622	94.282961343315
4	121667	29675.182744167816	121.25042437836
4	121729	29691.68521258098	117.69731302946
4	121738	29693.635927920076	112.30862120571
4	121756	29696.308877445958	110.00116945016
4	121777	29700.728654632709	98.203351422555
4	121787	29701.24155425527	95.336540315475
4	121792	29702.555353895151	90.756732972903
4	121798	29706.239020984926	93.047001634298
4	121805	29708.280345285146	88.328918361521
4	121810	29709.537332919681	82.833534251695
4	121815	29709.818762405064	82.336024943824
4	121836	29717.275060692157	89.40278499097
4	121900	29727.714640648295	98.895737339773
4	121912	29729.764588165177	88.392829938865
4	121919	29730.702842408067	88.445392813727
4	121940	29734.261889120591	87.459429685044
4	121952	29735.051432739999	85.464535623726
4	121962	29737.493547097547	81.08331278107
4	122024	29755.156878953561	96.265613968751
4	122030	29755.525171223209	83.329986593891
4	122043	29762.395216931704	88.909828526549
4	122090	29777.130988021132	100.37043949821
4	122096	29777.732756411229	98.796696970221
4	122108	29779.661551423874	99.067531489835
4	122148	29786.722753723078	106.01630803063
4	122173	29789.570205981859	107.55772351811
4	122197	29794.358167372483	112.15882171058
4	122203	29796.756785760587	112.38383446802
4	122212	29801.087674713353	116.38194923893
4	122233	29807.955412998145	115.38925517716
4	122242	29809.199010551782	110.51362458866
4	122259	29814.009439232048	103.87721914692
4	122281	29820.028697309159	92.162226395991
4	122312	29829.726774640629	94.84588807504
4	122323	29830.490901320165	92.961395778568
4	122328	29834.873984051416	95.901835098521
4	122333	29836.629042007477	92.99766478017
4	122338	29837.527892055731	89.624511390925
4	122343	29838.517813518531	70.222281940141
4	122354	29841.606793619316	62.815578806254
4	122365	29845.080379600879	61.757135862287
4	122370	29845.396556438269	54.432147182701
4	122375	29847.696192989518	56.132204818033
4	122380	29848.763878553969	45.174394551149
4	122387	29851.169690591668	43.121176899411
4	122394	29852.714727759541	43.431986838812
4	122405	29854.597040451841	32.667106760614
4	122416	29858.540634902148	30.670372853522
4	122442	29865.284175322138	26.732484686039
4	122448	29865.987353281481	16.305801814582
4	122453	29866.357101804964	9.275603549874
4	122458	29869.058692739404	7.173702260291
4	122473	29872.638482232344	9.880755875628
4	122566	29893.996605796033	31.050334072486
4	122574	29894.542531566789	30.327523304354
4	122584	29895.702824552654	25.23247728878
4	122597	29897.484557666182	26.251484233084
4	122633	29907.907086906112	35.348276729656
4	122641	29910.214703116661	36.639249981997
4	122650	29912.315922489951	38.026061093367
4	122673	29915.047370830263	34.713093415022
4	122697	29918.951754428996	36.93738941851
4	122720	29924.064199884267	35.512750144494
4	122778	29934.531059943387	38.652308787828
4	122787	29939.684470412951	40.929256588748
4	122798	29943.457437519953	37.765840943571
4	122803	29944.071814944766	37.445286216698
4	122816	29948.965073733022	39.963609240633
4	122857	29958.935924980998	29.184464089163
4	122877	29963.974963521113	28.999868610072
4	122884	29965.813675527046	17.064253996219
4	122903	29970.248155994186	14.842119724433
4	122932	29976.445985331724	2.18013365054
4	122962	29992.300494154732	10.96866954391

