version 2
run Second-n3-9-20191016-14:53:01-13856
attr configname Second-n3
attr datetime 20191016-14:53:01
attr experiment Second-n3
attr inifile omnetpp.ini
attr iterationvars ""
attr iterationvarsf ""
attr measurement ""
attr network org.omnetpp.queueing.Pizza
attr processid 13856
attr repetition 9
attr replication ""
attr resultdir results
attr runnumber 9
attr seedset 9
param **.PS.maxInventoriedPS 3
param **.U1.interArrivalTime exponential(3s)
param **.U2.interArrivalTime exponential(5s)
param **.PS.serviceTimeForInventoryU1 exponential(1.0s)
param **.PS.serviceTimeForInventoryU2 exponential(1.2s)
param **.PS.serviceTimeDirectU1 exponential(1.4s)
param **.PS.serviceTimeDirectU2 exponential(1.4s)
param **.PS.probabilityProducing 0.7
param **.CS.serviceTimeU1 exponential(1.1s)
param **.CS.serviceTimeU2 exponential(1.4s)

vector 0 Pizza.EntryQueueU1 queueLength:vector ETV
attr interpolationmode sample-hold
attr title "queue length, vector"
vector 1 Pizza.CS queueLength:vector ETV
attr interpolationmode sample-hold
attr title "queue length, vector"
vector 2 Pizza.EntryQueueU2 queueLength:vector ETV
attr interpolationmode sample-hold
attr title "queue length, vector"
vector 3 Pizza.sink lifeTime:vector ETV
attr interpolationmode none
attr title "lifetime of arrived jobs, vector"
attr unit s
vector 4 Pizza.sink lifeTimeU2:vector ETV
attr interpolationmode none
attr title "lifetime of arrived jobs, vector"
attr unit s
0	0	0	0
0	26	2.977455795802	1
0	27	3.207507157201	0
0	40	9.302438032468	1
0	47	12.929881035026	2
0	48	13.689604139762	1
0	54	15.022910958782	0
0	68	21.965902519183	1
0	69	22.328417880324	0
0	88	26.850843923553	1
0	96	32.6331518798	0
0	102	32.767062558074	1
0	103	34.372715284507	0
0	129	39.869306556756	1
0	132	42.639908700332	0
0	149	51.419202278154	1
0	151	52.403580654958	2
0	153	52.567137469803	3
0	154	52.71433871606	2
0	159	52.918680413177	1
0	164	53.133574868187	0
0	176	54.116748304166	1
0	181	56.972399556938	0
0	195	60.240158240898	1
0	198	61.145847665361	0
0	204	61.49948281286	1
0	206	62.584343819242	0
0	217	63.104562811897	1
0	219	64.73370742947	0
0	225	65.293666698446	1
0	229	66.724746830506	0
0	235	67.33931890425	1
0	236	67.665095723752	0
0	249	69.776574177682	1
0	255	72.217608402236	2
0	259	73.962520204428	1
0	264	74.815687295567	0
0	275	75.080618080297	1
0	276	75.218207262305	0
0	284	78.080382625746	1
0	285	78.324342390835	0
0	309	80.772501082753	1
0	310	81.686860780284	0
0	316	83.141969236003	1
0	317	83.480790598947	0
0	328	87.028103333571	1
0	333	89.205631932495	0
0	342	89.387937102141	1
0	348	90.319108836075	0
0	361	91.92273505997	1
0	363	92.739098200778	0
0	393	99.460020842371	1
0	398	103.600286874047	0
0	411	105.016782730366	1
0	413	105.407494692331	0
0	422	105.607083463818	1
0	426	107.982571051617	0
0	444	110.489715704001	1
0	446	110.497657288703	2
0	449	111.484032829561	1
0	456	112.366474971969	2
0	463	114.782918055479	3
0	464	114.836019187986	2
0	469	115.099200682303	1
0	476	116.013470116078	0
0	482	116.726855359833	1
0	484	117.458349460734	0
0	495	118.237598542846	1
0	497	120.397495809819	0
0	503	120.871027936098	1
0	506	121.458964763149	2
0	509	123.075117991434	1
0	514	123.274933279823	0
0	533	126.052124620916	1
0	534	127.168315263169	0
0	540	127.298018398806	1
0	542	128.379689313849	0
0	606	151.864933902636	1
0	608	152.11214878617	2
0	610	152.647142747471	3
0	612	152.746956947307	4
0	614	153.292184345524	5
0	615	153.36036222043	4
0	620	153.814573234342	3
0	626	154.478323026799	4
0	627	154.700120218677	3
0	634	155.310090268589	2
0	641	157.232022455485	1
0	648	158.147846022872	2
0	649	159.095834472738	1
0	655	160.499960183822	0
0	704	167.973604586171	1
0	710	170.362501583153	2
0	717	171.302951624784	1
0	724	172.155574616672	0
0	750	175.491473574173	1
0	751	175.719560999679	0
0	786	182.249519711906	1
0	787	182.833821326012	0
0	803	185.490403420176	1
0	804	186.000965447635	0
0	818	189.552765687465	1
0	820	190.315896506364	0
0	835	191.794984843349	1
0	839	193.198163034482	2
0	841	195.668901785354	3
0	844	195.910823466667	2
0	849	196.65966867066	1
0	855	197.470274171084	2
0	856	197.547176412673	1
0	861	197.578678479176	0
0	875	199.343952823938	1
0	877	200.372951613891	2
0	880	201.393106846213	1
0	884	201.507799278538	2
0	890	204.456395391149	3
0	894	208.564465819779	2
0	898	208.680044378654	3
0	902	210.49026343536	4
0	906	210.901571151123	3
0	912	212.783653385705	4
0	916	212.952813284373	5
0	917	213.007206626255	4
0	921	213.492000980998	5
0	923	213.533480610646	6
0	926	216.732154828253	5
0	930	218.178352774188	6
0	933	220.526018273982	5
0	939	221.371970829014	6
0	941	221.673678578265	7
0	945	222.478969519795	6
0	951	223.306844280934	5
0	959	223.48558046948	6
0	960	223.573569364613	5
0	967	224.312061771199	4
0	973	225.316497867497	5
0	978	226.370324718962	4
0	984	226.672634876786	3
0	991	229.735965642323	2
0	996	230.060399876255	1
0	1005	232.197562932344	0
0	1011	232.242260810963	1
0	1013	232.706187433594	0
0	1046	245.056009217942	1
0	1048	248.451797748758	2
0	1051	249.132802676112	1
0	1058	250.615620094817	0
0	1065	250.921737703827	1
0	1066	251.586002071032	0
0	1077	253.817765946355	1
0	1078	254.278507216002	0
0	1109	258.37046630945	1
0	1115	262.131783513728	0
0	1146	270.82629335595	1
0	1148	272.310952305055	2
0	1152	272.422205348473	3
0	1154	275.910880232327	2
0	1159	276.243906397015	1
0	1167	276.403071810655	2
0	1169	276.735939927358	3
0	1171	277.059643228167	2
0	1177	277.290403728639	1
0	1188	280.078478796761	0
0	1208	284.830967447364	1
0	1210	286.020052190361	2
0	1212	286.335945123589	3
0	1213	288.602739819065	2
0	1218	288.893932133933	1
0	1223	289.03628408914	0
0	1229	289.401991325154	1
0	1232	290.340463680914	0
0	1238	291.854274833663	1
0	1239	292.983605844246	0
0	1285	299.679308958526	1
0	1289	301.281818882731	2
0	1290	301.58923851921	1
0	1296	302.511414261464	0
0	1305	305.604807815372	1
0	1306	305.769751481802	0
0	1317	307.091247977216	1
0	1320	309.316255099272	2
0	1323	317.590278160436	1
0	1328	318.067659149483	0
0	1337	319.409849086642	1
0	1341	319.826534941372	2
0	1343	321.387614312142	1
0	1349	321.671614480157	0
0	1355	321.956173070581	1
0	1357	322.618577450909	0
0	1374	327.659327074158	1
0	1376	329.365025125477	0
0	1410	341.513412598809	1
0	1412	341.801003976611	2
0	1414	343.724790773181	1
0	1419	343.744167590833	0
0	1442	348.575819423447	1
0	1449	350.187511860663	0
0	1459	353.325905672245	1
0	1463	354.38459262009	2
0	1465	354.792467530963	3
0	1467	354.901986245549	4
0	1468	355.753980707423	3
0	1475	359.039172241598	4
0	1476	359.075041645184	3
0	1482	359.501080858409	4
0	1484	360.283323879571	3
0	1490	362.289309886152	2
0	1498	363.961736352951	1
0	1504	364.349810423554	0
0	1516	367.561157228648	1
0	1517	367.861760243648	0
0	1528	370.445592061907	1
0	1533	370.933267054077	0
0	1578	389.008722009282	1
0	1580	389.032392377136	2
0	1581	389.334790132854	1
0	1587	389.954618503199	2
0	1588	390.159728221472	1
0	1594	390.169630824899	2
0	1595	390.678435326686	1
0	1600	390.70886262889	0
0	1644	397.929004981617	1
0	1647	400.13992542852	0
0	1658	400.579007955786	1
0	1661	400.931695532872	2
0	1664	402.421084466843	1
0	1669	402.575755647639	0
0	1679	403.959859463337	1
0	1685	408.743391490157	0
0	1701	410.846659473991	1
0	1703	412.020002540092	2
0	1706	413.340898428783	1
0	1712	413.440119465328	0
0	1721	414.289510319102	1
0	1727	419.248173363488	2
0	1731	420.928875147681	1
0	1739	422.691051627302	2
0	1740	423.159657382332	1
0	1746	423.210536896346	2
0	1747	423.221482364828	1
0	1753	424.863307098312	0
0	1797	435.034993570977	1
0	1799	435.044802544167	2
0	1800	437.827474493541	1
0	1806	438.762930102941	0
0	1831	448.584520682993	1
0	1832	448.777412380652	0
0	1854	450.894028624378	1
0	1856	450.930255455169	2
0	1861	453.732348469841	1
0	1866	454.125896716712	0
0	1872	454.221796262551	1
0	1873	454.361335180405	0
0	1889	456.262050093114	1
0	1891	457.493425655866	2
0	1894	459.097967841923	1
0	1900	460.424941235559	0
0	1955	478.957768533526	1
0	1961	480.494485168043	2
0	1968	482.007610862733	1
0	1973	482.204437767408	0
0	1979	482.233369362706	1
0	1982	485.945760761476	0
0	1999	487.990707052005	1
0	2002	488.515954850807	0
0	2014	490.321312751327	1
0	2015	491.550863114507	0
0	2022	491.672741589315	1
0	2026	493.605336586022	2
0	2028	493.756242924442	3
0	2030	494.646442985208	4
0	2031	494.783489489588	3
0	2036	495.067880724462	2
0	2042	495.703556063004	1
0	2047	496.009655191076	0
0	2065	497.416691905363	1
0	2066	497.473359710836	0
0	2081	499.142276202601	1
0	2083	499.25150720567	2
0	2085	500.495189434479	3
0	2091	502.375952699851	2
0	2097	503.246262044543	3
0	2098	503.289867604828	2
0	2103	503.821321352056	1
0	2108	504.290032073897	0
0	2115	505.675560751573	1
0	2116	505.846941155736	0
0	2123	507.172180353818	1
0	2124	507.180515778421	0
0	2149	512.353769897321	1
0	2151	512.927309551879	2
0	2154	514.126340734713	1
0	2160	517.497013975421	0
0	2213	538.29081185866	1
0	2214	538.935453310924	0
0	2255	548.879696814628	1
0	2256	550.203180805809	0
0	2291	555.404729121543	1
0	2296	556.657624581266	2
0	2297	557.171950259789	1
0	2304	557.672149714293	0
0	2311	558.022298609729	1
0	2312	558.144325807222	0
0	2319	558.77040180883	1
0	2324	559.766867201615	0
0	2333	562.212317750233	1
0	2334	562.343692264273	0
0	2346	563.277878135852	1
0	2347	563.367540620832	0
0	2375	567.905848569861	1
0	2376	568.188765509787	0
0	2429	580.467761363603	1
0	2431	580.810504595217	2
0	2433	581.093147184371	3
0	2438	584.569388876977	2
0	2444	584.708334281922	3
0	2445	584.853730428551	2
0	2450	584.954014535924	1
0	2459	586.100934247498	0
0	2463	588.549748440771	1
0	2465	589.127212818699	2
0	2467	589.299930993318	3
0	2471	589.722816638991	4
0	2472	589.940416899232	3
0	2478	591.59405847398	2
0	2484	591.69238813099	3
0	2487	592.88612570972	2
0	2499	597.846584957393	1
0	2505	598.766545787376	0
0	2512	600.337297456722	1
0	2513	600.414374971276	0
0	2523	602.675501104814	1
0	2524	602.703519853162	0
0	2548	611.074520853056	1
0	2549	613.668226015751	0
0	2563	617.748584962604	1
0	2564	618.73938369195	0
0	2576	620.336254999517	1
0	2581	623.003440089869	0
0	2593	624.856317447921	1
0	2594	626.075265578332	0
0	2605	627.663318562999	1
0	2608	628.734499505149	2
0	2611	633.592484877799	1
0	2616	633.907621240858	0
0	2630	635.90403540476	1
0	2631	635.951854168124	0
0	2640	637.343227179559	1
0	2646	639.268638742187	0
0	2667	644.633279273522	1
0	2668	645.843822945442	0
0	2674	646.266927974513	1
0	2675	646.721655717945	0
0	2711	656.127050855921	1
0	2712	658.246407445321	0
0	2729	662.293091076688	1
0	2735	663.966894725012	2
0	2736	664.621822055953	1
0	2743	665.974120473557	0
0	2757	670.822871239676	1
0	2763	674.339722237165	2
0	2764	675.00166045002	1
0	2769	675.236452819717	0
0	2792	679.287295047525	1
0	2799	681.720907430808	0
0	2805	682.188318317477	1
0	2807	682.747460908194	0
0	2829	688.197897463737	1
0	2830	688.321577849172	0
0	2855	695.793587093997	1
0	2856	696.599743355979	0
0	2878	701.640542451178	1
0	2882	704.923323299708	2
0	2887	706.457967242295	1
0	2894	708.412239585573	2
0	2895	708.599165347969	1
0	2901	709.543266737561	0
0	2913	710.053630444436	1
0	2914	710.30441524067	0
0	2932	716.965323642492	1
0	2937	717.623814958413	2
0	2938	717.905706141633	1
0	2943	718.374028899499	0
0	2975	722.196158890397	1
0	2977	722.293310702282	2
0	2981	723.153007388819	1
0	2987	724.006799372549	0
0	3034	732.480376889361	1
0	3036	733.381117075214	0
0	3053	734.858555839812	1
0	3055	734.930763904485	2
0	3056	735.6274580241	1
0	3063	736.539156387275	2
0	3065	737.516061100907	3
0	3067	740.801407664595	2
0	3075	743.547046803956	1
0	3082	745.865407529032	2
0	3083	746.204681240771	1
0	3088	746.321416349676	0
0	3099	747.022648735362	1
0	3100	747.441739270004	0
0	3124	749.198949711732	1
0	3126	750.424891219685	2
0	3130	752.285837054775	1
0	3136	753.341046960706	0
0	3171	757.890952377866	1
0	3174	758.191488377764	2
0	3175	760.762536820118	1
0	3180	760.959748133676	0
0	3192	761.577347329194	1
0	3193	762.347097984518	0
0	3214	764.570516777919	1
0	3218	768.241071431767	2
0	3219	768.348905189134	1
0	3224	768.500743648563	0
0	3261	795.63583610814	1
0	3266	798.07025388999	0
0	3273	799.434377082122	1
0	3274	799.563003234775	0
0	3294	806.980053550063	1
0	3296	807.224262917682	0
0	3331	813.108144120885	1
0	3332	813.326765691935	0
0	3366	825.648848814907	1
0	3367	825.718166801894	0
0	3391	843.174912653837	1
0	3392	843.663848655113	0
0	3428	848.590959994848	1
0	3429	849.162604290554	0
0	3458	864.730475784335	1
0	3464	868.518976087584	2
0	3468	869.787793612987	3
0	3469	870.012329159501	2
0	3476	870.42611508761	3
0	3477	870.55977238161	2
0	3487	874.852342713505	1
0	3492	875.223672157655	0
0	3500	875.970590872304	1
0	3501	877.238937493655	0
0	3509	878.25563839346	1
0	3511	878.532489276122	0
0	3520	878.556302089101	1
0	3527	883.804296802292	2
0	3529	884.971953690442	3
0	3530	885.773896414395	2
0	3535	885.946862822637	1
0	3542	887.860936210178	0
0	3548	887.878514460473	1
0	3553	888.544608011031	2
0	3554	888.970192283998	1
0	3560	889.4576028384	0
0	3569	890.766685557497	1
0	3574	891.954955895861	2
0	3575	892.045962606954	1
0	3580	894.001225170311	0
0	3593	896.36668841357	1
0	3596	897.925900157424	0
0	3613	900.41116804668	1
0	3618	900.812023757206	0
0	3626	902.03875591026	1
0	3628	902.665610465521	0
0	3643	904.967520483699	1
0	3645	907.552816655935	2
0	3651	909.648198745745	3
0	3654	910.662185422951	2
0	3659	910.779775933757	1
0	3665	911.685873749208	0
0	3697	918.234040707477	1
0	3700	920.863618696623	0
0	3711	923.06214357119	1
0	3713	923.869173033638	2
0	3715	925.172256769391	3
0	3716	925.408389457655	2
0	3721	926.676723642662	1
0	3733	930.456766664631	0
0	3742	930.669841451913	1
0	3747	933.04659689438	2
0	3748	933.589717779022	1
0	3756	935.007143416086	2
0	3759	937.5169293767	1
0	3770	941.173595652092	0
0	3776	941.900078408135	1
0	3777	941.982440946059	0
0	3791	945.935305086533	1
0	3795	946.542156562611	2
0	3798	947.958360804013	1
0	3803	948.278819604464	0
0	3817	949.727486946128	1
0	3821	951.802396596518	0
0	3837	956.705514243012	1
0	3839	956.73275326014	2
0	3841	957.807477208899	3
0	3843	957.813881506516	4
0	3846	958.800355455537	3
0	3851	959.039339193146	2
0	3858	959.829454163356	1
0	3863	960.876343791445	0
0	3867	962.143721266501	1
0	3876	964.382481835256	0
0	3880	964.435761426199	1
0	3883	966.096800597112	0
0	3911	969.044522079617	1
0	3917	970.377462177637	2
0	3920	972.110858276013	1
0	3925	972.550223011043	0
0	3936	972.788213495686	1
0	3940	974.037706057416	0
0	3957	978.25394073952	1
0	3959	979.109778606865	2
0	3961	979.285474961899	3
0	3965	983.09380994807	2
0	3971	983.347923273392	1
0	3976	983.881262420446	0
0	4020	993.518714114913	1
0	4022	996.253757323316	0
0	4046	1001.470214996405	1
0	4048	1002.354133134089	2
0	4049	1003.805972665515	1
0	4059	1010.268144641282	2
0	4060	1012.011833609713	1
0	4068	1012.740259322787	2
0	4070	1013.553892609285	1
0	4076	1014.311768448509	0
0	4094	1017.153872992162	1
0	4095	1017.323552054888	0
0	4122	1024.776434647415	1
0	4123	1024.872511971527	0
0	4176	1044.434871241797	1
0	4180	1045.14001044259	2
0	4181	1045.48321248781	1
0	4186	1045.67240877793	0
0	4195	1047.738003962533	1
0	4202	1051.05132069715	2
0	4203	1054.117371766861	1
0	4210	1055.253673301319	0
0	4224	1057.345535764926	1
0	4226	1058.411946168548	2
0	4228	1058.597800958927	3
0	4234	1061.287800931395	2
0	4241	1061.720246934934	3
0	4243	1061.834696643343	2
0	4248	1062.4863919707	1
0	4257	1064.51345351712	0
0	4270	1066.787275788267	1
0	4272	1066.842183611695	2
0	4275	1067.274500646047	1
0	4281	1067.611307114491	2
0	4282	1067.62697069846	1
0	4294	1069.498788062895	2
0	4297	1071.002183789318	3
0	4298	1071.241358928031	2
0	4303	1071.709905348713	1
0	4312	1072.386508976692	0
0	4325	1074.333486213595	1
0	4328	1075.51611275573	2
0	4331	1075.858027632224	1
0	4338	1077.961739788012	0
0	4354	1079.481033466366	1
0	4355	1079.549183296147	0
0	4376	1082.429977240663	1
0	4379	1084.024119078025	2
0	4381	1084.061839015824	3
0	4386	1087.181815964959	4
0	4387	1088.791942238716	3
0	4395	1090.323979165283	4
0	4397	1090.813033475574	5
0	4400	1091.314974912467	4
0	4406	1091.589116357315	5
0	4407	1092.395541587325	4
0	4412	1092.490785864708	3
0	4418	1092.575653858725	4
0	4420	1093.298201247475	5
0	4422	1093.774394557781	6
0	4423	1096.735227638319	5
0	4427	1096.924357016514	6
0	4430	1099.208036634892	5
0	4435	1101.46770750233	4
0	4439	1102.429306083399	5
0	4442	1103.206072039414	4
0	4452	1105.283549320314	5
0	4453	1105.413404638728	4
0	4460	1106.260214958185	3
0	4465	1107.712168338976	2
0	4469	1107.828256528506	3
0	4471	1110.557222182067	4
0	4474	1112.770574860152	3
0	4480	1113.662076814393	4
0	4481	1113.835192700181	3
0	4485	1114.777116277402	4
0	4489	1115.479894176545	5
0	4492	1116.523820953964	6
0	4495	1117.180734062168	5
0	4502	1117.28106871814	4
0	4509	1118.171226757289	3
0	4515	1118.824837430611	4
0	4521	1120.516878428374	5
0	4522	1120.911417906313	4
0	4529	1121.334528862269	5
0	4531	1121.427705983889	6
0	4532	1121.515097656495	5
0	4537	1121.903941234055	4
0	4543	1123.226083467816	3
0	4548	1123.36614855173	2
0	4555	1123.943952291957	1
0	4561	1125.334654802318	0
0	4592	1134.889340667965	1
0	4594	1136.038499549366	2
0	4597	1138.112346345108	1
0	4602	1138.324882586739	0
0	4613	1138.54047137891	1
0	4614	1138.801751736068	0
0	4625	1140.51510561029	1
0	4627	1141.229288550289	0
0	4637	1142.986319991911	1
0	4639	1143.845471717611	2
0	4642	1144.802142474684	1
0	4649	1145.32174838528	2
0	4650	1145.844134276785	1
0	4655	1145.966299292133	0
0	4671	1148.626687163826	1
0	4678	1150.745969382293	2
0	4679	1151.559621297894	1
0	4684	1151.615393515455	0
0	4693	1154.137424472349	1
0	4696	1154.899578721584	0
0	4708	1160.651082485547	1
0	4710	1160.886681216834	2
0	4718	1163.126926315159	3
0	4722	1164.254165827818	4
0	4723	1165.430983798498	3
0	4729	1165.611425139574	2
0	4736	1166.354144868938	3
0	4738	1167.013438128019	2
0	4744	1168.71922835934	3
0	4747	1168.952776518567	2
0	4752	1170.233681541513	1
0	4758	1170.899433083084	0
0	4776	1171.542158060488	1
0	4779	1171.886124758723	0
0	4785	1172.793136453091	1
0	4789	1173.544824356716	2
0	4793	1174.775317244951	1
0	4799	1177.130573415994	0
0	4828	1180.670621499592	1
0	4831	1181.159912388883	0
0	4860	1189.527481139079	1
0	4861	1190.277283768422	0
0	4894	1198.953210989928	1
0	4898	1199.378693002316	2
0	4899	1199.40076309868	1
0	4906	1200.831694574781	2
0	4911	1201.986098269729	1
0	4917	1202.087524995171	2
0	4918	1202.209229002347	1
0	4924	1202.902564708321	0
0	4931	1203.201521789388	1
0	4932	1203.454806801513	0
0	4936	1203.512574340826	1
0	4939	1203.988922678392	0
0	4954	1206.250190030093	1
0	4958	1207.232146933795	2
0	4960	1207.682252056726	3
0	4961	1209.187897379789	2
0	4967	1209.391663762736	3
0	4969	1210.610410617314	2
0	4974	1210.910575290618	1
0	4979	1211.534563881038	0
0	4995	1214.221476884452	1
0	4996	1214.28522475554	0
0	5003	1214.909634519972	1
0	5004	1215.368004136586	0
0	5012	1217.615294859508	1
0	5013	1217.892702352059	0
0	5029	1223.060871856341	1
0	5030	1223.463778352604	0
0	5047	1226.589614871422	1
0	5049	1227.993683707286	2
0	5053	1228.393310482149	3
0	5054	1228.775145079285	2
0	5061	1229.239669728193	3
0	5063	1231.450254452722	2
0	5068	1231.496398192756	1
0	5073	1231.723582021507	0
0	5079	1232.02540701841	1
0	5080	1232.182767540248	0
0	5084	1233.656174847314	1
0	5087	1234.0911916443	0
0	5091	1235.156521842536	1
0	5095	1238.682319143019	0
0	5186	1264.753311169736	1
0	5188	1266.417564350499	0
0	5194	1266.610597524916	1
0	5195	1267.345671010832	0
0	5218	1277.88811004753	1
0	5219	1278.136273591886	0
0	5235	1281.411819285142	1
0	5237	1282.121445141805	0
0	5247	1283.064955679906	1
0	5248	1283.177197003197	0
0	5288	1289.379108753586	1
0	5292	1291.069073540593	2
0	5293	1291.605140834709	1
0	5298	1292.427675091634	0
0	5304	1292.917811754575	1
0	5305	1293.057974715827	0
0	5319	1297.32278132147	1
0	5322	1298.440795628525	0
0	5335	1301.296505029024	1
0	5339	1302.85761698353	2
0	5341	1304.221977749031	3
0	5347	1306.695183208672	4
0	5348	1306.753975006236	3
0	5354	1307.999462169055	2
0	5361	1308.436854845751	3
0	5363	1308.733337307024	4
0	5365	1309.459840415817	3
0	5370	1309.984567086216	2
0	5376	1310.969179469666	1
0	5382	1311.868911900013	0
0	5388	1312.151333673374	1
0	5390	1313.149006752271	0
0	5419	1319.572166561571	1
0	5422	1320.499597631615	0
0	5445	1323.717660807617	1
0	5448	1324.072439999683	0
0	5468	1327.827263448416	1
0	5472	1329.095037620064	2
0	5474	1330.145891013478	3
0	5475	1331.026362577307	2
0	5481	1331.611661919806	3
0	5483	1332.556514809766	2
0	5488	1333.104126935906	1
0	5493	1333.532627972121	0
0	5527	1343.637360417797	1
0	5530	1344.255148413566	0
0	5542	1345.036782901428	1
0	5546	1346.501614030047	2
0	5548	1346.64538403512	3
0	5550	1347.74542521687	4
0	5551	1347.909065407749	3
0	5557	1348.854979934213	2
0	5564	1349.906810792486	3
0	5565	1351.390413294252	2
0	5571	1352.892201781057	1
0	5576	1353.431814587146	0
0	5615	1363.562624032974	1
0	5616	1363.686862893616	0
0	5625	1365.271448526721	1
0	5626	1366.316858547854	0
0	5632	1366.363406202535	1
0	5633	1366.380157770326	0
0	5674	1373.471699596671	1
0	5675	1373.695362125229	0
0	5683	1374.273369316179	1
0	5684	1375.086292008025	0
0	5690	1375.123600139814	1
0	5692	1375.757598236453	0
0	5706	1380.637574140418	1
0	5707	1381.075950593788	0
0	5746	1397.947012399337	1
0	5747	1398.595993471636	0
0	5827	1423.338204151401	1
0	5830	1424.089560811792	0
0	5844	1426.254164776578	1
0	5845	1426.513672401364	0
0	5851	1426.862577084418	1
0	5852	1427.00739211986	0
0	5869	1431.758159458105	1
0	5871	1432.489019099315	2
0	5872	1432.806817571625	1
0	5878	1433.354493558592	2
0	5879	1433.394751718392	1
0	5884	1433.702454467584	0
0	5907	1438.891195901468	1
0	5909	1439.462498467603	2
0	5911	1439.863971396388	3
0	5912	1441.070770651381	2
0	5917	1441.663129623351	1
0	5923	1441.863371670474	2
0	5924	1442.912818134549	1
0	5932	1443.348996225126	2
0	5937	1444.561707614356	3
0	5938	1444.970685362126	2
0	5944	1446.287466779083	1
0	5949	1446.570061103898	0
0	5957	1448.953447185902	1
0	5959	1449.732667542957	2
0	5963	1451.228360011944	3
0	5964	1451.403595585656	2
0	5972	1453.169355350586	3
0	5973	1453.64496368754	2
0	5978	1454.112787041751	1
0	5984	1454.977316092374	2
0	5987	1455.987408477755	1
0	5993	1457.195043497446	2
0	5994	1457.538974528231	1
0	5998	1457.59489942826	2
0	6000	1457.93741894002	3
0	6005	1459.153052344128	4
0	6009	1460.371521724076	5
0	6011	1464.149358281754	6
0	6014	1464.850687882119	5
0	6019	1464.859388770363	4
0	6027	1465.793649222272	5
0	6028	1466.030444150105	4
0	6034	1466.358630242239	3
0	6041	1468.195192659152	2
0	6046	1468.420479113312	1
0	6051	1469.14686110126	0
0	6088	1476.069191217586	1
0	6094	1479.586962604158	0
0	6109	1481.726725786432	1
0	6112	1482.691779618598	0
0	6133	1487.751609011384	1
0	6137	1488.657572993255	2
0	6138	1488.938203655287	1
0	6146	1489.646692000994	2
0	6148	1489.933733939442	1
0	6154	1489.995029330178	0
0	6160	1490.100684968239	1
0	6163	1492.825749138143	0
0	6178	1496.654225705069	1
0	6181	1497.291741335102	0
0	6193	1501.310544083579	1
0	6194	1501.522507905887	0
0	6211	1504.36300961822	1
0	6212	1504.596859230581	0
0	6242	1509.31976462999	1
0	6248	1510.968428043223	2
0	6249	1510.998638642083	1
0	6254	1511.207613216002	0
0	6260	1511.498364535585	1
0	6263	1514.543531422495	0
0	6286	1518.229610112449	1
0	6288	1519.257714915035	2
0	6289	1519.563250399595	1
0	6298	1521.247028734732	2
0	6299	1522.543646466882	1
0	6307	1523.835035445323	0
0	6334	1528.048208251081	1
0	6336	1529.471674071102	2
0	6337	1532.311581243927	1
0	6344	1533.660321765917	0
0	6350	1534.340519682876	1
0	6352	1535.655440020822	0
0	6358	1536.28844462082	1
0	6361	1537.00477905571	0
0	6402	1549.538198330012	1
0	6405	1549.91923233966	0
0	6417	1554.243718041822	1
0	6418	1554.907846405201	0
0	6426	1556.079711172058	1
0	6427	1556.956909544198	0
0	6441	1558.750964393194	1
0	6442	1559.124266261782	0
0	6451	1560.513549873328	1
0	6452	1561.326587947539	0
0	6483	1575.595467588611	1
0	6485	1576.647771397089	0
0	6498	1577.79529263276	1
0	6499	1577.973920691351	0
0	6505	1578.026122299157	1
0	6508	1578.251399941227	0
0	6515	1578.866835997347	1
0	6518	1579.621581847596	2
0	6519	1580.279418782413	1
0	6525	1580.365954180897	2
0	6527	1580.721751216536	3
0	6531	1581.318943688183	4
0	6532	1581.53317448162	3
0	6538	1581.770810289755	2
0	6543	1582.014149712295	1
0	6549	1582.3718022136	2
0	6554	1586.537220343367	1
0	6562	1587.658493870104	0
0	6574	1588.346595463348	1
0	6575	1588.458648218077	0
0	6592	1592.460449813652	1
0	6595	1593.726997563969	2
0	6596	1594.535096954472	1
0	6602	1595.026576963829	0
0	6622	1601.209798591136	1
0	6625	1609.495456196158	0
0	6647	1614.142167072567	1
0	6651	1615.001653428357	2
0	6652	1615.32715147589	1
0	6659	1616.548994924909	2
0	6660	1616.638664872803	1
0	6665	1616.688590253477	0
0	6687	1622.284258359664	1
0	6689	1623.138981673088	2
0	6693	1623.42550190053	3
0	6695	1624.06901373337	4
0	6700	1626.719483456936	3
0	6706	1627.653051959952	2
0	6711	1628.041666612349	1
0	6717	1628.919818568815	2
0	6719	1629.843621099041	3
0	6721	1630.023329555847	4
0	6724	1630.867502527906	3
0	6731	1631.386981385316	2
0	6739	1632.351599333028	3
0	6741	1633.013849237954	4
0	6749	1637.781744901251	3
0	6754	1638.663721837025	2
0	6759	1639.220212504251	1
0	6767	1640.265749427465	0
0	6790	1643.261108167506	1
0	6795	1647.324498132559	0
0	6806	1647.998957376269	1
0	6810	1650.663546648183	0
0	6829	1655.07500896871	1
0	6830	1655.343621975229	0
0	6844	1656.658057205935	1
0	6847	1656.956259305354	0
0	6856	1658.872636577288	1
0	6862	1661.75388516284	0
0	6884	1666.628558647803	1
0	6888	1670.532764459994	2
0	6894	1671.696699496696	3
0	6899	1675.265001557232	4
0	6901	1675.689527323668	5
0	6903	1677.758416050073	6
0	6904	1678.066276468342	5
0	6909	1678.385423985943	4
0	6914	1678.664915068556	3
0	6919	1680.141875942214	2
0	6923	1681.118997702295	3
0	6932	1685.839186444585	2
0	6938	1687.061777252059	1
0	6946	1688.174373640144	2
0	6947	1689.014927189852	1
0	6952	1689.342670350256	0
0	6972	1692.137487159123	1
0	6974	1692.601859062325	2
0	6979	1693.575178207867	1
0	6984	1693.997539135261	0
0	6988	1694.77069896246	1
0	6993	1699.195977555155	0
0	7019	1702.424302396446	1
0	7021	1702.896039341675	2
0	7023	1703.076994397537	3
0	7025	1703.656152950636	4
0	7026	1704.985615971741	3
0	7032	1705.346712826783	4
0	7034	1706.86303045425	3
0	7039	1707.207670950902	2
0	7045	1707.313920755325	3
0	7046	1707.422336120541	2
0	7051	1707.928885809823	1
0	7056	1708.218616281019	0
0	7065	1709.049556585469	1
0	7066	1709.249967898962	0
0	7085	1710.699275690869	1
0	7087	1710.910638070326	2
0	7090	1711.969353954533	1
0	7100	1715.779556964696	0
0	7113	1717.110666460525	1
0	7120	1719.285792388361	0
0	7158	1725.951277475158	1
0	7159	1726.042181085662	0
0	7181	1732.54330476061	1
0	7182	1733.184010180219	0
0	7189	1734.644607608362	1
0	7190	1734.95859571518	0
0	7202	1736.703915720972	1
0	7203	1737.320462901309	0
0	7210	1737.592942239278	1
0	7212	1738.777551569965	2
0	7216	1739.344099916115	3
0	7217	1740.045416778016	2
0	7223	1740.778936791511	3
0	7224	1740.836349578216	2
0	7229	1741.064897685764	1
0	7234	1741.500983777601	0
0	7255	1747.621262471249	1
0	7262	1749.478739926941	0
0	7291	1753.37277245534	1
0	7294	1754.422107855827	0
0	7300	1755.461592335677	1
0	7304	1756.394820086974	0
0	7329	1761.99844795942	1
0	7332	1762.065334471903	0
0	7339	1763.004273649341	1
0	7342	1763.811948626948	0
0	7358	1767.850184907738	1
0	7366	1772.308524619967	0
0	7376	1774.426791264437	1
0	7384	1776.30117153929	2
0	7385	1776.505824743347	1
0	7391	1778.643248045352	0
0	7406	1785.134713199839	1
0	7408	1785.796880282512	2
0	7411	1787.932424272025	1
0	7419	1789.432283093556	0
0	7438	1795.376231580083	1
0	7441	1796.391460739567	0
0	7455	1797.487982151104	1
0	7458	1800.199280050614	0
0	7476	1803.460642971474	1
0	7478	1806.776722665808	2
0	7481	1808.074382262158	1
0	7487	1808.479743684719	0
0	7496	1809.13176035975	1
0	7500	1811.801449153723	2
0	7501	1812.326980209082	1
0	7506	1813.174449688276	0
0	7522	1818.766946764243	1
0	7523	1818.769394574114	0
0	7536	1822.533103119793	1
0	7537	1823.069828066301	0
0	7544	1823.459680946224	1
0	7545	1824.068451954105	0
0	7557	1825.931078329486	1
0	7559	1826.584193615541	2
0	7562	1826.799360629424	1
0	7567	1826.899715959911	0
0	7590	1831.541118609296	1
0	7595	1834.200399849117	0
0	7605	1835.557053516623	1
0	7610	1836.74512707839	0
0	7627	1842.811366069044	1
0	7629	1842.958394675437	2
0	7631	1843.375273569679	3
0	7632	1843.838703161192	2
0	7638	1843.904060613284	3
0	7642	1845.446690740828	4
0	7646	1846.333817969633	5
0	7648	1846.411755720648	6
0	7649	1846.475329788022	5
0	7656	1848.004362330267	6
0	7657	1848.458002711632	5
0	7662	1848.707080083545	4
0	7668	1849.321570222828	3
0	7675	1849.378814162945	2
0	7680	1849.666494308117	1
0	7684	1851.162398735621	2
0	7690	1853.63608771672	1
0	7697	1854.019106513138	0
0	7701	1854.277441550512	1
0	7705	1856.21097078737	2
0	7708	1858.123503917305	1
0	7714	1861.072191124446	0
0	7721	1861.793878753572	1
0	7722	1862.717242508779	0
0	7735	1864.119590068067	1
0	7736	1864.211790979094	0
0	7740	1864.401558887518	1
0	7744	1865.049370099786	2
0	7748	1865.288515897998	3
0	7749	1865.433582029832	2
0	7754	1867.996403317527	1
0	7758	1870.313327334808	2
0	7761	1870.913348268416	1
0	7767	1871.756437504219	2
0	7768	1871.94868415926	1
0	7775	1874.743530492345	0
0	7781	1875.496900654854	1
0	7783	1875.984212117209	2
0	7790	1879.014179778593	1
0	7796	1882.202776349238	2
0	7801	1884.486108134633	3
0	7803	1885.900292891448	4
0	7805	1886.857413505689	3
0	7811	1887.066558173623	4
0	7813	1888.02473148083	3
0	7818	1888.078778987629	2
0	7823	1889.620992738523	1
0	7831	1891.756563469142	2
0	7832	1892.111640091224	1
0	7838	1895.721911561914	2
0	7841	1896.752890699137	1
0	7847	1898.807813783444	0
0	7872	1900.864692407217	1
0	7875	1901.5075638312	0
0	7881	1902.031404263735	1
0	7883	1902.133318155318	2
0	7884	1902.672716132951	1
0	7888	1902.769400085316	2
0	7892	1903.912287298376	1
0	7901	1907.112436721615	0
0	7929	1912.770425731399	1
0	7930	1914.264089971707	0
0	7956	1916.793610420735	1
0	7960	1919.12340765748	0
0	7969	1920.37061679822	1
0	7972	1921.808331207492	0
0	7986	1924.844887042167	1
0	7987	1925.367915505664	0
0	8018	1932.91984900535	1
0	8022	1933.842499436002	0
0	8067	1944.282745389805	1
0	8072	1945.217822651755	2
0	8073	1945.877639989294	1
0	8080	1948.647088379786	0
0	8092	1948.977662347101	1
0	8094	1948.978793865236	2
0	8095	1950.188696205816	1
0	8101	1951.166658898056	0
0	8110	1952.498721124632	1
0	8111	1952.561468068346	0
0	8126	1956.755344510455	1
0	8129	1957.017919925873	0
0	8147	1959.274019948697	1
0	8150	1960.326273740948	2
0	8152	1961.218458400495	1
0	8158	1963.354688224925	0
0	8165	1964.225164642612	1
0	8168	1966.437652113528	0
0	8207	1979.130748539924	1
0	8211	1981.28229762479	2
0	8212	1981.292985956228	1
0	8217	1982.112746240348	0
0	8246	1991.20206209492	1
0	8250	1996.147870219833	0
0	8273	2004.19965866779	1
0	8277	2004.606151410809	2
0	8282	2006.642517213387	1
0	8288	2007.097125530186	2
0	8290	2007.295662937438	3
0	8294	2008.610712335865	2
0	8300	2009.701748848975	1
0	8306	2009.94323202397	2
0	8307	2010.022260324082	1
0	8313	2011.158181721668	0
0	8331	2013.210430460216	1
0	8335	2014.180491845701	2
0	8337	2014.53134450809	1
0	8343	2015.608196368827	2
0	8344	2015.973504789163	1
0	8351	2017.071056124804	0
0	8365	2019.658505051011	1
0	8370	2020.32864103965	0
0	8393	2027.946409121908	1
0	8394	2028.081732056572	0
0	8441	2039.760593884975	1
0	8442	2039.816820599776	0
0	8504	2052.684519859425	1
0	8507	2054.570873931672	2
0	8509	2055.180671925747	3
0	8510	2055.628760470589	2
0	8515	2055.869258482745	1
0	8520	2056.029070424043	0
0	8578	2068.949721914291	1
0	8580	2069.575459174816	0
0	8592	2070.57023638052	1
0	8593	2070.729955547977	0
0	8617	2076.836283096362	1
0	8620	2079.124161386606	2
0	8621	2079.270916213634	1
0	8627	2079.486814163562	2
0	8629	2080.186408925197	1
0	8634	2081.59214570035	0
0	8641	2081.939357450275	1
0	8643	2082.534992894467	2
0	8647	2083.27797201774	3
0	8649	2083.517178114848	4
0	8650	2083.868739230611	3
0	8656	2084.953160183632	4
0	8657	2086.418125929666	3
0	8661	2087.092058122663	4
0	8666	2091.871151578982	3
0	8670	2091.967442388003	4
0	8675	2092.64220673633	3
0	8680	2094.416208004692	2
0	8684	2097.349186528785	3
0	8686	2098.623339896789	4
0	8692	2100.315139342301	5
0	8693	2100.515566503991	4
0	8699	2101.118063345053	3
0	8706	2103.708054685317	4
0	8708	2103.757184633408	5
0	8710	2104.69958867298	6
0	8712	2104.833206985136	7
0	8715	2105.392572897299	6
0	8726	2106.295921431039	5
0	8731	2107.678268529566	4
0	8737	2107.680648391856	5
0	8738	2107.850687855473	4
0	8747	2108.42040037999	3
0	8751	2108.574068945212	4
0	8753	2109.119811252041	5
0	8760	2110.339283282749	6
0	8761	2110.384971893737	5
0	8766	2111.424474756571	4
0	8771	2112.235695530266	3
0	8777	2113.25465381964	2
0	8783	2115.761131509673	1
0	8789	2116.840942135615	0
0	8805	2117.911572147259	1
0	8811	2121.280358870551	0
0	8855	2132.505405224983	1
0	8857	2132.729067535246	2
0	8860	2134.33161598007	1
0	8865	2134.710516300874	0
0	8882	2137.103093261289	1
0	8883	2137.646239224577	0
0	8926	2147.103031356037	1
0	8928	2147.314331094357	0
0	8974	2151.814831988432	1
0	8975	2152.487971989546	0
0	8994	2155.424417185919	1
0	8996	2155.745179083753	2
0	9000	2156.235631767445	1
0	9006	2156.429356863044	2
0	9007	2156.807485139776	1
0	9013	2157.589869050393	0
0	9034	2164.100661677607	1
0	9038	2165.023910912828	2
0	9040	2165.690696065337	1
0	9046	2168.988281093967	0
0	9093	2180.016012485485	1
0	9094	2180.303157055827	0
0	9133	2189.514885210108	1
0	9134	2191.283396264418	0
0	9148	2193.378574434388	1
0	9151	2193.790114905339	0
0	9169	2198.281677534756	1
0	9172	2198.975430344445	0
0	9180	2199.560915412719	1
0	9181	2199.740071236236	0
0	9217	2215.429252606514	1
0	9219	2215.744542627829	2
0	9221	2215.951149685005	3
0	9223	2216.17303088879	4
0	9224	2218.217806712501	3
0	9229	2218.417059043237	2
0	9235	2218.492713169384	3
0	9237	2219.990110125781	2
0	9243	2220.308352742735	1
0	9250	2221.601450295669	2
0	9251	2222.464610717292	1
0	9256	2222.466307510345	0
0	9267	2226.415283737475	1
0	9273	2231.586302591851	2
0	9274	2231.707708783953	1
0	9278	2231.804720123702	2
0	9283	2237.14106682885	1
0	9298	2243.003285335813	0
0	9311	2245.066247547217	1
0	9314	2245.444678871331	0
0	9331	2247.40036474015	1
0	9333	2248.303353075114	2
0	9335	2249.497744672659	1
0	9341	2249.515798186546	2
0	9343	2249.955452234309	3
0	9346	2250.571632489784	4
0	9348	2251.802960793989	5
0	9349	2252.03151497623	4
0	9354	2253.873889224019	3
0	9358	2254.591050870793	4
0	9361	2255.243603420776	3
0	9374	2260.530661518812	2
0	9381	2264.715592456041	1
0	9385	2266.332799911225	2
0	9388	2269.121112729195	1
0	9392	2271.201339466143	2
0	9397	2272.405213478724	1
0	9402	2272.544837025708	0
0	9435	2277.530867563137	1
0	9439	2280.85493226188	2
0	9441	2281.37049547059	1
0	9446	2281.662609371424	0
0	9452	2281.705312211235	1
0	9454	2281.79670353721	2
0	9456	2282.101378679835	3
0	9457	2283.168154688141	2
0	9462	2284.48845241949	1
0	9470	2286.441946694273	0
0	9476	2286.658669527462	1
0	9478	2287.906330707023	0
0	9492	2291.707555310797	1
0	9497	2293.824578140584	2
0	9498	2296.900820552404	1
0	9504	2297.578364565416	0
0	9515	2298.508785187377	1
0	9517	2298.919450672861	0
0	9525	2299.641847725193	1
0	9527	2300.647798995464	2
0	9532	2303.904644826599	1
0	9537	2304.081840678831	0
0	9543	2304.860183146998	1
0	9545	2306.000499480776	2
0	9546	2306.375978104586	1
0	9551	2307.008931316528	0
0	9579	2310.870535581834	1
0	9580	2311.656592702826	0
0	9616	2317.274749434878	1
0	9623	2323.845076306326	0
0	9633	2325.644581894027	1
0	9640	2332.454186899691	0
0	9657	2335.588464531362	1
0	9662	2337.653796446226	0
0	9677	2342.82250382874	1
0	9679	2342.825003553641	2
0	9683	2344.651212003225	3
0	9686	2345.469802646827	2
0	9692	2346.112616142875	1
0	9700	2347.438100533409	2
0	9701	2347.636253819232	1
0	9706	2347.727717119784	0
0	9734	2353.980749374857	1
0	9736	2354.623722236692	2
0	9737	2355.07770278623	1
0	9749	2357.334831282146	2
0	9750	2359.493998497385	1
0	9757	2360.908959486004	2
0	9758	2361.111395122841	1
0	9765	2361.599226103585	0
0	9774	2362.52643960235	1
0	9775	2363.034268115653	0
0	9802	2366.253762736325	1
0	9805	2368.122121254257	0
0	9837	2378.263318225312	1
0	9839	2379.240165201387	2
0	9840	2379.424679815526	1
0	9845	2379.514598092465	0
0	9875	2387.6718153617	1
0	9876	2388.560534216748	0
0	9932	2408.587390214589	1
0	9935	2409.715513088891	0
0	9968	2417.666224275432	1
0	9970	2417.908873972997	2
0	9973	2418.25186248176	1
0	9979	2419.419161732627	0
0	10030	2433.646868084117	1
0	10031	2433.981037951659	0
0	10042	2435.248193862034	1
0	10044	2435.332124219276	2
0	10047	2435.822059059235	1
0	10054	2437.145050814818	2
0	10057	2438.156882483621	1
0	10062	2438.572341196366	0
0	10068	2441.322042064109	1
0	10074	2443.18970352212	2
0	10081	2446.484638454748	1
0	10088	2446.70976629122	0
0	10108	2448.513386639217	1
0	10109	2448.544886221683	0
0	10116	2450.756661759969	1
0	10118	2450.870952390934	2
0	10119	2451.548221023382	1
0	10124	2452.405959339147	0
0	10132	2453.32646422278	1
0	10133	2453.580627883415	0
0	10151	2455.50569932249	1
0	10152	2456.718546822876	0
0	10159	2457.330134705114	1
0	10160	2457.810230868466	0
0	10184	2461.401168623409	1
0	10186	2462.176751945151	2
0	10188	2462.376397017591	3
0	10190	2463.819374666073	2
0	10197	2464.586962239949	1
0	10203	2464.724283204162	2
0	10206	2465.282746473324	1
0	10211	2465.897701256007	0
0	10243	2472.763221559984	1
0	10244	2474.856433369708	0
0	10252	2475.438995120304	1
0	10253	2475.562347788417	0
0	10259	2475.714471567885	1
0	10262	2476.61469240282	0
0	10272	2478.392127472009	1
0	10277	2479.802078421375	0
0	10288	2482.237889095126	1
0	10290	2484.725327342255	2
0	10295	2485.608889023035	1
0	10301	2486.618637002813	0
0	10335	2494.057072030365	1
0	10336	2494.754885147603	0
0	10358	2499.235896801354	1
0	10359	2499.478743316432	0
0	10385	2510.894564269883	1
0	10387	2512.236621566581	2
0	10389	2513.628192946641	3
0	10394	2516.664985854137	2
0	10400	2517.197419051594	1
0	10405	2517.49214611719	0
0	10411	2517.843181963952	1
0	10413	2518.177463739948	0
0	10420	2519.626931627772	1
0	10421	2519.791601234028	0
0	10436	2526.424427135657	1
0	10438	2526.440979881694	2
0	10440	2527.006389950194	3
0	10442	2527.81954277807	2
0	10448	2527.996302465944	3
0	10450	2528.104907085203	4
0	10453	2528.400393795726	3
0	10463	2530.543849035664	4
0	10465	2531.281291171214	3
0	10474	2532.305685420398	4
0	10475	2532.42935011414	3
0	10481	2533.471412918388	4
0	10482	2533.876881430299	3
0	10489	2534.679010884138	4
0	10491	2535.911948147909	3
0	10496	2537.251214422746	2
0	10501	2539.944047807661	1
0	10510	2541.700523141788	2
0	10512	2542.039086836413	3
0	10515	2543.644744101719	2
0	10520	2543.655789455616	1
0	10525	2543.686379024199	0
0	10531	2543.805768131709	1
0	10534	2544.504505042831	0
0	10541	2546.682291452369	1
0	10542	2547.196187993038	0
0	10554	2549.407814442575	1
0	10556	2551.814206030586	2
0	10557	2552.214944082526	1
0	10561	2552.450487504863	2
0	10566	2555.919634974908	1
0	10571	2555.945480333857	0
0	10601	2557.376203293958	1
0	10606	2558.843965664154	2
0	10609	2559.774741394583	1
0	10614	2559.883183306022	0
0	10640	2562.491759288387	1
0	10641	2562.556713489236	0
0	10648	2563.404186269075	1
0	10650	2563.710300865966	0
0	10665	2565.523306462568	1
0	10667	2566.050270326672	0
0	10673	2566.106174382899	1
0	10674	2566.319189839451	0
0	10680	2566.378528961898	1
0	10684	2568.18648294299	0
0	10712	2579.367369527998	1
0	10713	2579.534688145015	0
0	10729	2581.932761174135	1
0	10731	2582.094681502779	2
0	10732	2582.367848020365	1
0	10738	2582.593925615443	2
0	10739	2583.063638293994	1
0	10743	2583.429849310987	2
0	10748	2584.096691716986	3
0	10750	2587.264627621517	2
0	10757	2587.999666067165	3
0	10759	2588.227846735	2
0	10765	2588.45102661999	3
0	10767	2588.51075043518	2
0	10772	2589.188554261719	1
0	10778	2590.040941230554	2
0	10782	2591.148768463385	1
0	10789	2592.692561906329	0
0	10803	2595.187050293501	1
0	10806	2596.231113364023	0
0	10814	2599.471120096562	1
0	10815	2600.211473066973	0
0	10867	2610.464747188591	1
0	10874	2613.197792330033	0
0	10887	2614.830705590386	1
0	10889	2614.915632096404	2
0	10890	2615.111641857783	1
0	10895	2615.782490625784	0
0	10901	2616.046927443379	1
0	10903	2616.3505351763	0
0	10926	2619.891900640238	1
0	10930	2624.30050905293	0
0	10940	2625.734995779987	1
0	10941	2626.93362157625	0
0	10948	2627.508721081454	1
0	10951	2630.326893843467	2
0	10952	2630.928632000246	1
0	10959	2631.335570814879	2
0	10960	2631.904975388874	1
0	10968	2634.354447939599	0
0	10999	2644.468960862606	1
0	11004	2646.268512461446	2
0	11005	2646.763042872902	1
0	11012	2649.307519492085	0
0	11019	2650.545059702405	1
0	11020	2651.509278163605	0
0	11038	2657.044460479982	1
0	11039	2657.079008706764	0
0	11077	2665.906382536151	1
0	11078	2665.948664757434	0
0	11092	2670.268649808492	1
0	11093	2670.486188876352	0
0	11114	2676.238134662031	1
0	11115	2676.242574855944	0
0	11159	2686.062538132903	1
0	11160	2686.776478603261	0
0	11180	2690.29113671644	1
0	11182	2690.820943701563	2
0	11183	2691.71985081498	1
0	11188	2692.823175454257	0
0	11194	2692.922765913357	1
0	11196	2694.348260968449	0
0	11211	2696.749349276558	1
0	11212	2697.63952367531	0
0	11219	2699.145308027945	1
0	11220	2699.847950241741	0
0	11236	2702.739513090874	1
0	11238	2703.024542386005	2
0	11239	2703.161546481216	1
0	11245	2705.133094479834	0
0	11253	2706.258491417093	1
0	11257	2706.960443229957	2
0	11258	2707.226243776561	1
0	11263	2707.280301259981	0
0	11280	2709.366238329744	1
0	11283	2709.84759676096	2
0	11284	2710.036677108587	1
0	11290	2710.372226901813	0
0	11301	2710.895877481627	1
0	11303	2711.998039928407	0
0	11322	2714.251871505829	1
0	11324	2714.345603150037	2
0	11325	2714.727537282473	1
0	11338	2717.740911764871	0
0	11344	2717.855103965316	1
0	11347	2718.948981246323	0
0	11364	2723.257318589969	1
0	11365	2726.661072878404	0
0	11371	2726.81382191113	1
0	11374	2728.767017500566	0
0	11380	2729.790649322822	1
0	11381	2730.005800922697	0
0	11442	2742.115530147443	1
0	11446	2743.063434728114	0
0	11452	2743.78480413466	1
0	11457	2747.252168755596	2
0	11458	2748.007142451656	1
0	11463	2748.263387691747	0
0	11469	2749.001377264531	1
0	11471	2750.008073222773	0
0	11520	2774.455023885388	1
0	11521	2775.263169323788	0
0	11558	2782.419291732522	1
0	11560	2782.99845482256	2
0	11563	2783.997823387757	3
0	11564	2784.269273583061	2
0	11570	2784.509303096424	3
0	11574	2785.060319878738	2
0	11579	2785.366284507546	1
0	11584	2785.57230667951	0
0	11593	2787.821308217466	1
0	11595	2788.026806711983	2
0	11599	2789.302851875826	1
0	11604	2789.370665100136	0
0	11615	2790.195761652752	1
0	11616	2790.235199307584	0
0	11693	2803.767410650327	1
0	11696	2805.48791460936	0
0	11705	2806.819128843059	1
0	11707	2807.223834543838	2
0	11710	2808.104101657742	1
0	11716	2808.947208675268	2
0	11718	2810.308792654281	1
0	11726	2811.598694049555	0
0	11751	2818.231538180278	1
0	11754	2819.083662385293	0
0	11842	2856.241693576197	1
0	11843	2856.244725580347	0
0	11864	2860.908965422059	1
0	11866	2861.354878995828	2
0	11868	2862.606515253673	1
0	11874	2863.390873098252	0
0	11898	2865.617265967921	1
0	11900	2868.187312264814	0
0	11915	2873.150239884093	1
0	11918	2874.284665197956	0
0	11930	2876.196664716445	1
0	11933	2876.540669741719	2
0	11936	2877.576589349004	1
0	11941	2878.191725132192	0
0	11952	2879.708917262001	1
0	11954	2882.403825579581	0
0	11967	2883.252678691364	1
0	11968	2883.291095135839	0
0	11981	2888.428640233697	1
0	11983	2888.657234529057	2
0	11987	2890.322367997007	3
0	11989	2891.141692150947	2
0	11996	2891.667728345439	3
0	11997	2891.724651631171	2
0	12002	2892.230331757675	1
0	12006	2892.281633827445	2
0	12008	2892.333656288648	3
0	12014	2898.467841595995	4
0	12015	2899.199754610002	3
0	12022	2901.270784379816	2
0	12030	2903.853898086857	1
0	12037	2904.698330883319	2
0	12038	2904.837445438919	1
0	12043	2905.598741999936	0
0	12081	2920.317244792566	1
0	12086	2920.94980468109	0
0	12137	2933.784645591857	1
0	12140	2934.701531539599	0
0	12162	2942.176300725046	1
0	12163	2942.458500178604	0
0	12207	2954.906085139747	1
0	12208	2955.325596907765	0
0	12216	2956.12620484357	1
0	12217	2956.602866293315	0
0	12271	2977.916862753188	1
0	12274	2979.241564164857	0
0	12288	2981.556596096277	1
0	12290	2982.94296866827	2
0	12292	2983.900588339695	3
0	12294	2984.096977190214	4
0	12295	2986.458839530913	3
0	12301	2987.404171311938	2
0	12307	2988.529210678294	1
0	12315	2991.560691385263	0
0	12327	2992.049736060318	1
0	12328	2992.184607442745	0
0	12334	2992.471119363679	1
0	12335	2993.198868358114	0
0	12341	2993.261196656182	1
0	12342	2993.526840545382	0
0	12393	3006.670771071548	1
0	12394	3007.065292509495	0
0	12420	3016.685303216459	1
0	12422	3016.898373056693	2
0	12423	3017.106469657944	1
0	12429	3017.448730325918	2
0	12431	3017.726792280617	3
0	12434	3019.209524496613	4
0	12436	3020.447763366426	5
0	12437	3020.594381211941	4
0	12442	3020.759622971706	3
0	12447	3020.865348813838	2
0	12452	3021.307299641379	1
0	12459	3022.558411933674	0
0	12484	3030.92779371716	1
0	12487	3031.80472906379	2
0	12489	3032.30453706537	1
0	12495	3033.139704422537	2
0	12496	3034.343383876198	1
0	12501	3034.818773991235	0
0	12512	3036.889885461571	1
0	12515	3038.10373563458	0
0	12538	3047.864784625727	1
0	12539	3047.948581740906	0
0	12562	3052.311023826311	1
0	12565	3054.096271630247	0
0	12586	3058.122004423147	1
0	12587	3059.117101007622	0
0	12601	3063.131480977543	1
0	12606	3065.24180276693	2
0	12607	3065.34447094223	1
0	12613	3066.718202990944	0
0	12656	3080.807761293548	1
0	12658	3081.570151985273	0
0	12674	3083.187815558779	1
0	12678	3086.901587367921	2
0	12680	3087.092255664001	3
0	12681	3087.38285215782	2
0	12688	3088.786036239289	1
0	12695	3090.290858844082	0
0	12709	3094.321352704621	1
0	12713	3095.214861903336	2
0	12715	3096.291584968919	3
0	12716	3096.618059258913	2
0	12721	3096.655677127612	1
0	12728	3096.680560914696	2
0	12730	3096.683817344412	3
0	12733	3098.143197431106	2
0	12742	3099.855293506458	3
0	12743	3099.975047515883	2
0	12752	3104.595733890683	1
0	12759	3106.933333311851	0
0	12771	3109.170096955561	1
0	12774	3109.40030303208	0
0	12800	3113.044313590167	1
0	12801	3113.445726181801	0
0	12820	3115.87026761435	1
0	12823	3116.618988269138	0
0	12830	3117.781507764705	1
0	12831	3118.825221355438	0
0	12842	3120.282587735355	1
0	12843	3123.143246771329	0
0	12860	3125.866281926731	1
0	12864	3126.276323229499	2
0	12865	3126.383889070495	1
0	12872	3129.749702623483	0
0	12878	3130.151394248211	1
0	12880	3131.390916028015	2
0	12881	3131.690132505435	1
0	12886	3131.801777453602	0
0	12938	3144.728215381295	1
0	12939	3144.867254952726	0
0	12967	3160.961501460511	1
0	12970	3163.444705076894	0
0	13044	3178.200419085338	1
0	13046	3178.645953247581	2
0	13049	3181.007808402221	1
0	13055	3181.366974937203	2
0	13056	3181.856037014683	1
0	13061	3182.289196272606	0
0	13085	3189.661898781841	1
0	13086	3189.773499846792	0
0	13092	3191.772197866924	1
0	13094	3193.838195748643	0
0	13100	3194.054579203989	1
0	13102	3194.472610385126	0
0	13114	3195.20821934564	1
0	13116	3196.201310234423	0
0	13122	3196.211494346453	1
0	13124	3197.128597733668	2
0	13127	3197.901190540913	1
0	13136	3202.254303450264	0
0	13140	3202.363052156132	1
0	13143	3205.99660512677	0
0	13147	3206.620240357986	1
0	13152	3207.972259363681	0
0	13158	3208.157524909585	1
0	13161	3208.694711367302	2
0	13164	3209.833424916472	1
0	13170	3210.300601728492	2
0	13171	3210.325611600107	1
0	13177	3210.661654162163	0
0	13219	3219.401653629726	1
0	13220	3220.192065028162	0
0	13229	3223.132842368143	1
0	13230	3223.334585443616	0
0	13237	3225.043627045189	1
0	13240	3226.726868202606	2
0	13241	3227.008582527287	1
0	13247	3227.500535941623	0
0	13295	3237.50320275888	1
0	13300	3238.951902113979	0
0	13314	3242.037882938859	1
0	13316	3242.445870835184	2
0	13317	3243.98016728792	1
0	13323	3245.129402420928	0
0	13334	3246.017101635358	1
0	13343	3248.553299616838	0
0	13358	3250.739559265224	1
0	13361	3252.051674324938	0
0	13386	3256.384757362407	1
0	13387	3256.872549171408	0
0	13431	3270.202831069542	1
0	13433	3270.721063654145	2
0	13444	3275.540269828533	1
0	13450	3276.603381714199	2
0	13452	3277.048587518838	1
0	13457	3277.192296749337	0
0	13482	3283.558083567522	1
0	13485	3284.708739042157	0
0	13494	3284.896182887411	1
0	13498	3285.361777313811	2
0	13505	3289.660421927313	3
0	13506	3289.765819409082	2
0	13512	3290.807293006278	1
0	13521	3291.117022113535	2
0	13522	3291.460756579412	1
0	13527	3291.959326812472	0
0	13592	3310.189139018391	1
0	13593	3310.656536970638	0
0	13612	3320.212542292112	1
0	13616	3320.905945798117	0
0	13628	3321.448044490272	1
0	13633	3323.90680811978	2
0	13638	3326.817572964389	1
0	13643	3326.85666120663	0
0	13662	3328.460899674191	1
0	13664	3328.674101175185	2
0	13665	3329.343903835628	1
0	13671	3330.68571682064	0
0	13689	3336.731073898558	1
0	13691	3336.776401195724	2
0	13692	3337.012763444094	1
0	13698	3338.880585766524	0
0	13710	3341.377487520558	1
0	13712	3342.032593418215	2
0	13714	3342.443806547054	3
0	13715	3342.734477939459	2
0	13721	3343.646884228618	1
0	13726	3344.031254460403	0
0	13730	3344.20797431714	1
0	13733	3344.535058786677	0
0	13744	3347.123458640059	1
0	13745	3347.422239227171	0
0	13765	3350.227784581033	1
0	13767	3350.331505584537	2
0	13769	3350.36523580165	3
0	13771	3352.612379151981	2
0	13776	3352.927450876993	1
0	13781	3353.612409991922	0
0	13795	3359.149664989755	1
0	13798	3360.463354983527	0
0	13820	3364.439572962516	1
0	13823	3365.737236663635	0
0	13829	3365.928865275274	1
0	13831	3365.998226196249	2
0	13833	3366.478043955491	1
0	13838	3366.593623082401	0
0	13862	3369.219595848476	1
0	13864	3370.262215332964	0
0	13875	3374.511783355454	1
0	13877	3376.542749701692	2
0	13878	3376.620985479191	1
0	13883	3377.186685764647	0
0	13894	3378.386003832006	1
0	13896	3379.272902776544	0
0	13907	3379.490325754481	1
0	13910	3379.739579983931	2
0	13911	3379.982711400222	1
0	13915	3380.085782532261	2
0	13921	3383.784355894787	3
0	13929	3386.87147047149	2
0	13935	3388.379992621502	1
0	13940	3388.967109335207	0
0	13953	3390.308218016756	1
0	13954	3390.451023289882	0
0	13964	3391.736151867043	1
0	13965	3391.958100806933	0
0	13986	3393.566817572277	1
0	13989	3394.375305309901	0
0	14008	3399.470687228471	1
0	14009	3400.245491428915	0
0	14051	3409.464279029297	1
0	14052	3409.769883269526	0
0	14059	3410.695437914974	1
0	14060	3410.910120682956	0
0	14074	3414.322038543536	1
0	14077	3416.595571046909	0
0	14089	3417.618754436037	1
0	14090	3418.292122448566	0
0	14174	3443.018398913941	1
0	14175	3443.23546824706	0
0	14181	3443.371444078551	1
0	14182	3443.464886085411	0
0	14188	3445.639605293035	1
0	14189	3445.919036101403	0
0	14228	3460.312517688045	1
0	14229	3461.172530740078	0
0	14258	3466.562986002511	1
0	14260	3467.352097220694	0
0	14296	3474.436677320707	1
0	14297	3474.646943980446	0
0	14312	3479.062920834687	1
0	14314	3480.408111267219	0
0	14342	3485.91589637086	1
0	14344	3486.691790630365	2
0	14345	3486.966225474419	1
0	14353	3487.877764045557	0
0	14372	3490.08798632434	1
0	14376	3490.987788725202	2
0	14378	3491.136373216985	3
0	14380	3491.540639414419	2
0	14387	3493.791173837377	1
0	14392	3494.741465328728	0
0	14450	3506.007491279547	1
0	14451	3506.22116286938	0
0	14532	3539.651087176295	1
0	14537	3541.886920660754	0
0	14543	3542.140702263619	1
0	14545	3542.510676239005	0
0	14622	3560.154950499218	1
0	14623	3561.315755734412	0
0	14644	3565.717529463339	1
0	14646	3565.848013006227	2
0	14647	3566.214940970271	1
0	14652	3566.584755345039	0
0	14661	3567.62257616808	1
0	14665	3568.286703431108	2
0	14669	3568.63135922939	3
0	14673	3570.720202176541	2
0	14678	3570.776325127009	1
0	14683	3571.157416041156	0
0	14694	3573.154933039768	1
0	14698	3574.169593139531	0
0	14712	3576.136054336641	1
0	14714	3577.145040103187	2
0	14718	3577.30600425883	3
0	14719	3578.56010251552	2
0	14726	3579.342631394303	3
0	14727	3579.385765363484	2
0	14734	3580.874970636278	3
0	14736	3581.933718364875	4
0	14737	3585.833670172803	3
0	14742	3586.448255913983	2
0	14748	3586.673384303587	1
0	14754	3590.16190532221	0
0	14786	3600.185659308821	1
0	14791	3602.374020760324	2
0	14792	3602.623898978638	1
0	14797	3602.797544427151	0
0	14806	3603.94006848251	1
0	14817	3610.936083084443	2
0	14818	3611.115620123711	1
0	14824	3612.146410949734	0
0	14835	3612.478214306621	1
0	14836	3614.614154576603	0
0	14878	3629.864515938953	1
0	14880	3631.360196537769	0
0	14908	3641.154498559578	1
0	14909	3642.518723803655	0
0	14915	3642.621541797162	1
0	14916	3642.842637422549	0
0	14924	3643.864530983551	1
0	14925	3644.406224896523	0
0	14946	3660.48631400525	1
0	14949	3662.766028731992	0
0	14955	3663.179040453274	1
0	14958	3664.157451516163	0
0	14964	3665.455705422013	1
0	14965	3666.071201967589	0
0	14972	3666.639068792711	1
0	14974	3669.091605542514	0
0	14980	3669.239885922487	1
0	14981	3669.400795864619	0
0	14994	3670.422909060081	1
0	14995	3670.564450445072	0
0	15014	3676.460723225555	1
0	15019	3677.493884401268	0
0	15023	3677.999745042881	1
0	15027	3678.80916214468	2
0	15028	3679.326428377646	1
0	15032	3681.518538759567	2
0	15035	3683.234534331762	1
0	15043	3684.255496755702	0
0	15056	3685.868310663501	1
0	15057	3686.696997025434	0
0	15116	3708.543285715747	1
0	15118	3711.537559521466	2
0	15126	3718.544229853295	3
0	15127	3718.579454590357	2
0	15134	3719.672006340664	3
0	15135	3719.780435243489	2
0	15140	3720.117546681172	1
0	15145	3720.29615286062	0
0	15193	3729.20492555004	1
0	15194	3729.243734394162	0
0	15224	3739.141833309387	1
0	15226	3739.517183869905	2
0	15230	3740.555308973551	3
0	15233	3741.06074264436	2
0	15238	3741.271409494335	1
0	15246	3742.046538198017	2
0	15248	3743.077734654125	1
0	15261	3745.684568383585	0
0	15278	3746.500003770325	1
0	15279	3747.651381049025	0
0	15296	3749.955420881457	1
0	15300	3750.151150101672	2
0	15302	3750.654279764369	3
0	15307	3751.207123082873	2
0	15313	3751.579934171235	1
0	15320	3752.838087177852	0
0	15326	3753.219073540235	1
0	15328	3754.464326991776	0
0	15370	3760.441501897942	1
0	15372	3761.161233510961	0
0	15383	3763.662537923827	1
0	15385	3764.666886314225	2
0	15389	3765.365112225677	3
0	15395	3767.355078269538	2
0	15400	3768.649630341332	1
0	15405	3769.101918179683	0
0	15434	3771.958017655264	1
0	15438	3775.113516961713	2
0	15439	3775.50094311037	1
0	15444	3775.629716041241	0
0	15453	3776.756923881617	1
0	15459	3778.739235445851	2
0	15463	3780.281058120892	3
0	15465	3780.311231172685	4
0	15466	3780.609652235634	3
0	15473	3780.900916824799	2
0	15479	3783.681516034274	1
0	15486	3784.035430714568	0
0	15504	3786.466585720518	1
0	15505	3786.469702256274	0
0	15518	3789.814088649972	1
0	15525	3792.478058260558	0
0	15536	3793.002129913392	1
0	15539	3794.102235498694	0
0	15585	3805.217666552838	1
0	15586	3805.70165778441	0
0	15649	3822.808044743768	1
0	15651	3823.515282461251	0
0	15666	3826.128205947244	1
0	15674	3827.953101239707	0
0	15680	3827.996326887201	1
0	15682	3829.916158031396	0
0	15718	3839.681040475677	1
0	15719	3840.690813842945	0
0	15736	3843.539074746167	1
0	15737	3844.176594434976	0
0	15767	3853.75226297468	1
0	15769	3855.809814066848	0
0	15840	3872.673272446176	1
0	15841	3874.602304988335	0
0	15847	3874.742917804162	1
0	15848	3874.909779180904	0
0	15868	3883.276822684174	1
0	15871	3883.843155174473	0
0	15887	3890.150304753703	1
0	15889	3891.291828194711	2
0	15890	3891.577563755007	1
0	15895	3891.58374754217	0
0	15948	3904.379263316022	1
0	15953	3905.724241783673	2
0	15954	3905.880053384611	1
0	15960	3906.765252488909	0
0	15972	3907.733821642058	1
0	15973	3908.879384202298	0
0	15987	3910.56674589225	1
0	15989	3913.255910817674	0
0	16005	3921.201209040985	1
0	16006	3922.447749931258	0
0	16021	3923.006297031901	1
0	16022	3923.023989518745	0
0	16028	3923.850883718356	1
0	16030	3923.885874360539	2
0	16031	3924.070317652288	1
0	16035	3925.032245397657	2
0	16040	3926.80152336152	1
0	16045	3928.88456298767	0
0	16099	3949.630994536722	1
0	16101	3950.306494469665	2
0	16102	3951.257785393003	1
0	16108	3952.320623534185	0
0	16169	3978.162109924843	1
0	16170	3978.790535244178	0
0	16176	3979.128036372286	1
0	16179	3986.579632369715	0
0	16185	3989.057677375813	1
0	16186	3989.538189561916	0
0	16222	3998.29212630234	1
0	16223	3998.673121368553	0
0	16253	4007.261992046484	1
0	16254	4009.01076500007	0
0	16260	4009.070310253788	1
0	16261	4009.779529392539	0
0	16269	4011.693681720034	1
0	16270	4011.724546915464	0
0	16286	4014.409259877906	1
0	16290	4016.976272862537	0
0	16345	4032.753818293511	1
0	16346	4032.77687156679	0
0	16360	4036.552429606529	1
0	16361	4036.744960894165	0
0	16384	4044.069523981011	1
0	16387	4045.617878785371	0
0	16439	4058.555858458634	1
0	16440	4058.658992734403	0
0	16527	4088.602792352921	1
0	16528	4089.152241301816	0
0	16551	4099.646374235262	1
0	16552	4099.90428170841	0
0	16568	4103.15869881485	1
0	16569	4103.954781445893	0
0	16607	4117.144196327284	1
0	16608	4117.847948656064	0
0	16622	4120.264589555882	1
0	16624	4120.277798793686	2
0	16626	4121.705888075726	1
0	16631	4122.373152339363	0
0	16637	4122.40189923836	1
0	16638	4122.609739276131	0
0	16642	4122.786777613429	1
0	16646	4126.749275921147	2
0	16649	4129.181967163299	1
0	16654	4130.39566964559	0
0	16660	4131.413285686702	1
0	16661	4131.631272875285	0
0	16665	4132.678341687713	1
0	16667	4133.55150779753	2
0	16670	4134.560204124963	1
0	16676	4136.392794621203	2
0	16678	4136.633713175143	3
0	16684	4138.240750611344	2
0	16690	4138.315117648696	1
0	16695	4138.361622834041	0
0	16699	4138.537464675024	1
0	16703	4140.544344882446	2
0	16706	4141.671019487154	1
0	16711	4142.402372379813	0
0	16726	4144.706987030245	1
0	16733	4150.77110143543	0
0	16739	4150.907923588155	1
0	16740	4152.017194371259	0
0	16774	4157.563101968634	1
0	16776	4158.353730680706	0
0	16800	4164.148842258924	1
0	16804	4165.359365241562	2
0	16807	4165.688826779244	1
0	16812	4167.041295021815	0
0	16818	4171.892983398722	1
0	16820	4172.894414279015	2
0	16828	4174.618979856253	3
0	16829	4174.782049945853	2
0	16835	4176.191343315729	1
0	16840	4177.930552862941	0
0	16856	4183.00303123199	1
0	16858	4183.034901970803	2
0	16860	4185.9837068839	3
0	16863	4189.389895150345	4
0	16865	4190.308297259258	5
0	16866	4191.253619019265	4
0	16871	4194.165960888089	3
0	16877	4195.432965525131	4
0	16880	4196.081103625207	3
0	16884	4199.7437739828	4
0	16886	4200.252069789972	5
0	16894	4202.926685512587	4
0	16900	4203.509385425702	3
0	16905	4204.051375044309	2
0	16910	4206.868436081437	1
0	16919	4210.277343749081	2
0	16921	4210.653082514999	3
0	16922	4211.020986033106	2
0	16929	4212.934736986372	1
0	16936	4213.539454965869	2
0	16939	4214.736775108786	1
0	16946	4216.662569064459	0
0	16953	4217.892308823708	1
0	16956	4219.451002787458	0
0	16974	4220.852326856756	1
0	16976	4222.490655614955	2
0	16979	4224.418479839285	1
0	16985	4224.733792314256	2
0	16986	4226.347430553727	1
0	16991	4226.446860397625	0
0	17002	4227.095191743297	1
0	17006	4228.489862244413	0
0	17035	4233.14471982596	1
0	17036	4233.374980053294	0
0	17047	4234.472937988959	1
0	17051	4235.080199733931	2
0	17053	4235.574249119159	1
0	17058	4235.781470058364	0
0	17077	4240.004194427757	1
0	17079	4241.807978168807	2
0	17080	4242.876760564375	1
0	17085	4242.995857336412	0
0	17106	4250.898581783307	1
0	17107	4251.535014385855	0
0	17123	4253.904406553643	1
0	17126	4255.861525633748	0
0	17145	4261.380473078003	1
0	17148	4262.58539101958	0
0	17162	4265.756157353377	1
0	17169	4268.147555566703	0
0	17184	4274.259427983784	1
0	17191	4278.398481332252	0
0	17197	4278.760999215432	1
0	17198	4278.82130208724	0
0	17250	4293.271118144241	1
0	17254	4293.884575715065	2
0	17256	4294.998374476138	1
0	17261	4295.201649424326	0
0	17269	4296.658620528784	1
0	17270	4296.704035110125	0
0	17277	4297.007641771646	1
0	17278	4297.168595984241	0
0	17284	4297.274493815375	1
0	17286	4297.291527823127	2
0	17288	4298.314877713976	1
0	17294	4298.345003833329	2
0	17295	4298.527910960605	1
0	17301	4299.481044219822	2
0	17305	4300.556345181022	1
0	17312	4302.026727761782	2
0	17314	4303.188167082713	1
0	17321	4303.298968645802	2
0	17323	4304.608017762027	1
0	17332	4306.346174360355	0
0	17365	4312.732670069238	1
0	17367	4312.918415637382	2
0	17369	4314.47148196647	3
0	17370	4314.498271412097	2
0	17376	4314.709212963007	3
0	17380	4316.955088921562	2
0	17386	4319.478574154908	1
0	17391	4319.587309789232	0
0	17413	4325.106538132109	1
0	17414	4327.308797914056	0
0	17420	4327.412744814588	1
0	17422	4327.458420133023	0
0	17437	4330.260646319534	1
0	17438	4333.141298709536	0
0	17475	4345.639412140408	1
0	17477	4346.022735847637	2
0	17481	4348.176888290561	3
0	17482	4348.191678698143	2
0	17488	4349.047731294622	1
0	17493	4349.295149541762	0
0	17499	4349.456029433548	1
0	17501	4350.242266451943	0
0	17507	4350.96884232379	1
0	17508	4351.231940651582	0
0	17539	4357.177328311276	1
0	17544	4358.387155530287	0
0	17564	4364.023287708389	1
0	17567	4365.010179178687	0
0	17578	4367.024046215805	1
0	17580	4368.219807402167	0
0	17594	4369.621704593217	1
0	17595	4369.674633941252	0
0	17610	4372.81479256785	1
0	17613	4374.543961824939	0
0	17633	4377.912095111925	1
0	17634	4380.112105817375	0
0	17658	4391.525770445937	1
0	17660	4391.900793534271	2
0	17662	4392.068204711082	3
0	17667	4393.957018232747	4
0	17668	4394.137277168069	3
0	17674	4396.786288910373	2
0	17683	4397.472258867043	3
0	17684	4397.861245721752	2
0	17690	4399.404857480801	1
0	17696	4399.831163087978	0
0	17702	4399.842234544226	1
0	17703	4400.452453575949	0
0	17751	4406.705343867819	1
0	17754	4407.512987734112	0
0	17767	4410.18379201728	1
0	17769	4410.867160050426	2
0	17772	4411.559572876518	1
0	17777	4412.092486827578	0
0	17783	4412.161342753682	1
0	17786	4412.459859245492	0
0	17793	4412.696550278664	1
0	17794	4412.794850635502	0
0	17803	4414.463936083475	1
0	17805	4415.841637903308	2
0	17806	4416.120217853026	1
0	17816	4418.169976785899	0
0	17824	4419.053703108486	1
0	17827	4419.622608058184	0
0	17839	4420.573048105648	1
0	17841	4420.97180680122	2
0	17843	4421.094056718565	3
0	17844	4421.60334141627	2
0	17850	4421.768941634118	3
0	17851	4421.911303492913	2
0	17858	4422.654624904684	3
0	17859	4423.579315860506	2
0	17864	4424.120861162493	1
0	17870	4425.46616812371	2
0	17873	4426.766193806644	1
0	17878	4427.72720113919	0
0	17882	4427.870405721237	1
0	17884	4428.633096617747	2
0	17887	4428.990671324905	1
0	17893	4429.501052904697	2
0	17896	4432.253070060879	1
0	17900	4433.529202935665	2
0	17903	4434.654103306279	1
0	17908	4435.163678806728	0
0	17927	4441.438377002356	1
0	17930	4445.978493637119	0
0	17938	4447.454315453598	1
0	17939	4448.883388545329	0
0	17945	4448.887225772556	1
0	17949	4449.467853955604	0
0	17998	4462.446529065612	1
0	18000	4462.491640409881	2
0	18004	4463.899450031771	1
0	18009	4464.048531971123	0
0	18040	4474.830032207584	1
0	18041	4475.52392110348	0
0	18121	4497.894026553515	1
0	18128	4500.92179900615	0
0	18137	4501.394991253579	1
0	18138	4501.723130766872	0
0	18154	4502.348507867804	1
0	18159	4504.101520429805	0
0	18178	4507.959211710199	1
0	18179	4509.942402105403	0
0	18201	4514.251785788229	1
0	18202	4514.454266637681	0
0	18208	4514.456949598333	1
0	18210	4515.594793376833	0
0	18253	4533.190316428028	1
0	18254	4533.207904537639	0
0	18277	4541.069434336796	1
0	18280	4543.253855150179	0
0	18307	4553.818524784772	1
0	18311	4556.112426477753	0
0	18323	4558.145797742751	1
0	18324	4558.351206031811	0
0	18347	4569.575648175571	1
0	18351	4571.660112154702	2
0	18352	4571.779055467643	1
0	18357	4572.5789835935	0
0	18377	4578.745875858491	1
0	18379	4579.048789105117	2
0	18383	4581.91519464203	3
0	18387	4582.688533588034	4
0	18388	4583.620593220534	3
0	18393	4584.010458997705	2
0	18399	4584.5214412081	3
0	18402	4585.808542560983	4
0	18405	4586.230615473281	5
0	18406	4587.328516507434	4
0	18412	4588.390219562854	3
0	18418	4588.677079735381	4
0	18419	4589.179600856108	3
0	18424	4590.268818888414	2
0	18432	4592.826625692169	1
0	18437	4593.908191949795	0
0	18461	4600.161115728554	1
0	18465	4601.289395879964	0
0	18471	4601.405323077811	1
0	18474	4601.465698923154	0
0	18518	4613.650008738716	1
0	18520	4614.226895427739	2
0	18521	4614.677304321883	1
0	18526	4615.009689956692	0
0	18532	4615.19774861673	1
0	18536	4618.809295456875	2
0	18537	4619.183703262912	1
0	18545	4621.277721493915	0
0	18561	4623.412245000379	1
0	18562	4623.648953269701	0
0	18574	4624.727932498378	1
0	18577	4625.033494369615	2
0	18585	4628.289998073542	1
0	18594	4629.235744955558	0
0	18610	4630.843876816368	1
0	18612	4630.910127749644	2
0	18614	4631.635496838746	1
0	18621	4633.291215667427	0
0	18640	4636.93541498172	1
0	18642	4638.018943538446	2
0	18643	4638.435257128811	1
0	18648	4638.436458107948	0
0	18666	4642.084252612904	1
0	18674	4646.337864684956	0
0	18697	4651.216892784296	1
0	18701	4651.695104766573	2
0	18703	4651.876788838909	3
0	18704	4652.254946130131	2
0	18710	4654.339208718088	1
0	18716	4656.288328623825	0
0	18755	4664.609730199141	1
0	18758	4665.504712891028	0
0	18776	4669.846727736462	1
0	18780	4669.908395232957	2
0	18783	4671.65431322257	3
0	18787	4674.254587525796	4
0	18789	4675.132160539694	5
0	18790	4675.671395278288	4
0	18796	4675.831222855166	5
0	18798	4675.921396277381	6
0	18800	4676.143590423081	7
0	18804	4676.999824854314	6
0	18810	4678.096150333482	5
0	18816	4679.702035725968	4
0	18821	4679.887748284216	3
0	18828	4680.38763651388	4
0	18829	4680.465489920373	3
0	18834	4680.729238710087	2
0	18839	4681.247704808795	1
0	18845	4682.512782290868	2
0	18847	4683.176460096562	3
0	18850	4684.120664134109	2
0	18855	4684.684709495836	1
0	18863	4689.192741862981	0
0	18878	4691.56794402353	1
0	18880	4691.928539246246	2
0	18882	4691.995355086913	3
0	18885	4692.952832242568	2
0	18890	4693.13861876599	1
0	18895	4693.939743827774	0
0	18902	4694.4745870162	1
0	18903	4694.624799083483	0
0	18917	4696.155568737333	1
0	18920	4697.276377623525	0
0	18973	4708.250028926253	1
0	18975	4708.986951360208	2
0	18980	4712.20480135859	3
0	18982	4713.564688284774	4
0	18984	4714.433938394771	5
0	18985	4714.941442078112	4
0	18993	4715.470554706089	5
0	18994	4715.686758582235	4
0	18999	4716.333171561314	3
0	19005	4716.595188361579	2
0	19015	4719.870565191957	3
0	19016	4719.938909538242	2
0	19026	4722.911257857285	1
0	19032	4723.590805416182	0
0	19050	4728.629771833043	1
0	19052	4729.444417341369	2
0	19053	4729.918120796784	1
0	19058	4729.945840161583	0
0	19084	4735.161470612298	1
0	19086	4736.069336018922	2
0	19088	4736.150511918111	3
0	19090	4736.213366039713	4
0	19094	4738.52058988231	5
0	19095	4738.931340815247	4
0	19101	4740.16292400974	5
0	19102	4740.899969233494	4
0	19108	4740.98784132097	5
0	19110	4741.166612390723	6
0	19116	4742.290341667574	7
0	19117	4742.939983564041	6
0	19123	4743.713487942419	5
0	19129	4744.726447946939	4
0	19136	4746.181565998332	3
0	19144	4748.049779179893	2
0	19151	4748.94737366824	1
0	19156	4749.091041876281	0
0	19179	4757.502405030087	1
0	19180	4757.638414438974	0
0	19193	4758.894439509606	1
0	19195	4761.697150169538	2
0	19197	4762.021987006271	3
0	19199	4762.26835150576	4
0	19200	4762.380229007087	3
0	19205	4762.716033975226	2
0	19215	4766.42199148733	1
0	19221	4766.940043503067	2
0	19222	4767.400308647721	1
0	19228	4768.115103255323	0
0	19236	4769.168824056546	1
0	19237	4769.746028608115	0
0	19255	4771.820057286229	1
0	19258	4772.558385024312	0
0	19275	4773.721319142897	1
0	19276	4774.166060137593	0
0	19283	4774.773494727682	1
0	19284	4776.178254195485	0
0	19290	4776.785280166832	1
0	19291	4776.797865283391	0
0	19297	4776.949136174227	1
0	19302	4779.437270979447	2
0	19303	4779.44239209742	1
0	19308	4779.595020118999	0
0	19346	4787.063702053591	1
0	19348	4787.608912386967	2
0	19349	4788.648016481574	1
0	19354	4788.719941390248	0
0	19370	4796.352232943359	1
0	19373	4797.387209347773	0
0	19384	4798.369636181421	1
0	19385	4798.795832333068	0
0	19411	4809.881641719752	1
0	19412	4810.195853042224	0
0	19440	4825.241529455779	1
0	19443	4825.569031076435	0
0	19469	4827.306493509222	1
0	19472	4828.201041537103	2
0	19473	4828.646692112391	1
0	19478	4829.168386901101	0
0	19484	4829.192640114326	1
0	19487	4829.680074863885	0
0	19499	4830.118450994717	1
0	19504	4830.962138278075	2
0	19507	4831.585813125888	3
0	19508	4832.745059725369	2
0	19514	4834.307036893801	3
0	19515	4835.207262620985	2
0	19519	4835.548274716504	3
0	19527	4838.491402312083	4
0	19528	4838.636046366421	3
0	19533	4840.568701488872	2
0	19537	4840.759716205745	3
0	19540	4842.441354333522	2
0	19550	4844.666014020202	1
0	19555	4846.150656613367	0
0	19571	4850.159829834301	1
0	19577	4852.782570489453	0
0	19594	4856.316568685373	1
0	19595	4857.310647322598	0
0	19612	4861.155731449513	1
0	19616	4861.968678139563	2
0	19617	4862.571711384648	1
0	19623	4863.592463885532	0
0	19662	4870.456835598761	1
0	19663	4870.589507928062	0
0	19698	4881.666247445411	1
0	19700	4881.905913488569	2
0	19702	4883.885266343835	3
0	19704	4884.424164935173	4
0	19706	4884.855682939819	5
0	19708	4885.840839060127	6
0	19710	4887.057756077204	7
0	19714	4887.816617249585	8
0	19715	4887.850128590722	7
0	19721	4888.81795245494	6
0	19727	4890.697419408777	5
0	19735	4892.762437645793	6
0	19736	4893.837888315612	5
0	19744	4895.157727493804	4
0	19750	4895.816998893226	3
0	19755	4895.851071081658	2
0	19762	4899.79115195743	1
0	19769	4901.365155733877	0
0	19776	4902.32033952501	1
0	19778	4902.734448278579	0
0	19786	4905.820351107188	1
0	19790	4905.971484229612	2
0	19791	4907.508026077659	1
0	19797	4907.558515517095	2
0	19799	4909.296267289942	1
0	19804	4909.708661391804	0
0	19811	4913.982413698041	1
0	19816	4916.578494614991	0
0	19854	4924.261403708283	1
0	19855	4925.055789627515	0
0	19893	4932.979885776545	1
0	19897	4935.520098200439	2
0	19898	4936.525447551966	1
0	19904	4937.343898061582	2
0	19905	4938.415850260706	1
0	19912	4939.652860451104	0
0	19918	4939.879269262331	1
0	19920	4940.978913738655	2
0	19922	4941.359472999813	3
0	19923	4941.614685021027	2
0	19929	4941.790543163598	3
0	19930	4942.328278820577	2
0	19936	4942.456137989411	3
0	19937	4942.608609788193	2
0	19944	4944.420855972766	1
0	19949	4944.880282132405	0
0	19997	4954.858124274362	1
0	19998	4955.327451365016	0
0	20012	4957.745395200038	1
0	20016	4958.401528532302	2
0	20018	4959.664839990543	1
0	20024	4960.478874655413	2
0	20026	4961.139130603163	3
0	20027	4961.285400497653	2
0	20033	4962.172576117576	3
0	20035	4962.565885946912	4
0	20036	4963.081737653365	3
0	20041	4963.193473414159	2
0	20048	4964.599689821188	3
0	20051	4965.40455978407	2
0	20059	4966.616828530697	3
0	20061	4966.839873862038	2
0	20068	4967.440204627603	1
0	20073	4967.514538815869	0
0	20122	4978.475313257123	1
0	20128	4984.152718979983	2
0	20129	4984.447751389135	1
0	20135	4985.146774155862	0
0	20147	4990.659042772307	1
0	20148	4990.961063286074	0
0	20155	4991.215140690511	1
0	20156	4992.605478676475	0
0	20162	4992.740306069762	1
0	20164	4993.048974223192	0
0	20215	4999.077027684033	1
0	20216	5004.256957858613	0
0	20239	5017.718028350973	1
0	20241	5018.675980883164	2
0	20243	5018.805844681385	3
0	20244	5018.965869933824	2
0	20249	5019.198419486861	1
0	20255	5019.252313063447	0
0	20271	5024.206345329213	1
0	20273	5025.92082633001	2
0	20274	5026.975310904085	1
0	20279	5026.97552836791	0
0	20287	5027.837504946093	1
0	20289	5027.939115895411	2
0	20292	5028.890788364797	1
0	20297	5029.459493149553	0
0	20309	5030.267897839893	1
0	20311	5031.086476977088	0
0	20345	5037.556776133565	1
0	20348	5037.961685017228	0
0	20374	5044.09601829913	1
0	20375	5044.12766943139	0
0	20387	5046.101248654966	1
0	20388	5046.71855202094	0
0	20403	5050.085682970092	1
0	20406	5051.408733444538	0
0	20417	5051.943428697305	1
0	20420	5052.456767746075	2
0	20422	5052.477834763489	3
0	20424	5053.472167260088	4
0	20425	5053.612225831205	3
0	20435	5054.882612843496	2
0	20441	5056.534452746412	1
0	20448	5057.667415054335	2
0	20449	5057.722472295131	1
0	20454	5058.308449569038	0
0	20470	5060.00980455446	1
0	20471	5061.542354866766	0
0	20478	5062.023889395762	1
0	20479	5062.159242307124	0
0	20506	5064.843046766171	1
0	20510	5067.311450574921	0
0	20522	5067.901112364171	1
0	20524	5068.146679650287	2
0	20527	5070.517314827917	1
0	20533	5070.554472384164	2
0	20535	5071.309807160089	1
0	20540	5071.918620712185	0
0	20551	5072.653631467341	1
0	20555	5072.941379629964	2
0	20558	5074.964359123711	1
0	20563	5075.242291134427	0
0	20592	5084.666858661317	1
0	20595	5087.452190216752	0
0	20601	5089.111152767308	1
0	20603	5089.182047277065	2
0	20604	5089.254016276624	1
0	20610	5089.597120800996	2
0	20611	5089.708605872783	1
0	20618	5090.354344872548	2
0	20619	5090.780286538348	1
0	20627	5091.920191230108	0
0	20638	5093.04120562586	1
0	20640	5093.950003971705	2
0	20642	5093.984758753813	3
0	20645	5094.423635691434	2
0	20650	5095.209873752936	1
0	20657	5095.668347811048	2
0	20666	5097.542873576801	1
0	20672	5101.295678602857	0
0	20683	5102.960681425724	1
0	20686	5104.525876636078	2
0	20687	5104.872238624913	1
0	20691	5105.099143102872	2
0	20693	5105.329519687131	3
0	20696	5105.922557515843	2
0	20700	5106.785963862015	3
0	20704	5107.662877538265	4
0	20707	5110.631026903342	3
0	20712	5112.483609083216	2
0	20716	5112.582919876269	3
0	20720	5113.845192222612	4
0	20725	5115.704944831971	3
0	20729	5115.827555337009	4
0	20731	5117.365235568722	5
0	20738	5122.716897601223	4
0	20747	5125.495378963484	3
0	20755	5126.344504040238	2
0	20760	5126.866226523418	1
0	20765	5127.457580661969	0
0	20771	5127.845182973288	1
0	20773	5127.986654628721	2
0	20776	5130.319953525674	1
0	20781	5131.913944685258	0
0	20785	5131.963936363556	1
0	20787	5132.500684921198	2
0	20789	5135.262253606968	3
0	20791	5135.526901621477	4
0	20795	5136.624201379876	5
0	20797	5136.887811888493	6
0	20798	5138.271927569869	5
0	20803	5138.826396129487	4
0	20813	5144.774284340565	3
0	20818	5145.115252386249	2
0	20825	5145.945441101981	3
0	20828	5146.431952030936	2
0	20837	5149.597627207543	1
0	20843	5151.802845809655	2
0	20844	5152.662003511499	1
0	20851	5154.301694689669	2
0	20852	5154.88742770973	1
0	20857	5155.009296172738	0
0	20872	5157.608227658352	1
0	20874	5158.229747200986	2
0	20875	5158.879147886393	1
0	20880	5159.346037077982	0
0	20903	5161.421320572393	1
0	20905	5164.309522895743	0
0	20943	5173.790803036541	1
0	20944	5174.778656919529	0
0	20950	5175.367230884274	1
0	20953	5176.611987378435	0
0	20975	5178.90361550718	1
0	20979	5179.285235907335	2
0	20983	5181.71954373941	3
0	20984	5183.238901107261	2
0	20991	5184.356148147707	3
0	20992	5184.502640479816	2
0	20999	5186.03893355106	3
0	21001	5186.388270526684	4
0	21002	5186.521318969421	3
0	21007	5186.816381269742	2
0	21013	5186.911764482674	1
0	21019	5187.346162093491	0
0	21031	5189.202609932362	1
0	21034	5189.61522147201	2
0	21035	5189.947765400881	1
0	21040	5190.086446761793	0
0	21060	5192.588391650617	1
0	21062	5193.640128381771	2
0	21064	5194.255744956433	3
0	21066	5194.362759548613	4
0	21069	5195.270899706717	3
0	21074	5195.317804018555	2
0	21079	5196.905694373925	1
0	21087	5199.157067290899	0
0	21110	5202.54777124915	1
0	21111	5202.866964129941	0
0	21124	5203.344572164476	1
0	21128	5205.980546583888	2
0	21134	5207.891215170668	3
0	21135	5207.901344387157	2
0	21141	5210.464613613927	1
0	21146	5211.22794178271	0
0	21222	5228.518701433171	1
0	21225	5230.354271875418	0
0	21256	5236.705117014708	1
0	21261	5237.909364662055	0
0	21282	5242.245577286551	1
0	21283	5242.423694325107	0
0	21289	5243.431931370679	1
0	21294	5245.25278657921	0
0	21329	5251.374019124524	1
0	21330	5252.359103605636	0
0	21336	5252.889434419855	1
0	21338	5253.547091659236	0
0	21369	5258.192749393229	1
0	21371	5258.6775197559	0
0	21389	5263.337991424624	1
0	21390	5266.878272960462	0
0	21401	5267.377269911063	1
0	21403	5267.426065736414	2
0	21405	5267.559099762409	3
0	21406	5269.19910617553	2
0	21414	5270.097079111949	1
0	21420	5270.414111522367	2
0	21422	5270.884563396896	3
0	21424	5271.554880763532	4
0	21427	5272.352461319003	5
0	21428	5273.175812054071	4
0	21436	5279.794686894938	3
0	21441	5280.857721414212	2
0	21448	5281.949791400057	3
0	21451	5284.119071351214	4
0	21452	5284.124693024494	3
0	21457	5284.46020122509	2
0	21462	5284.665297639475	1
0	21471	5284.993399531633	2
0	21473	5285.017457317028	3
0	21475	5288.790971216764	4
0	21477	5288.84529065281	5
0	21479	5289.186688491447	6
0	21480	5289.452730057745	5
0	21485	5289.505944598427	4
0	21491	5293.918161179509	3
0	21497	5294.190785031058	4
0	21501	5295.462395884886	5
0	21502	5295.985454530371	4
0	21509	5296.511280090245	3
0	21515	5296.751493541473	4
0	21519	5297.507988850291	3
0	21524	5297.591642722859	2
0	21529	5297.665787964558	1
0	21535	5299.241900783997	0
0	21541	5299.798535301275	1
0	21542	5299.951667398007	0
0	21550	5303.251637262091	1
0	21553	5304.708261567726	0
0	21564	5307.026907965811	1
0	21565	5307.231530748416	0
0	21569	5307.51000296224	1
0	21572	5308.743824107689	0
0	21584	5309.512447974716	1
0	21588	5310.519461416992	2
0	21590	5311.017779448057	1
0	21597	5311.464070306857	2
0	21598	5311.540643064667	1
0	21606	5313.091116716579	0
0	21625	5315.237884842927	1
0	21629	5317.747840233724	2
0	21630	5317.956897233435	1
0	21635	5318.353841383166	0
0	21646	5321.02065554893	1
0	21654	5324.154107334808	2
0	21655	5324.365717301022	1
0	21661	5324.634341249321	2
0	21662	5325.669149098407	1
0	21667	5326.480113410753	0
0	21671	5330.254094149821	1
0	21674	5332.129244419383	0
0	21682	5333.258637484694	1
0	21683	5334.457348078726	0
0	21687	5337.090074721575	1
0	21689	5337.125183626544	2
0	21693	5337.592856535878	1
0	21699	5339.09209047014	2
0	21701	5341.208643531446	1
0	21708	5342.125571349744	0
0	21730	5345.857614047796	1
0	21732	5346.45775324738	2
0	21735	5349.008199726829	1
0	21740	5349.085524341251	0
0	21747	5349.421637239054	1
0	21752	5352.457513132214	2
0	21754	5353.29729848997	1
0	21759	5353.32982860129	0
0	21789	5358.074984239757	1
0	21791	5358.111408707748	2
0	21793	5358.683531072687	3
0	21799	5360.242341428864	4
0	21801	5361.267529922092	5
0	21802	5361.564364445443	4
0	21809	5363.411874228972	3
0	21815	5363.672781459534	4
0	21816	5363.721479249341	3
0	21822	5363.774446226112	2
0	21828	5364.11981989097	3
0	21832	5366.352527158148	2
0	21839	5368.375308384187	1
0	21844	5368.859388916417	0
0	21872	5373.647856405181	1
0	21874	5374.258992735387	0
0	21894	5377.916924107962	1
0	21897	5380.18764287202	0
0	21906	5381.084999618731	1
0	21907	5381.172719461954	0
0	21945	5394.813102737373	1
0	21946	5395.386614830737	0
0	21990	5408.026734277533	1
0	21995	5409.151329386944	2
0	21998	5410.511598049295	1
0	22004	5410.78577241255	0
0	22018	5417.210374942148	1
0	22019	5417.243707872057	0
0	22028	5417.952877981005	1
0	22032	5420.39353644296	0
0	22038	5420.493184560137	1
0	22042	5421.93197106871	0
0	22053	5422.490782684267	1
0	22055	5422.60639995343	2
0	22059	5422.706152857231	3
0	22060	5422.880857156894	2
0	22068	5423.663545516567	3
0	22070	5423.923370336706	4
0	22071	5424.019781369372	3
0	22079	5425.656240585587	2
0	22085	5427.91953005344	3
0	22086	5429.092147599402	2
0	22090	5430.110863593795	3
0	22092	5430.455468193553	4
0	22099	5433.83341136138	5
0	22101	5434.319720582547	4
0	22107	5434.480470695055	5
0	22108	5434.983816553564	4
0	22114	5435.57981262087	5
0	22117	5436.212979135936	4
0	22123	5437.234106737212	5
0	22124	5438.088755129381	4
0	22129	5439.307948654853	3
0	22135	5439.640845701117	4
0	22139	5440.306230472279	5
0	22141	5440.343997671394	6
0	22142	5441.523970165969	5
0	22146	5442.885893727779	6
0	22151	5444.707156639052	5
0	22157	5446.274947850732	4
0	22162	5446.866649446307	3
0	22167	5448.893444491649	2
0	22171	5449.272273098481	3
0	22176	5451.030869989764	2
0	22183	5452.867683749863	3
0	22185	5452.977945894826	4
0	22186	5453.557055987717	3
0	22196	5459.414588347668	2
0	22202	5461.23155381982	1
0	22207	5461.332485998146	0
0	22211	5461.574061061386	1
0	22219	5466.22102343582	0
0	22230	5466.561235312562	1
0	22232	5466.956508037872	2
0	22235	5467.793601880153	3
0	22237	5468.63834769885	4
0	22238	5469.371823190601	3
0	22246	5470.36600674274	4
0	22249	5473.373984299609	3
0	22256	5475.463428347985	2
0	22264	5476.894092275496	1
0	22270	5477.22244986661	0
0	22296	5479.994427340126	1
0	22299	5481.399991759558	0
0	22314	5485.272961416539	1
0	22315	5485.305698361555	0
0	22334	5487.542275288613	1
0	22339	5489.731188163239	2
0	22340	5491.076198290294	1
0	22347	5492.618962702727	2
0	22348	5492.777003523991	1
0	22354	5494.308561681407	0
0	22394	5500.113848060601	1
0	22396	5501.696443929238	2
0	22398	5501.784830764131	3
[...]
4	115700	27876.1358905086	40.073568859311
4	115710	27877.145735015011	36.850446398341
4	115717	27879.22391629273	34.534353928243
4	115724	27881.365178744014	31.065212319325
4	115732	27884.439692812042	33.577983786618
4	115744	27890.80343969029	35.20699674514
4	115811	27899.72650465649	35.400849127753
4	115817	27900.443281331341	35.97502215361
4	115828	27904.535921852692	39.513197600859
4	115851	27912.099597843678	42.535362565864
4	115870	27920.809994054357	49.80718060111
4	115880	27922.398270121425	45.011853030603
4	115890	27928.132166716288	43.777594291454
4	115902	27929.524922350199	34.711265917729
4	115933	27938.241121524154	43.183120838742
4	115966	27942.500967704709	42.930930719199
4	115973	27943.037665518058	39.786550372963
4	115983	27944.710215152699	41.247796899774
4	115989	27945.793875303995	39.265786157824
4	115994	27946.203198211274	36.542004801454
4	116002	27947.51034299532	36.43779620829
4	116015	27950.133256067601	20.080879951748
4	116024	27950.534955884924	20.29498801352
4	116046	27952.977871908181	21.30305538659
4	116058	27953.607760809602	16.95326964594
4	116069	27958.614348439503	18.820248605223
4	116093	27962.273491094509	20.534625969794
4	116123	27967.255362698041	16.742954263192
4	116159	27971.378712974211	20.656856615011
4	116169	27973.108902399378	19.437845671665
4	116175	27973.339346717671	11.443206152058
4	116184	27975.211832388924	5.513551898816
4	116199	27977.015958491664	6.475470635661
4	116219	27982.373223847964	11.220651392764
4	116224	27983.959586600203	9.98406836259
4	116228	27985.204420451154	6.914495884921
4	116243	27987.845515783671	1.661576396904
4	116296	28001.025019140228	7.679999790087
4	116327	28009.49725518218	14.475272804106
4	116359	28011.390209891013	15.133087226278
4	116367	28012.899775318394	5.423057595802
4	116380	28014.970670238302	4.681802133791
4	116394	28016.80878154844	1.781376922243
4	116410	28020.815159845374	3.987428167159
4	116415	28021.846815823601	3.906214321923
4	116423	28024.066191552227	4.133609800133
4	116428	28024.119447167253	3.956513717296
4	116437	28026.03669695723	2.186313077388
4	116445	28029.289395232544	5.088756990692
4	116456	28033.818487183078	9.108111926687
4	116482	28036.781885741177	2.431213962342
4	116487	28038.097974432599	3.188645704076
4	116524	28046.916138243645	0.923395070796
4	116539	28049.867558408847	3.812847775647
4	116543	28050.653183872127	3.083150406868
4	116553	28051.48381482368	0.578852971488
4	116560	28055.321743872249	4.250009902918
4	116581	28062.020180830403	6.854470520486
4	116639	28074.515906265572	18.159144674107
4	116654	28079.834150048233	20.195401085464
4	116675	28081.867113257282	18.723252789569
4	116684	28082.79380923054	4.831378610614
4	116698	28088.250798084791	6.277864212599
4	116772	28102.544376434502	20.294970533252
4	116803	28107.237919552333	23.798085395279
4	116811	28111.742745963062	21.886623177611
4	116834	28115.773584972468	24.239470366156
4	116861	28122.783783344749	17.690623422285
4	116901	28130.541678948036	25.246262509214
4	116924	28135.911648701887	29.446022186711
4	116929	28139.234327085483	26.992694708574
4	116942	28143.510160895333	20.881642651074
4	116976	28150.211105450946	19.455648431416
4	116981	28150.386560339211	19.526566279805
4	116989	28152.597904165183	12.742211636622
4	116998	28153.682417800668	7.154633885755
4	117028	28161.537750451756	0.032384785991
4	117050	28167.195818602234	2.338599355152
4	117054	28167.210597729169	0.656914869498
4	117073	28171.633485218467	0.981972070894
4	117105	28181.00921990466	2.056529446998
4	117138	28188.080548298242	1.822884759756
4	117154	28191.904292947146	3.308379363466
4	117224	28206.717128869147	3.374265073599
4	117233	28208.035031198543	2.722672564491
4	117242	28210.754716999954	4.546087112927
4	117285	28219.598497132688	3.625200177399
4	117300	28225.953502898414	8.588554074176
4	117321	28230.276206265313	10.355377404039
4	117325	28232.392905121402	5.060628122116
4	117336	28236.172245656419	0.966375105546
4	117354	28240.152481762726	0.506928757113
4	117390	28250.506044951597	2.990482332542
4	117401	28254.524359591505	5.869957838515
4	117415	28259.982056156739	5.283564401561
4	117427	28262.920793248266	6.471549240354
4	117431	28263.088146340781	3.734482624065
4	117473	28272.907219797373	3.898260315966
4	117480	28273.973204555155	0.418396474442
4	117506	28281.071988084473	1.246544744907
4	117564	28296.831279521897	2.216485021564
4	117578	28304.787750351961	0.682578782914
4	117587	28305.649122519217	1.237774705649
4	117660	28319.227560590182	6.748137871516
4	117665	28320.004904966935	6.136628962733
4	117672	28321.458254299111	7.239946530734
4	117719	28331.613641042787	16.918797268844
4	117756	28341.437010086677	25.20836364998
4	117778	28344.287125404926	25.576196735607
4	117785	28348.814241199725	29.733840135942
4	117795	28349.254784983145	25.758749250609
4	117803	28351.766911068595	27.760558716708
4	117814	28353.372756362736	22.409036333498
4	117825	28356.685541003721	13.88131006127
4	117843	28358.621122630086	0.300959452775
4	117871	28368.99882913935	0.347573060997
4	117875	28370.113899161643	1.304667252626
4	117891	28374.37177072783	0.349065225798
4	117898	28374.519565957151	0.141054673024
4	117908	28378.47793942241	3.207539413931
4	117915	28380.470876498237	2.897229267122
4	117931	28386.210871945173	3.244426706729
4	117952	28387.132183872613	0.867258160334
4	117990	28393.077288752317	2.446303870992
4	118001	28394.282862464824	2.728474986644
4	118035	28406.489927119652	1.466332959009
4	118039	28406.647415609419	0.827497948702
4	118061	28417.342817482988	3.92991691488
4	118071	28419.429886440668	3.894469291646
4	118123	28433.82401945571	3.679948535141
4	118134	28436.873889141102	5.769963835325
4	118189	28450.730410775769	3.781487307882
4	118196	28451.009205465132	3.591695109969
4	118205	28452.289913851443	2.66389862625
4	118230	28455.487094264257	4.57913336474
4	118239	28457.331205697811	2.539410511364
4	118267	28459.049357848354	0.196305915799
4	118284	28464.543833111232	3.407131685686
4	118290	28466.57313259426	5.207865002871
4	118294	28466.675741948721	2.996824342325
4	118343	28475.538593198167	7.307715351167
4	118361	28478.249928346953	9.810304890241
4	118366	28479.631474593365	4.782670255015
4	118377	28485.374069849389	9.461334062509
4	118410	28492.295742269491	9.978912358618
4	118429	28496.913106666032	12.997997136079
4	118441	28499.574953746444	8.38687251677
4	118458	28501.924096606465	1.801297151327
4	118482	28507.730759020017	2.194979891879
4	118494	28511.842585145459	3.195664098245
4	118553	28530.466031609137	2.40674646662
4	118575	28535.830486833686	3.38400783745
4	118605	28541.611125468114	9.082138892992
4	118667	28551.441527477693	17.946455514586
4	118699	28557.363950886521	18.028656919851
4	118703	28557.734493178405	3.829365736272
4	118784	28576.325461218518	7.483265884487
4	118788	28576.386892561201	2.475937618663
4	118795	28577.096724655624	0.339565241233
4	118867	28587.708303234851	1.499643543336
4	118877	28590.122861058631	3.591396021697
4	118890	28596.63150848345	5.357196064118
4	118931	28601.409692579774	3.659889416885
4	118953	28603.911353092116	4.530794382614
4	118969	28611.768270442199	9.607362225549
4	118989	28614.500426470274	11.845724276296
4	119001	28616.317395713811	12.150219163979
4	119021	28628.586845141437	23.787587066727
4	119052	28631.508484069073	26.63305268374
4	119079	28637.634646936462	21.749130732875
4	119084	28639.967182247264	20.139363570699
4	119091	28645.672883237305	24.938160127579
4	119107	28646.830190240575	22.697871829739
4	119196	28661.732439527034	13.419821992779
4	119206	28663.632305495159	8.102499002775
4	119219	28666.850118077669	11.280522931418
4	119243	28673.389507439	11.593702789391
4	119263	28675.663550327241	1.559758052807
4	119359	28697.324210741807	19.01285166217
4	119369	28699.977012604129	16.636798358767
4	119387	28705.866240876834	9.754666220582
4	119394	28706.439762500971	7.266873810513
4	119412	28709.311804987286	7.702008225751
4	119419	28710.872607879489	7.334368648417
4	119431	28713.16245383181	8.026317782301
4	119461	28718.44521827511	1.619706353769
4	119466	28718.451109278837	1.61952771955
4	119470	28719.652793617924	1.505053380191
4	119488	28724.448643245711	3.166183736015
4	119502	28727.308336783097	2.043923816032
4	119568	28739.309920430955	11.862542009328
4	119575	28740.799850696729	11.816759968301
4	119580	28741.388248032671	11.036424996753
4	119591	28748.839213897157	13.166690360156
4	119602	28754.248045677039	18.249207070151
4	119607	28754.823462875945	18.6146420631
4	119612	28755.753957423778	18.250366300697
4	119622	28759.338169579549	17.287891891877
4	119636	28760.404796346165	13.968266314735
4	119649	28763.02033646219	5.107742710522
4	119687	28772.72617192069	12.740814658437
4	119704	28776.958272139637	6.141071247825
4	119711	28777.277831064547	3.096638489824
4	119737	28780.534304737797	2.335621482913
4	119792	28796.354505931001	2.506160172898
4	119801	28798.190707405102	2.827294153998
4	119812	28799.373761404389	3.42411770775
4	119816	28800.333646785512	3.067814158495
4	119834	28806.61135709986	2.175639706347
4	119848	28811.361142944406	4.87707515273
4	119858	28812.371204367812	5.714494314583
4	119863	28813.194552208269	4.511050445712
4	119904	28826.645704700708	2.276282064624
4	119960	28844.835776627412	0.719458567036
4	119989	28859.46566246976	3.015799129391
4	120010	28864.598227736182	1.257327303383
4	120017	28865.60503224844	1.351793282606
4	120074	28874.336927086409	2.121819863782
4	120079	28874.56759528563	1.145789647988
4	120083	28875.120250356619	1.040192158479
4	120095	28876.775351329018	1.150815191948
4	120112	28878.921351951604	2.761682216724
4	120189	28897.441001897582	18.949961490245
4	120200	28898.500455750789	15.04448371548
4	120272	28909.917785498988	24.016900256145
4	120283	28915.678488160409	26.315185151832
4	120322	28927.249521337372	36.300771772833
4	120331	28929.43126621956	32.566076905491
4	120364	28932.73474150349	35.034573659797
4	120369	28934.031867046184	36.133162326779
4	120378	28936.913102521421	35.811707100029
4	120385	28938.498206305857	33.502315638027
4	120397	28941.552916832336	28.329915651347
4	120405	28944.662330125097	22.963020393319
4	120420	28949.40255616209	23.675961541572
4	120431	28950.752004047809	20.980341261002
4	120438	28952.3211688881	22.346507791848
4	120446	28953.765734307548	21.76156796084
4	120453	28955.833618317532	23.237525771066
4	120464	28958.54168343268	24.449703138202
4	120471	28961.69734268388	25.222334482519
4	120483	28962.664233860688	21.489554718073
4	120500	28967.847724672006	16.619695222482
4	120521	28971.29379506221	18.837306669229
4	120564	28980.12836705797	11.410291195342
4	120569	28980.258665985794	11.426579241638
4	120576	28980.966410081445	4.806203843336
4	120600	28983.001695904615	1.495666443655
4	120607	28984.634458646033	3.054568860346
4	120613	28987.792024933391	6.041467570985
4	120624	28989.480762791347	6.253556058824
4	120637	28991.753602023309	3.745639943521
4	120642	28991.884517057812	2.829119493822
4	120646	28995.777173487544	5.632785179304
4	120663	28998.379122778107	0.022841705755
4	120673	29001.01342402742	1.410798140776
4	120688	29004.722183636747	4.917472265189
4	120734	29015.46346563788	11.570710202824
4	120739	29015.525445235749	11.625841242052
4	120751	29017.72655694263	9.857560696681
4	120760	29019.233753474716	7.827951376374
4	120799	29026.629282474358	10.47124161531
4	120812	29028.842609560533	12.606296298929
4	120819	29031.491895221523	14.768643243496
4	120826	29032.380499728856	10.934078219567
4	120843	29038.026113640607	10.153780972012
4	120860	29040.581233536056	11.02692434187
4	120864	29043.712283439693	10.122316184591
4	120885	29051.199816359931	0.628556766813
4	120889	29051.253983881383	0.524998179314
4	120899	29058.430468741177	1.809109962838
4	120922	29060.889308167933	2.239058619525
4	120932	29062.292457070543	2.967652619006
4	120941	29063.256285022766	1.237039293017
4	120970	29070.230634254319	2.405079445609
4	121002	29078.686404636994	1.855181814997
4	121031	29086.181953761675	3.703641131551
4	121057	29096.56957102459	1.907474965481
4	121096	29102.559913228678	1.762670005338
4	121108	29107.37694887527	1.648373256618
4	121129	29112.321565443086	0.250501017636
4	121136	29115.49559691459	0.090955541924
4	121145	29118.242678970289	0.234571102445
4	121156	29126.957411713579	5.055187561147
4	121163	29127.63078574977	1.273079977979
4	121175	29129.287158914688	0.553064469993
4	121192	29135.763341158947	0.755667793846
4	121221	29140.921180311004	1.632969995198
4	121229	29142.467448012311	0.873516901629
4	121279	29159.875148716191	7.804105440539
4	121289	29160.939754857735	0.980510522009
4	121293	29161.19473030108	0.999064938223
4	121300	29167.157176364449	2.331020399765
4	121307	29169.707264205224	0.891406546471
4	121339	29177.868386030584	2.594981134284
4	121360	29179.973524641871	3.494952356576
4	121392	29187.317551876671	1.147843915745
4	121396	29187.355654277757	0.744891062994
4	121414	29191.674781643437	2.123193555994
4	121423	29194.48723279848	4.001456954
4	121427	29194.831021799846	1.199443271777
4	121491	29208.109150531651	3.026009934416
4	121506	29213.285022020286	6.666922719025
4	121527	29218.653060341941	9.499027980792
4	121569	29227.282470828486	14.959059072761
4	121575	29227.358899352082	15.009641123109
4	121582	29227.977946593038	5.65581136846
4	121612	29235.12540420593	12.740963044761
4	121634	29238.174571837735	4.36139358858
4	121655	29243.139604226082	2.874613860041
4	121662	29247.08653698987	5.400553846545
4	121672	29251.305787431712	2.82289345971
4	121722	29270.535276399873	3.652297778683
4	121733	29274.597545363808	7.506516769905
4	121756	29279.272367918406	1.413608126526
4	121767	29280.302758755254	0.940725191437
4	121771	29281.268207467897	1.547194529552
4	121778	29282.419093090474	1.136531751503
4	121792	29287.696403340456	4.359514170758
4	121820	29292.529005816137	3.623639847231
4	121882	29303.67574924476	2.39364187172
4	121889	29306.761259026618	2.920790611932
4	121930	29313.163687617503	1.888823039661
4	121934	29313.587793193896	1.459829865024
4	121975	29318.654011463563	0.426738397487
4	122104	29354.086563050857	32.670424782174
4	122109	29357.001480082744	28.544783323864
4	122119	29362.808167315815	31.493139769896
4	122149	29367.83109007635	35.095234097097
4	122156	29367.916722919272	23.616068581275
4	122169	29369.139004985379	23.811230555048
4	122175	29369.689429075513	5.077072956298
4	122180	29370.855882434844	3.803540859111
4	122187	29374.64821402362	6.205613061616
4	122195	29376.944339310419	3.926590219863
4	122199	29377.247355375475	0.538854262265
4	122217	29389.39453948389	9.881375001929
4	122243	29395.090257847502	14.08262297211
4	122262	29397.724908339272	15.914021651487
4	122277	29403.434357041369	19.011384277791
4	122288	29404.294052179841	12.626060255722
4	122294	29406.53720742529	11.527112485792
4	122301	29409.105387666568	11.412149451336
4	122313	29412.657104313673	13.879310109867
4	122341	29416.544785290556	16.364025298221
4	122429	29434.943174045765	33.536612343088
4	122442	29436.402866083418	23.35453304232
4	122452	29436.890098832455	23.730562276521
4	122457	29437.782284085826	21.106901945408
4	122468	29445.026894698721	27.969859204284
4	122478	29446.194043939295	28.923464296947
4	122486	29446.695305541044	20.581848288922
4	122493	29448.353388626832	21.689002920484
4	122499	29450.740472017014	23.817484977708
4	122504	29452.096159349734	22.051547397116
4	122519	29453.945436714047	20.412379946659
4	122558	29459.789454079389	13.361499348248
4	122564	29461.515901456639	8.317184329345
4	122569	29462.630027892295	6.825471935179
4	122574	29462.974833295578	6.475747917267
4	122579	29468.922506977484	9.960835598935
4	122589	29472.726260167127	13.083929923591
4	122603	29475.876344090881	4.044078566054
4	122639	29487.181828873382	1.291315233169
4	122683	29499.87732137254	0.828155435961
4	122687	29499.885086755208	0.376221144626
4	122701	29507.24099502175	4.547201474649
4	122706	29507.611498822893	2.25328519921
4	122713	29510.77404856593	4.848953313859
4	122733	29515.731969742744	4.005456352927
4	122775	29528.243278447	0.189185098
4	122790	29533.191261059234	0.887725245093
4	122800	29537.608343006642	1.968416674435
4	122814	29539.336843705929	1.329639992952
4	122837	29545.906031976152	4.9728742413
4	122874	29552.638136184501	0.284474106268
4	122926	29562.813846110048	0.969581067297
4	122930	29563.228969407915	1.169298074097
4	123004	29591.379082762052	3.038555387913
4	123008	29592.638358204557	3.90673508556
4	123015	29593.581387318639	0.449651548684
4	123075	29608.297561554331	12.227909935676
4	123092	29610.062649003332	8.71561582508
4	123098	29610.276190160917	8.254018026122
4	123107	29612.583367450928	7.549688895174
4	123112	29613.105928101904	5.861099449379
4	123117	29614.974195684576	5.920149088884
4	123121	29617.08062831561	6.639281080426
4	123128	29620.794907588985	2.283852087503
4	123142	29623.346955046884	1.952381329616
4	123161	29629.104816379741	0.698181270481
4	123170	29631.879383965545	3.132353614972
4	123184	29635.765485118125	5.549779272139
4	123248	29650.817070913353	20.462446594531
4	123256	29652.600523247149	17.864774863412
4	123261	29654.599344288078	19.517883676869
4	123267	29655.526382645413	18.416832121504
4	123271	29655.911408797546	5.617468185048
4	123296	29661.062930067603	0.814004170184
4	123345	29677.45526248382	2.236887616359
4	123385	29689.426421854848	4.385929020839
4	123403	29692.806020620421	5.718757931477
4	123410	29696.535560550037	7.523436371736
4	123422	29697.053805987492	7.112004162727
4	123436	29701.139284306975	10.956091276631
4	123447	29703.783059778859	11.411477120646
4	123494	29710.391046060959	10.094294112605
4	123535	29714.583432233014	9.005919904282
4	123549	29722.589686986674	8.987429263398
4	123586	29728.200418817496	13.797204223225
4	123596	29728.428493809786	4.345875063492
4	123600	29728.64655607705	4.033640510226
4	123615	29731.894991000361	3.224398828083
4	123638	29738.330615136396	3.111869222241
4	123687	29751.999244764015	14.68823234041
4	123692	29752.458833248565	11.862250160667
4	123696	29755.489532907746	6.640204647515
4	123706	29758.522308233926	2.791783524461
4	123719	29761.682706727664	2.551760982685
4	123732	29764.933853096512	0.842489215912
4	123801	29777.276016281365	7.526041486797
4	123826	29781.25517426009	1.777686839527
4	123834	29782.947022866406	0.166613696926
4	123886	29793.115761650317	1.154168642978
4	123912	29798.597284368881	0.603757881632
4	123940	29802.523264860318	3.091101751737
4	123958	29805.621301596499	0.618278779645
4	123977	29808.729927378453	0.461074331514
4	123987	29811.691837237287	0.895868501897
4	123997	29820.388358726175	2.921486927285
4	124024	29825.143587646713	2.939492855412
4	124033	29825.404110975544	2.386270644879
4	124041	29827.40917080067	0.351668286465
4	124088	29841.22931805462	3.442045243706
4	124098	29843.772918067608	5.849602657705
4	124118	29847.195419466192	2.413880327734
4	124125	29847.638926730625	2.654059203494
4	124136	29851.509694157693	3.908509073253
4	124198	29861.96734349919	11.773681245873
4	124203	29862.995359819918	4.577885146944
4	124214	29866.480416830721	6.475150695426
4	124404	29920.730452958428	60.171911616222
4	124409	29921.127541338305	50.68892709566
4	124414	29921.766281082791	47.853446581814
4	124422	29925.299406387547	42.263142568667
4	124435	29931.911243311823	45.371464852901
4	124504	29948.446262492421	58.663439242374
4	124510	29949.341359212428	56.701899923512
4	124517	29949.622820203448	53.404869127109
4	124528	29952.133450339425	46.102166425332
4	124605	29968.293007468007	60.175303147047
4	124610	29969.495932389992	58.001319887203
4	124623	29971.500445374238	59.876248679283
4	124636	29974.346673852067	58.863160933655
4	124648	29977.435578724319	60.75189856316
4	124653	29977.738139069225	34.183979440748
4	124660	29979.249605465005	33.186481450378
4	124671	29980.193820101944	30.780667663728
4	124676	29981.133185044882	27.144924084856
4	124685	29985.244419432125	28.808955609767
4	124700	29988.230626024895	18.37828916431
4	124705	29990.815701401196	20.356459641471
4	124716	29994.636036045482	24.131798226982

