version 2
run Second-n4-0-20191016-17:04:08-4624
attr configname Second-n4
attr datetime 20191016-17:04:08
attr experiment Second-n4
attr inifile omnetpp.ini
attr iterationvars ""
attr iterationvarsf ""
attr measurement ""
attr network org.omnetpp.queueing.Pizza
attr processid 4624
attr repetition 0
attr replication ""
attr resultdir results
attr runnumber 0
attr seedset 0
param **.PS.maxInventoriedPS 4
param **.U1.interArrivalTime exponential(3s)
param **.U2.interArrivalTime exponential(5s)
param **.PS.serviceTimeForInventoryU1 exponential(1.0s)
param **.PS.serviceTimeForInventoryU2 exponential(1.2s)
param **.PS.serviceTimeDirectU1 exponential(1.4s)
param **.PS.serviceTimeDirectU2 exponential(1.4s)
param **.PS.probabilityProducing 0.7
param **.CS.serviceTimeU1 exponential(1.1s)
param **.CS.serviceTimeU2 exponential(1.4s)

vector 0 Pizza.EntryQueueU1 queueLength:vector ETV
attr interpolationmode sample-hold
attr title "queue length, vector"
vector 1 Pizza.CS queueLength:vector ETV
attr interpolationmode sample-hold
attr title "queue length, vector"
vector 2 Pizza.EntryQueueU2 queueLength:vector ETV
attr interpolationmode sample-hold
attr title "queue length, vector"
vector 3 Pizza.sink lifeTime:vector ETV
attr interpolationmode none
attr title "lifetime of arrived jobs, vector"
attr unit s
vector 4 Pizza.sink lifeTimeU1:vector ETV
attr interpolationmode none
attr title "lifetime of arrived jobs, vector"
attr unit s
vector 5 Pizza.sink lifeTimeU2:vector ETV
attr interpolationmode none
attr title "lifetime of arrived jobs, vector"
attr unit s
0	0	0	0
0	10	6.155415787839	1
0	12	7.057929870225	0
0	32	9.269893689831	1
0	38	12.746473319963	0
0	51	14.695001482656	1
0	58	19.510720153841	2
0	59	19.997869816394	1
0	64	20.168072464944	0
0	97	24.068548732722	1
0	98	24.141821484227	0
0	143	34.915418104064	1
0	145	35.238323428532	2
0	151	38.411802668589	3
0	153	38.820380685587	2
0	159	38.939543304866	3
0	161	39.408951830379	2
0	166	39.59939203214	1
0	174	40.823368047839	2
0	175	40.834877163827	1
0	180	41.340892517341	0
0	198	45.343274047657	1
0	199	46.155565006348	0
0	220	47.481024827657	1
0	225	48.534553095801	2
0	226	49.613381008232	1
0	234	49.882216001122	0
0	240	50.139206223072	1
0	243	50.664588732061	0
0	256	52.361483074413	1
0	257	52.666476558695	0
0	299	59.398361908637	1
0	302	62.817185799236	2
0	303	63.092667701233	1
0	312	64.415130125204	0
0	318	64.606323982225	1
0	319	64.998924871482	0
0	333	66.121380225489	1
0	336	68.303839025136	0
0	349	69.997108031891	1
0	352	70.161744935792	0
0	362	71.0738896795	1
0	365	74.83635624797	0
0	372	75.22282729911	1
0	373	75.22600279344	0
0	388	77.754492716883	1
0	389	77.846503736683	0
0	401	79.448324220245	1
0	411	84.371016954025	2
0	412	84.448402426719	1
0	420	85.674053921856	2
0	422	85.78890266051	3
0	424	86.320879385945	4
0	428	88.450633167617	5
0	429	91.89033199865	4
0	435	92.980103534445	5
0	436	94.092517143729	4
0	441	94.258387254942	3
0	447	94.337230177686	2
0	453	95.001959156718	1
0	458	95.502362185989	0
0	482	97.920260838426	1
0	483	99.575759706209	0
0	497	102.655499004744	1
0	498	103.171388077509	0
0	533	108.234880209344	1
0	536	109.648172216066	0
0	542	109.758475577404	1
0	544	109.919717411745	0
0	567	120.135395049019	1
0	568	120.767239457085	0
0	589	131.375478890495	1
0	592	133.394617008353	0
0	598	134.766545528227	1
0	605	136.668335586409	2
0	607	136.730937242239	3
0	609	137.511991476881	4
0	610	138.498234787364	3
0	619	141.080862924936	2
0	625	141.773141843636	3
0	627	141.773307899321	4
0	629	142.171517647123	3
0	639	144.553857696085	2
0	644	145.280411083809	1
0	651	147.955771621964	2
0	653	148.519339388975	1
0	660	149.322589820738	0
0	696	154.32401158379	1
0	697	154.569052356613	0
0	722	158.202228478934	1
0	724	158.493731514035	2
0	725	159.628509009486	1
0	734	161.150157122252	0
0	752	165.515207396007	1
0	754	165.543056469141	2
0	758	168.868285731783	3
0	762	169.861015375311	4
0	765	172.509657010182	5
0	767	172.707933042262	6
0	768	174.390535513109	5
0	774	174.862672482586	6
0	778	178.563961674506	5
0	785	179.509707520051	6
0	787	180.300438858557	7
0	788	182.148774749409	6
0	795	185.269078962122	5
0	802	186.027456953755	4
0	807	186.265162792009	3
0	812	186.27982056132	2
0	816	186.633105181705	3
0	820	187.912712617814	4
0	822	188.393714901274	5
0	825	192.119217900986	4
0	829	192.941921690749	5
0	832	194.425561564601	4
0	836	195.005752126132	5
0	843	196.591153811037	6
0	845	196.968566127203	5
0	852	197.894916060324	4
0	857	199.605739856714	3
0	865	201.241912586488	2
0	870	201.532610097037	1
0	875	201.688948159569	0
0	901	208.434053613714	1
0	902	208.576263533518	0
0	927	212.789560484904	1
0	929	213.354894046688	0
0	935	213.701475162591	1
0	937	214.619609573213	0
0	958	215.627330172537	1
0	959	215.706309544848	0
0	990	220.151975867418	1
0	991	220.84810867134	0
0	1015	224.281337358314	1
0	1016	224.410913241132	0
0	1070	240.975097889538	1
0	1071	242.304731680682	0
0	1100	252.091193154882	1
0	1101	252.136090849567	0
0	1112	254.539248846776	1
0	1113	255.473427679204	0
0	1204	276.259460899471	1
0	1205	276.343288710977	0
0	1244	292.029558951158	1
0	1247	292.248713922622	2
0	1250	293.426295698233	1
0	1256	294.531722338199	0
0	1263	295.70070170141	1
0	1265	296.647834765934	0
0	1278	298.127640786808	1
0	1280	298.622576063027	0
0	1316	309.316912796061	1
0	1319	310.646915984065	2
0	1320	311.856041127819	1
0	1326	312.10647340334	2
0	1328	312.468967592128	3
0	1329	313.299200517012	2
0	1334	313.455953757228	1
0	1340	313.971719728419	0
0	1373	327.445350819199	1
0	1375	327.520135106382	2
0	1377	329.022860783667	1
0	1382	329.178393207673	0
0	1396	331.127807140509	1
0	1398	331.623686177471	2
0	1400	332.068428005088	1
0	1407	333.087730465415	0
0	1497	362.606112384742	1
0	1500	363.966078901604	0
0	1506	364.073437616602	1
0	1509	367.150708280327	0
0	1515	367.792531858451	1
0	1517	368.391244757258	0
0	1549	372.445649110019	1
0	1557	373.807420816771	0
0	1563	374.007985704631	1
0	1566	374.714203304145	2
0	1568	375.083091004809	3
0	1570	375.397227825097	4
0	1571	377.623754039425	3
0	1577	377.979371947639	4
0	1578	378.475722506153	3
0	1583	379.017408020168	2
0	1589	380.163436931471	1
0	1596	381.323204956636	2
0	1598	381.374251827825	3
0	1599	382.137577356868	2
0	1607	383.985887996958	1
0	1614	384.675657419258	2
0	1615	384.845960862373	1
0	1625	386.653649421099	0
0	1631	386.877267320326	1
0	1633	387.727570646364	0
0	1659	393.425408988182	1
0	1661	396.850255558745	2
0	1664	397.069056149243	1
0	1669	397.109425126552	0
0	1686	402.164315516706	1
0	1695	404.897752940917	2
0	1696	405.595677673193	1
0	1704	406.907155139484	0
0	1716	407.844467494145	1
0	1719	408.455823640771	2
0	1721	410.86983044721	1
0	1726	411.697877064453	0
0	1775	426.971939912338	1
0	1779	428.672045791887	2
0	1781	430.501332310461	3
0	1782	430.763252189376	2
0	1789	433.191389820217	3
0	1791	433.62105963466	4
0	1792	434.638718664728	3
0	1798	434.934278003	4
0	1799	435.101453104368	3
0	1804	436.285482609727	2
0	1809	436.327600287277	1
0	1814	436.804669704718	0
0	1822	438.103600985543	1
0	1824	438.863275667573	0
0	1854	445.02684465504	1
0	1855	445.58189747221	0
0	1864	446.730507734398	1
0	1870	449.403069140072	2
0	1873	450.889416013958	1
0	1882	452.829895200381	0
0	1917	463.535134542676	1
0	1923	465.18854838762	2
0	1925	465.309922254602	3
0	1926	465.463922171036	2
0	1932	465.684284821679	3
0	1934	466.138186166586	2
0	1939	466.283618926398	1
0	1945	467.235785602891	2
0	1946	467.659662453123	1
0	1952	468.220033814366	0
0	1958	468.766599796167	1
0	1960	468.984447970484	2
0	1962	469.411936821489	1
0	1968	470.837402419638	0
0	1975	471.929802687283	1
0	1977	472.808222189113	0
0	1985	473.489268521923	1
0	1986	473.71525108461	0
0	1999	476.28582874362	1
0	2001	476.612924334485	2
0	2002	478.001609565996	1
0	2008	480.051158439677	2
0	2010	480.140032696567	3
0	2012	480.143657602201	4
0	2017	482.440274849024	5
0	2020	483.803137580209	6
0	2021	484.322912513506	5
0	2028	484.437401105143	6
0	2030	486.397639131031	5
0	2035	486.674992775107	4
0	2044	487.522686941988	3
0	2050	488.31584458685	2
0	2055	488.823192942217	1
0	2061	489.725477834087	0
0	2067	489.987668764756	1
0	2071	491.816346307288	2
0	2072	492.104123271085	1
0	2078	492.315816889046	2
0	2081	493.476943325496	1
0	2087	494.017921248044	2
0	2088	494.079647006968	1
0	2093	494.271951207005	0
0	2107	498.189089229724	1
0	2108	498.401596518142	0
0	2163	507.924970140259	1
0	2165	508.484319042831	2
0	2167	508.73893327595	3
0	2168	508.892538834762	2
0	2173	510.291309837313	1
0	2178	510.729176942799	0
0	2205	518.501614760324	1
0	2206	518.589596981498	0
0	2259	535.201071091961	1
0	2260	536.214750647387	0
0	2277	538.574805255327	1
0	2279	539.084976521706	2
0	2280	539.375572003204	1
0	2285	539.461756784406	0
0	2325	546.488411118926	1
0	2326	546.982233844526	0
0	2341	551.460594680931	1
0	2344	552.861211213318	2
0	2345	553.236815232032	1
0	2350	553.611341242721	0
0	2365	556.171187121418	1
0	2368	557.086363135105	0
0	2374	557.546010810584	1
0	2377	558.33309022143	0
0	2415	567.634579918042	1
0	2416	567.710365053621	0
0	2428	570.678460180836	1
0	2430	570.830284808788	2
0	2431	571.187960895926	1
0	2436	572.568956634572	0
0	2442	573.01435345777	1
0	2444	573.240034504976	0
0	2450	573.584028730159	1
0	2451	574.108458759298	0
0	2457	575.506506944652	1
0	2461	576.603248189217	0
0	2472	579.471277263192	1
0	2479	582.452780992858	0
0	2522	591.780700883611	1
0	2523	593.142336840991	0
0	2546	601.313100295097	1
0	2547	601.32061130089	0
0	2553	602.375696137355	1
0	2555	602.51701364982	2
0	2556	602.768006955854	1
0	2564	603.577379615567	0
0	2575	606.417881075917	1
0	2579	610.081778913228	0
0	2585	610.412094127254	1
0	2586	610.514609549893	0
0	2605	612.196722894929	1
0	2606	612.4062957427	0
0	2612	613.316382079994	1
0	2613	614.237965942815	0
0	2629	617.28507631471	1
0	2633	617.863545281111	2
0	2634	618.085490993849	1
0	2644	622.001191333324	2
0	2646	622.415757736645	1
0	2652	623.09869585074	2
0	2653	623.973570565191	1
0	2660	625.151621116202	0
0	2666	625.6588679094	1
0	2668	625.816446180473	2
0	2669	625.88149496963	1
0	2675	626.929853738425	0
0	2694	632.759270876312	1
0	2696	632.890888910169	2
0	2697	633.005219847053	1
0	2702	633.120790063245	0
0	2706	634.136328093632	1
0	2710	636.072767406708	2
0	2711	636.237099164453	1
0	2719	636.941674500493	2
0	2720	637.173787319599	1
0	2724	637.480966765011	2
0	2728	639.638857081835	3
0	2729	639.811437225162	2
0	2735	640.920599930751	3
0	2737	641.355924025024	2
0	2744	642.429337180789	3
0	2746	642.750803141264	2
0	2752	643.921747113059	3
0	2753	644.608128752091	2
0	2760	647.594896221005	3
0	2762	648.126389453754	4
0	2763	648.615109408912	3
0	2768	648.833130861518	2
0	2776	650.366269004645	1
0	2781	651.385459606236	0
0	2797	654.79163106125	1
0	2802	655.958931236464	2
0	2805	657.467219659903	1
0	2810	657.546081099762	0
0	2814	657.935656876977	1
0	2817	658.45334980482	0
0	2842	664.275851729828	1
0	2848	666.446627034116	2
0	2850	667.104789354338	1
0	2861	669.127702709345	2
0	2863	669.164440225874	3
0	2865	669.262182186628	4
0	2866	669.381945926319	3
0	2873	670.431678926182	4
0	2874	671.463796388296	3
0	2879	671.576856623518	2
0	2884	671.622574954196	1
0	2889	671.908144391841	0
0	2900	673.999183149702	1
0	2901	674.418730013326	0
0	2932	677.700112982511	1
0	2933	679.190935676615	0
0	2940	679.530413889123	1
0	2942	679.674179640405	2
0	2943	680.510028942279	1
0	2951	681.691030475398	2
0	2953	682.196335988628	1
0	2958	682.482206135917	0
0	2964	682.497942060423	1
0	2967	684.139161064406	0
0	2987	690.522220242002	1
0	2989	691.390118226511	2
0	2990	694.853482948939	1
0	2996	695.202476584645	2
0	2997	695.227592490398	1
0	3003	695.885631602642	0
0	3015	696.083103794681	1
0	3016	696.606443381969	0
0	3047	699.983933983045	1
0	3048	700.378283858738	0
0	3054	700.65575686438	1
0	3056	701.048345671716	2
0	3059	702.101444644441	1
0	3066	703.444108903487	0
0	3078	704.815652257114	1
0	3080	705.003762973872	2
0	3082	705.161041030429	3
0	3085	705.955970763304	2
0	3090	707.082563020206	1
0	3095	707.083293900052	0
0	3152	726.889990960943	1
0	3154	727.274436718637	2
0	3155	728.922280846674	1
0	3164	731.301595365635	0
0	3195	738.647837477462	1
0	3202	742.739714630589	0
0	3213	743.105656527967	1
0	3214	743.316703685673	0
0	3221	744.434026294102	1
0	3222	744.443987255087	0
0	3229	745.348714277059	1
0	3233	748.650085386123	0
0	3242	752.449490696522	1
0	3244	753.123034232776	2
0	3245	753.25320072764	1
0	3250	753.749654471776	0
0	3264	756.112543054118	1
0	3266	756.118743351648	2
0	3267	756.302611469947	1
0	3278	759.690401741942	2
0	3279	759.7416169784	1
0	3284	760.038861287874	0
0	3290	760.580642099316	1
0	3291	760.693258072305	0
0	3309	761.780513220554	1
0	3314	762.968109488157	2
0	3315	763.080716456167	1
0	3321	763.554404512873	0
0	3329	763.793356429433	1
0	3330	764.051320939672	0
0	3343	766.898024719713	1
0	3345	767.227438660812	2
0	3347	767.243426306053	3
0	3354	770.258641814945	4
0	3356	770.767371735126	5
0	3358	771.14723406821	6
0	3359	771.987189477607	5
0	3364	772.469239936915	4
0	3369	772.489328246356	3
0	3375	772.81262420378	4
0	3377	774.086218622205	3
0	3383	774.528236498789	4
0	3384	774.582689615517	3
0	3391	775.331140453309	2
0	3397	779.86981988297	1
0	3402	780.412731965479	0
0	3416	782.23788716684	1
0	3418	783.191005203004	0
0	3424	783.219950264732	1
0	3425	783.796013303509	0
0	3442	787.754281538274	1
0	3443	788.381229549374	0
0	3449	788.926153542148	1
0	3451	791.047847078841	0
0	3458	792.281287382441	1
0	3459	792.839708415682	0
0	3475	795.591120896875	1
0	3476	796.333846256874	0
0	3500	805.085915064459	1
0	3502	807.503746833236	0
0	3519	810.02988697265	1
0	3522	812.488138008172	0
0	3550	820.214850927259	1
0	3552	820.329621642924	2
0	3553	820.835365298097	1
0	3559	820.946331069333	2
0	3560	820.957065729701	1
0	3566	821.44393109126	0
0	3572	821.924888034286	1
0	3574	822.033578822886	2
0	3575	822.052375434492	1
0	3581	822.944704338292	0
0	3615	831.63828952755	1
0	3617	833.542927755989	0
0	3623	833.577098387205	1
0	3628	835.066538698016	0
0	3641	836.313366896926	1
0	3643	837.240821550615	2
0	3645	837.317762756398	1
0	3652	842.758129220006	0
0	3663	844.683816378628	1
0	3664	846.708871563282	0
0	3673	847.777398920795	1
0	3676	849.11411931048	0
0	3687	849.463738706508	1
0	3689	851.376473333271	0
0	3701	852.366913820876	1
0	3702	852.377984243291	0
0	3725	857.236675354946	1
0	3727	858.440779243928	2
0	3733	859.841712153043	3
0	3738	861.048831786886	4
0	3739	861.203369900317	3
0	3750	863.418048581734	2
0	3758	866.644806050531	3
0	3762	869.511431865468	2
0	3768	870.143516895602	3
0	3771	871.021879055988	2
0	3776	871.80660928612	1
0	3786	873.538551098861	2
0	3790	875.538438561488	1
0	3796	875.890175892902	0
0	3808	877.936584379203	1
0	3811	880.831428815635	0
0	3828	882.408185761901	1
0	3836	887.512268534128	0
0	3842	887.611008318133	1
0	3845	888.785927121573	2
0	3846	890.201891949805	1
0	3853	893.441764416824	2
0	3854	894.648542696841	1
0	3859	894.923727089115	0
0	3865	894.976484788342	1
0	3868	896.531770137378	0
0	3876	897.215601124587	1
0	3878	897.297955917602	2
0	3879	897.301846747676	1
0	3884	897.900776697562	0
0	3899	900.94193523935	1
0	3901	900.944086893036	2
0	3902	901.075235860893	1
0	3908	902.860756384991	0
0	3922	904.422808756554	1
0	3924	904.657592800199	2
0	3925	905.697300268212	1
0	3930	906.207788625257	0
0	3941	906.557532328789	1
0	3943	906.891575902748	2
0	3945	908.068591753148	1
0	3950	908.885150159903	0
0	3961	911.264432297523	1
0	3965	912.241580919543	2
0	3966	912.456352800465	1
0	3971	913.383968149292	0
0	3980	916.970775326545	1
0	3985	919.53070340374	0
0	3994	921.83251127838	1
0	3997	922.987433126524	0
0	4006	923.79672296754	1
0	4010	925.129828903005	0
0	4036	929.994982553746	1
0	4044	936.397482792982	0
0	4055	936.952664034038	1
0	4058	937.62684883006	2
0	4060	939.461179384149	1
0	4065	939.599734817951	0
0	4086	942.370940969112	1
0	4087	942.835918359108	0
0	4104	948.561422992265	1
0	4106	948.699334249445	2
0	4110	949.131546933339	3
0	4111	949.623259688884	2
0	4118	950.273313322491	3
0	4119	953.215860168138	2
0	4126	954.558153264734	3
0	4130	958.28852465394	4
0	4132	958.780975973233	5
0	4136	959.119415447509	6
0	4137	960.064535187533	5
0	4144	960.696085355616	6
0	4146	962.532641040317	7
0	4147	963.263410579027	6
0	4156	965.743097579232	7
0	4157	965.894429218904	6
0	4163	968.82135729937	5
0	4169	970.445834526648	4
0	4174	970.716505209272	3
0	4179	970.837286921539	2
0	4184	971.113109028066	1
0	4189	972.16386224701	0
0	4193	972.225438210568	1
0	4196	973.218418604664	0
0	4213	976.943294173349	1
0	4214	977.274872703804	0
0	4231	979.259513305302	1
0	4235	983.133012299834	0
0	4241	983.927422627758	1
0	4242	984.357645336168	0
0	4270	988.074007223774	1
0	4271	988.433067582194	0
0	4280	988.658169281183	1
0	4282	989.691514199253	2
0	4287	991.523799224754	3
0	4290	994.087489158654	2
0	4296	994.824158905993	3
0	4297	994.921516826073	2
0	4302	995.437489920496	1
0	4310	996.674008911507	0
0	4316	996.801136985285	1
0	4317	996.994230655645	0
0	4353	1003.719935974872	1
0	4357	1005.224051325466	0
0	4411	1021.419245081247	1
0	4412	1021.825009837362	0
0	4421	1022.975028870309	1
0	4423	1023.2051092414	2
0	4425	1026.279773707122	1
0	4431	1027.723611303458	2
0	4433	1028.186659504966	1
0	4440	1028.884171136748	0
0	4470	1031.743579383877	1
0	4471	1031.765462721636	0
0	4586	1072.182686497645	1
0	4590	1072.605912103434	2
0	4591	1074.25566809933	1
0	4598	1074.769253378675	0
0	4605	1075.869476990607	1
0	4606	1076.288060656287	0
0	4620	1078.153020385491	1
0	4621	1078.169504144219	0
0	4644	1093.937943910766	1
0	4646	1095.693784036285	0
0	4662	1099.950224606542	1
0	4663	1100.778667158861	0
0	4710	1114.318189091874	1
0	4712	1114.449302349606	2
0	4714	1115.185102314725	3
0	4716	1115.186204567727	4
0	4718	1115.320304575539	5
0	4719	1115.410372387552	4
0	4725	1116.266969564099	3
0	4731	1116.279815724481	4
0	4733	1116.54397635102	5
0	4734	1117.496578279376	4
0	4739	1117.722024593543	3
0	4745	1118.579218859522	2
0	4751	1120.348665576045	1
0	4757	1121.399652476614	2
0	4758	1122.113304693149	1
0	4764	1123.201844918397	2
0	4765	1124.024855760846	1
0	4773	1126.634979088839	2
0	4776	1128.565698713503	1
0	4782	1128.889311589786	2
0	4784	1129.720579547837	3
0	4786	1130.54504421555	4
0	4788	1131.409282116116	5
0	4790	1132.098123961267	4
0	4797	1135.295005071001	3
0	4803	1135.730143076681	4
0	4807	1136.533887237622	3
0	4812	1137.263710611833	2
0	4817	1137.826480274712	1
0	4822	1137.975267370252	0
0	4833	1138.450534208225	1
0	4838	1142.524715889665	0
0	4844	1142.87364746363	1
0	4848	1144.399306199835	0
0	4860	1144.901810185149	1
0	4865	1145.318326268251	2
0	4868	1146.5607599233	3
0	4869	1146.923381479994	2
0	4875	1147.188231168125	3
0	4881	1149.757160586646	2
0	4886	1150.968869755319	1
0	4894	1151.564384679224	2
0	4898	1152.09882965258	3
0	4899	1153.497888777433	2
0	4905	1153.642883212394	1
0	4911	1154.393887363867	0
0	4923	1155.673176344498	1
0	4925	1155.773677459837	2
0	4927	1156.635935600555	3
0	4928	1157.318556823675	2
0	4934	1157.749976774416	3
0	4938	1159.274632527013	2
0	4944	1159.363299850358	3
0	4950	1162.337648921043	2
0	4955	1162.341737259519	1
0	4960	1162.478444860977	0
0	4996	1168.08816614746	1
0	4997	1169.05524129721	0
0	5003	1169.100168063158	1
0	5004	1169.106669794036	0
0	5015	1169.668919710205	1
0	5018	1170.318061518665	0
0	5029	1171.337403032776	1
0	5033	1171.835166617576	2
0	5038	1173.537093986558	1
0	5044	1175.115787451184	0
0	5084	1183.075023119524	1
0	5087	1184.984241021754	0
0	5102	1186.662941763865	1
0	5106	1187.432193799342	2
0	5107	1188.431436008636	1
0	5113	1189.680335680638	0
0	5169	1205.026547536886	1
0	5170	1205.341020249232	0
0	5178	1206.405989503235	1
0	5179	1207.6659333829	0
0	5192	1210.945957422166	1
0	5194	1211.190016318255	0
0	5200	1212.821741214192	1
0	5201	1213.040077471243	0
0	5227	1218.008123287528	1
0	5234	1219.191052745392	2
0	5236	1219.930340642943	3
0	5237	1220.071579281083	2
0	5245	1224.557448785265	1
0	5252	1226.15150105185	2
0	5254	1228.051883327168	1
0	5259	1228.06662945529	0
0	5303	1239.859363189814	1
0	5304	1240.0567706044	0
0	5318	1245.629769227101	1
0	5325	1247.110838003739	2
0	5326	1248.077063463971	1
0	5331	1248.289039976186	0
0	5354	1252.77528672543	1
0	5357	1253.926892479731	0
0	5409	1274.477624793172	1
0	5415	1276.294310414293	2
0	5418	1278.489510938571	3
0	5419	1279.323116831437	2
0	5424	1280.008473666729	1
0	5429	1280.24597743838	0
0	5449	1284.612477126074	1
0	5453	1285.007490508113	0
0	5484	1292.282617667072	1
0	5487	1292.453623261795	2
0	5488	1292.66992215841	1
0	5493	1294.221900187247	0
0	5506	1297.466015653449	1
0	5507	1297.540959734098	0
0	5557	1312.648309372817	1
0	5560	1314.694881267829	0
0	5571	1315.220626577716	1
0	5572	1315.546742594908	0
0	5614	1323.566997268392	1
0	5615	1325.659162630056	0
0	5658	1338.08933947012	1
0	5660	1338.494625971955	2
0	5662	1338.957074193133	3
0	5663	1340.355733069755	2
0	5668	1340.470171054927	1
0	5673	1340.858941068325	0
0	5697	1346.841535052324	1
0	5698	1346.964210590303	0
0	5756	1366.94472329858	1
0	5757	1366.969368022803	0
0	5795	1373.036719847988	1
0	5796	1374.404668439381	0
0	5842	1384.696350802129	1
0	5843	1385.065489514745	0
0	5849	1386.628688806929	1
0	5851	1386.736253762588	2
0	5853	1387.226335649892	3
0	5855	1387.824106345515	4
0	5859	1388.355219478705	5
0	5861	1389.385909585816	6
0	5862	1389.43337593024	5
0	5868	1389.878469727521	4
0	5874	1390.971855524655	3
0	5880	1391.904195387603	2
0	5885	1391.905950812242	1
0	5891	1392.508726066774	0
0	5906	1395.42959999759	1
0	5907	1395.687433324258	0
0	5941	1402.713566189419	1
0	5944	1404.616414700578	0
0	5979	1418.799256289279	1
0	5980	1419.489821791007	0
0	6019	1425.178941468024	1
0	6024	1426.56017492198	2
0	6028	1426.992711185946	3
0	6029	1427.055040294562	2
0	6034	1427.526717321808	1
0	6040	1428.868325485483	0
0	6089	1437.073027400934	1
0	6091	1437.748880148606	2
0	6092	1438.263642944386	1
0	6097	1438.745448966441	0
0	6104	1440.115403351481	1
0	6105	1440.227002560897	0
0	6123	1442.521650211021	1
0	6124	1442.858467733308	0
0	6132	1443.269905879783	1
0	6136	1444.057017051892	2
0	6139	1444.747573950457	1
0	6145	1445.240254009226	2
0	6146	1445.296286335324	1
0	6152	1445.9242216604	0
0	6159	1446.630998525921	1
0	6165	1450.897265507718	0
0	6199	1460.307313332546	1
0	6200	1461.9818219981	0
0	6212	1463.566011280554	1
0	6213	1464.588370301563	0
0	6223	1465.884975867794	1
0	6228	1467.521054122474	0
0	6239	1471.531459893368	1
0	6240	1471.931909284772	0
0	6246	1472.014481775369	1
0	6247	1472.913418471167	0
0	6300	1489.127601505864	1
0	6302	1489.168849999471	2
0	6303	1490.030137068673	1
0	6308	1491.444725788861	0
0	6345	1500.331695289989	1
0	6349	1501.781307658021	2
0	6350	1501.848370316671	1
0	6357	1503.00380445255	0
0	6436	1525.209052372702	1
0	6438	1525.945036606181	2
0	6441	1526.20196813116	1
0	6450	1527.40424070804	2
0	6451	1528.635029646683	1
0	6456	1529.601560839187	0
0	6481	1534.641301425616	1
0	6482	1535.510026124923	0
0	6497	1540.368310342546	1
0	6498	1540.707417085536	0
0	6504	1541.408581083337	1
0	6509	1542.356824807694	0
0	6516	1546.300721762297	1
0	6517	1548.163602748454	0
0	6552	1559.202392399298	1
0	6553	1559.630597840416	0
0	6577	1565.737178672291	1
0	6581	1567.582197251117	0
0	6624	1579.861559699651	1
0	6625	1579.933774025455	0
0	6759	1633.235989787177	1
0	6760	1633.631724577939	0
0	6790	1637.016668338769	1
0	6791	1637.076627445146	0
0	6805	1638.648996235596	1
0	6807	1641.307145120712	0
0	6813	1641.573847858304	1
0	6814	1641.743185492489	0
0	6820	1642.033254107276	1
0	6824	1642.823207552576	0
0	6846	1646.404101352947	1
0	6848	1646.736168042588	0
0	6897	1672.172687804394	1
0	6899	1672.540961462261	2
0	6902	1675.384152325125	1
0	6908	1676.18406991249	0
0	6963	1686.835900071229	1
0	6967	1688.349376468676	2
0	6968	1688.797687976904	1
0	6973	1691.193012798813	0
0	7027	1705.460246635494	1
0	7028	1706.302975862671	0
0	7042	1712.111184378297	1
0	7043	1712.759419395776	0
0	7071	1724.092734795662	1
0	7072	1724.322366444994	0
0	7098	1737.946974051954	1
0	7099	1739.438107007604	0
0	7122	1746.169802982252	1
0	7126	1746.669786445106	2
0	7127	1746.891894760091	1
0	7132	1748.305522802944	0
0	7160	1751.725386485984	1
0	7162	1751.805617828496	2
0	7163	1751.96451965915	1
0	7170	1752.27910533789	2
0	7172	1752.902437310149	3
0	7175	1752.953966847059	4
0	7177	1754.275191793601	3
0	7182	1754.468274904854	2
0	7187	1754.619687088312	1
0	7192	1755.461286627127	0
0	7250	1767.161880775997	1
0	7252	1768.793314694052	0
0	7282	1777.153215836074	1
0	7284	1777.655908773575	2
0	7285	1778.703821149264	1
0	7290	1779.032006681224	0
0	7307	1782.456546683683	1
0	7308	1782.572940266042	0
0	7379	1806.107754034965	1
0	7383	1808.014692883163	0
0	7398	1811.026053803023	1
0	7399	1811.462793420243	0
0	7457	1837.0882606474	1
0	7458	1837.157051101944	0
0	7484	1848.887220521428	1
0	7486	1849.406746379614	2
0	7487	1849.563652181918	1
0	7493	1849.65756516385	2
0	7494	1850.343041698447	1
0	7500	1850.844131538958	0
0	7506	1851.178712295698	1
0	7509	1854.465530399299	0
0	7522	1856.113150453255	1
0	7523	1857.189629583918	0
0	7529	1857.38592860407	1
0	7530	1857.752474024355	0
0	7545	1859.246379476056	1
0	7547	1859.43789908083	2
0	7551	1860.477576194414	3
0	7552	1861.850515624629	2
0	7557	1862.035606164796	1
0	7565	1863.642157784503	0
0	7571	1864.409687497012	1
0	7573	1864.987824705911	0
0	7592	1869.128356943641	1
0	7596	1870.593598099309	2
0	7598	1871.618579067487	3
0	7599	1873.757894205945	2
0	7604	1873.935906825764	1
0	7610	1874.072880835523	2
0	7611	1874.604454403447	1
0	7616	1875.271927636435	0
0	7678	1887.351618207688	1
0	7684	1891.084130115159	0
0	7707	1895.029460848413	1
0	7709	1897.423052878021	2
0	7710	1899.168296501491	1
0	7716	1899.831643239013	0
0	7729	1900.676725977039	1
0	7731	1900.993349508855	0
0	7762	1908.682154851128	1
0	7763	1908.753638800431	0
0	7809	1925.884851264385	1
0	7810	1926.124999638432	0
0	7824	1928.417088545342	1
0	7827	1929.4533908717	0
0	7864	1937.34886714892	1
0	7867	1937.612442643192	0
0	7911	1949.537989045418	1
0	7917	1951.238553197315	0
0	7923	1951.553470255633	1
0	7924	1951.940438839723	0
0	7930	1952.048280150448	1
0	7931	1952.140747673898	0
0	7939	1952.97482788691	1
0	7945	1953.568106897899	2
0	7946	1954.052401130657	1
0	7953	1956.582462356464	0
0	7962	1957.809296065119	1
0	7966	1959.509350575708	2
0	7967	1960.90354378707	1
0	7977	1962.744050919894	2
0	7978	1963.850834008648	1
0	7984	1965.477313092392	0
0	7995	1965.860960542357	1
0	7996	1966.037095810276	0
0	8038	1971.457639096271	1
0	8041	1973.107315595694	0
0	8047	1973.771765507674	1
0	8051	1975.019363098892	2
0	8056	1976.380240586573	3
0	8057	1977.007706466897	2
0	8063	1977.13386644528	3
0	8067	1977.64183100961	4
0	8071	1978.629802461751	5
0	8075	1979.689581670555	4
0	8083	1980.093759737187	5
0	8084	1981.059651878638	4
0	8090	1981.160214541633	5
0	8096	1981.915976234959	4
0	8101	1982.727433837682	3
0	8106	1983.828595866645	2
0	8111	1984.093279248385	1
0	8116	1985.245163347946	0
0	8120	1985.858324227745	1
0	8126	1987.810482423072	0
0	8150	1991.6728793231	1
0	8151	1992.413779838693	0
0	8172	1997.177844966589	1
0	8175	2001.901116415376	0
0	8247	2020.351446464804	1
0	8251	2021.466290564083	2
0	8252	2023.920519536003	1
0	8258	2024.315644646446	0
0	8278	2029.09829250075	1
0	8280	2029.943376514828	0
0	8311	2052.741710656221	1
0	8312	2056.547310628249	0
0	8325	2061.758140248866	1
0	8326	2063.040833261926	0
0	8332	2063.691554937697	1
0	8333	2064.32318424664	0
0	8339	2064.80061661189	1
0	8340	2065.034224143139	0
0	8344	2065.520743166588	1
0	8346	2066.51805082369	2
0	8349	2066.953913729746	1
0	8353	2067.481238404119	2
0	8355	2068.503600760602	3
0	8359	2069.150773758187	4
0	8362	2070.15297993218	3
0	8369	2070.615170387816	2
0	8374	2070.623215659955	1
0	8380	2070.964301748662	0
0	8410	2074.384873958642	1
0	8416	2076.353269577903	0
0	8422	2077.663007073721	1
0	8423	2079.285821905892	0
0	8429	2080.493727598157	1
0	8430	2080.592327316714	0
0	8457	2087.897630194929	1
0	8458	2089.563270953404	0
0	8490	2093.984328327344	1
0	8492	2094.394482964661	2
0	8493	2095.929527893685	1
0	8498	2096.106033905591	0
0	8515	2104.610152954565	1
0	8516	2105.155528260077	0
0	8522	2105.43565466492	1
0	8523	2105.907254635533	0
0	8544	2108.114229979976	1
0	8548	2109.62422914696	0
0	8601	2129.423305093294	1
0	8603	2130.658828689122	2
0	8604	2131.269458688556	1
0	8609	2131.406397926427	0
0	8624	2134.315142591844	1
0	8627	2134.727381891679	2
0	8629	2134.899604530729	3
0	8631	2135.206162941611	4
0	8632	2135.281534708776	3
0	8641	2137.033376872627	2
0	8648	2137.532995621488	1
0	8653	2137.895430131718	0
0	8689	2146.631551074098	1
0	8691	2147.752498115991	0
0	8738	2158.491337830753	1
0	8741	2159.036180781323	2
0	8742	2159.544559197806	1
0	8748	2159.634078921563	0
0	8784	2165.442942534618	1
0	8786	2168.281517686855	2
0	8788	2168.336881152815	3
0	8790	2169.407042600989	4
0	8791	2169.528616418544	3
0	8797	2169.845722938268	4
0	8798	2170.070967787176	3
0	8804	2171.176941000178	2
0	8809	2172.42269721552	1
0	8814	2172.521236410971	0
0	8820	2172.670483373923	1
0	8821	2173.96064846556	0
0	8869	2181.905013372986	1
0	8870	2181.913842768298	0
0	8884	2183.312400340295	1
0	8885	2184.254028825873	0
0	8911	2191.599736998279	1
0	8914	2193.538220114667	0
0	8921	2194.426201963161	1
0	8922	2195.052531290739	0
0	8936	2196.001528998976	1
0	8937	2196.262005880093	0
0	8943	2196.876116922367	1
0	8945	2198.324062497359	2
0	8951	2199.316133554186	1
0	8956	2201.491801343969	0
0	8967	2203.575890519627	1
0	8970	2204.701798126998	0
0	8981	2205.28230513422	1
0	8982	2205.737863536765	0
0	9033	2219.497880123394	1
0	9035	2219.654615086724	2
0	9036	2220.069898003787	1
0	9042	2221.280954092544	0
0	9090	2236.785180121609	1
0	9092	2238.417731848707	2
0	9096	2240.256743764398	3
0	9098	2240.404559722998	4
0	9099	2240.803843666844	3
0	9104	2241.000888772154	2
0	9109	2241.457127185999	1
0	9116	2243.41474765924	0
0	9135	2248.576742841113	1
0	9136	2248.636716618151	0
0	9151	2250.483568004026	1
0	9153	2251.009682183758	2
0	9156	2252.159932670455	3
0	9157	2253.433047384792	2
0	9162	2253.572935184372	1
0	9170	2255.818142019065	0
0	9188	2257.698606993606	1
0	9189	2259.206646498704	0
0	9217	2264.99990330677	1
0	9218	2266.199267988756	0
0	9280	2281.828567348295	1
0	9281	2284.048546245746	0
0	9290	2284.334510184887	1
0	9291	2285.043410115017	0
0	9298	2285.638864991802	1
0	9299	2285.847802157527	0
0	9312	2289.950501097524	1
0	9313	2291.897297734594	0
0	9326	2292.966613631729	1
0	9328	2293.537266901304	0
0	9349	2297.059901803148	1
0	9358	2300.306484159839	2
0	9360	2300.985840872692	3
0	9363	2302.283935247654	2
0	9370	2302.602612066985	3
0	9371	2303.095695618661	2
0	9377	2303.977912617364	3
0	9379	2304.186699418575	4
0	9381	2304.19644081706	5
0	9383	2304.304996831404	6
0	9385	2304.427932645901	7
0	9386	2304.529524995499	6
0	9392	2306.063455874997	7
0	9396	2307.038857416913	8
0	9399	2307.606204763385	9
0	9400	2308.336227814461	8
0	9406	2308.852951193845	7
0	9413	2309.856798798811	6
0	9425	2312.396021103471	7
0	9426	2312.517623795894	6
0	9431	2312.957965481579	5
0	9438	2314.805479578158	4
0	9447	2318.574445016516	3
0	9453	2319.629259567573	2
0	9458	2319.896082739988	1
0	9463	2320.867133736734	0
0	9469	2321.94953783748	1
0	9471	2322.403074741324	0
0	9477	2322.837992130814	1
0	9478	2323.292283273265	0
0	9484	2324.456527623503	1
0	9488	2325.831923662826	2
0	9493	2326.443710432982	1
0	9497	2326.872892356107	2
0	9508	2330.699617713986	1
0	9513	2330.802163595542	0
0	9519	2330.808447062012	1
0	9526	2334.232650512296	0
0	9532	2334.362402944292	1
0	9534	2334.840261337494	2
0	9535	2335.075296568999	1
0	9541	2335.088196586319	2
0	9542	2335.824838203373	1
0	9546	2337.342752627586	2
0	9548	2337.36236902453	3
0	9553	2340.218914139383	2
0	9557	2340.328285939651	3
0	9561	2342.142349298718	4
0	9562	2342.610729704996	3
0	9566	2343.950101902823	4
0	9575	2344.982495846699	3
0	9584	2345.804795143261	4
0	9586	2346.392314501402	3
0	9591	2346.440797492879	2
0	9596	2346.992137744094	1
0	9601	2347.81137756075	0
0	9605	2348.574903856485	1
0	9609	2349.582732278424	2
0	9610	2350.910313116809	1
0	9615	2354.636367639677	0
0	9630	2358.597960208238	1
0	9633	2358.907112416182	2
0	9635	2359.55581083966	1
0	9640	2360.194259503554	0
0	9688	2368.491006016293	1
0	9691	2369.239188376412	0
0	9697	2369.305940789277	1
0	9698	2369.340890151557	0
0	9722	2375.833934272756	1
0	9725	2378.656075642785	0
0	9737	2382.317950422483	1
0	9738	2383.21539611586	0
0	9761	2387.679852072466	1
0	9762	2388.964726399653	0
0	9768	2389.035009842112	1
0	9769	2389.441075929282	0
0	9787	2390.653526065716	1
0	9788	2390.693692733109	0
0	9818	2398.093034170971	1
0	9819	2398.408761630187	0
0	9850	2407.009624068423	1
0	9851	2407.272010887987	0
0	9925	2432.562624616128	1
0	9926	2433.777705074032	0
0	9955	2437.520914758674	1
0	9959	2438.375292306629	0
0	9988	2444.576010534958	1
0	9989	2444.790056916591	0
0	10011	2448.655276874108	1
0	10012	2448.657875007872	0
0	10019	2449.882215841417	1
0	10020	2449.92108259208	0
0	10061	2459.223544432776	1
0	10065	2460.470576375825	2
0	10066	2461.295448770922	1
0	10071	2462.065590856991	0
0	10084	2464.553680129548	1
0	10085	2466.159769852944	0
0	10112	2476.284661321014	1
0	10113	2477.442694810847	0
0	10134	2479.90324262128	1
0	10135	2479.997786256794	0
0	10148	2483.401113695163	1
0	10150	2483.537830447233	2
0	10151	2483.638483918207	1
0	10158	2484.32939133475	2
0	10160	2485.416620686748	1
0	10165	2485.419954876931	0
0	10183	2490.749104776097	1
0	10184	2492.019101493912	0
0	10190	2492.126100727937	1
0	10194	2493.073361471391	0
0	10200	2495.132603528899	1
0	10201	2496.98286894433	0
0	10207	2497.390247310026	1
0	10209	2498.163776859849	0
0	10217	2500.439342285004	1
0	10220	2501.290700459676	0
0	10231	2503.400879038306	1
0	10233	2504.274686549649	2
0	10235	2504.311543599257	3
0	10240	2505.007051579909	4
0	10244	2505.626237954583	5
0	10246	2506.295228047859	4
0	10252	2507.11752107691	3
0	10257	2507.323374672613	2
0	10265	2508.715617390449	1
0	10272	2509.179703601383	0
0	10309	2514.99985478457	1
0	10311	2516.358721907965	2
0	10315	2516.675664266703	3
0	10316	2516.808217116995	2
0	10321	2517.95535588668	1
0	10326	2518.165302999413	0
0	10342	2520.3467563781	1
0	10345	2520.447874270918	2
0	10346	2520.716522502075	1
0	10351	2521.174569254375	0
0	10362	2523.078791307464	1
0	10366	2524.259370316534	2
0	10369	2524.916421906838	1
0	10374	2525.038591938659	0
0	10396	2528.750532030554	1
0	10397	2530.213761543964	0
0	10418	2534.951381719442	1
0	10419	2536.15347665517	0
0	10453	2542.843646087738	1
0	10456	2545.425722626677	0
0	10471	2547.084898062424	1
0	10474	2547.96854386272	0
0	10546	2565.337936079418	1
0	10550	2565.874030355959	0
0	10571	2567.533374480402	1
0	10573	2567.699793989275	2
0	10580	2570.894786223309	3
0	10581	2571.140307511315	2
0	10586	2571.404005956853	1
0	10591	2571.456970510597	0
0	10602	2573.474168509295	1
0	10605	2574.006509030007	0
0	10619	2576.593738379206	1
0	10625	2577.124767668508	2
0	10627	2577.249453454044	3
0	10629	2577.897020611191	2
0	10636	2579.543653542786	1
0	10645	2582.345916673806	0
0	10649	2582.586365096287	1
0	10654	2583.602248375608	2
0	10660	2586.127720312333	1
0	10670	2588.710028739521	0
0	10689	2590.407732638237	1
0	10690	2591.126191958355	0
0	10697	2591.757926061258	1
0	10698	2592.785904190228	0
0	10740	2598.277656114169	1
0	10743	2598.799607513559	0
0	10752	2600.787826779164	1
0	10754	2603.065307300533	2
0	10757	2603.499232095514	1
0	10763	2606.798780104377	0
0	10776	2608.275114104463	1
0	10780	2609.918794833725	2
0	10783	2610.865351404102	1
0	10790	2611.191073090641	2
0	10792	2612.057006979749	1
0	10799	2614.256591642352	0
0	10820	2616.151182409347	1
0	10824	2617.248810400607	0
0	10836	2618.085615735767	1
0	10837	2618.372255311237	0
0	10843	2618.379724944673	1
0	10849	2619.240938714116	2
0	10851	2619.474299984012	3
0	10852	2619.483623531435	2
0	10857	2619.655401538518	1
0	10862	2619.798978771461	0
0	10868	2619.943826715768	1
0	10870	2620.53789264386	2
0	10878	2624.977832848688	1
0	10883	2625.314993101319	0
0	10897	2627.555845665218	1
0	10903	2628.795774852887	2
0	10904	2629.938718445706	1
0	10909	2630.156270822082	0
0	10923	2633.87987232194	1
0	10928	2637.410122927447	0
0	10936	2638.365806323329	1
0	10937	2640.536158193207	0
0	10954	2645.400125783263	1
0	10955	2648.252604663413	0
0	10967	2650.845861590392	1
0	10968	2651.257074790863	0
0	10983	2653.957140306685	1
0	10986	2654.671741483003	0
0	10999	2663.399818763239	1
0	11004	2667.316698285569	0
0	11017	2670.477802967614	1
0	11018	2670.60381551996	0
0	11039	2672.805765959579	1
0	11040	2673.680006451675	0
0	11052	2678.735905349128	1
0	11057	2682.841158558432	0
0	11066	2684.278406897438	1
0	11069	2685.567280286059	0
0	11089	2688.596908352383	1
0	11091	2688.742592003263	2
0	11093	2689.127962887301	3
0	11094	2689.6662439208	2
0	11100	2691.717821083129	1
0	11105	2692.529530967683	0
0	11180	2720.946204957151	1
0	11186	2724.876951472131	2
0	11187	2724.961787016899	1
0	11192	2725.184050107902	0
0	11203	2726.67790893271	1
0	11210	2727.9895241901	2
0	11211	2728.163541053669	1
0	11217	2728.380899932235	0
0	11223	2728.793215700394	1
0	11225	2729.14514902193	0
0	11234	2729.840287682406	1
0	11235	2729.89071590333	0
0	11268	2736.209137313459	1
0	11270	2736.824068201291	0
0	11276	2736.969647153046	1
0	11278	2737.786837265003	0
0	11311	2744.11753451906	1
0	11317	2747.303836166702	0
0	11376	2762.752750301824	1
0	11377	2762.764166113122	0
0	11392	2765.189758885179	1
0	11394	2765.474903065701	2
0	11395	2765.487184937363	1
0	11400	2766.704027546546	0
0	11428	2771.957156072143	1
0	11430	2772.581587842012	2
0	11431	2772.984319054324	1
0	11436	2773.001341615069	0
0	11458	2778.252073126907	1
0	11463	2780.320503240469	0
0	11483	2784.114556492458	1
0	11484	2785.186006162419	0
0	11532	2798.147019063957	1
0	11533	2798.159573292142	0
0	11541	2800.871997771558	1
0	11542	2801.241646859164	0
0	11548	2801.448805487261	1
0	11549	2801.710983227169	0
0	11555	2801.776734393226	1
0	11556	2802.549376954844	0
0	11570	2803.610269995942	1
0	11573	2804.569450997157	0
0	11661	2842.741701515826	1
0	11662	2842.83657233255	0
0	11729	2858.484481370558	1
0	11730	2859.255134504481	0
0	11741	2860.945818461571	1
0	11742	2861.19022652245	0
0	11757	2863.135972403495	1
0	11760	2865.246512601321	0
0	11781	2866.084152854768	1
0	11783	2866.709853252076	2
0	11784	2867.445504423158	1
0	11789	2867.461138410556	0
0	11796	2867.943523440321	1
0	11798	2868.741105960118	0
0	11804	2868.774979915624	1
0	11806	2869.063512066077	0
0	11813	2869.651100422976	1
0	11815	2872.753385434337	0
0	11821	2873.192003694553	1
0	11823	2874.463222593469	2
0	11826	2875.18745633176	1
0	11832	2876.950267238617	0
0	11848	2879.990389800016	1
0	11852	2881.124689749081	2
0	11854	2881.615916699708	3
0	11856	2883.548230694324	4
0	11864	2887.362107493398	3
0	11869	2888.388131290747	2
0	11874	2888.641886515541	1
0	11879	2888.991020340825	0
0	11916	2893.593191886252	1
0	11922	2895.574010561258	2
0	11923	2896.504619467024	1
0	11928	2896.716175738999	0
0	11946	2898.321567389286	1
0	11947	2898.375402940197	0
0	11960	2900.233899236688	1
0	11961	2900.260280875941	0
0	11968	2901.601454546845	1
0	11969	2902.254389031382	0
0	11975	2902.379644133123	1
0	11976	2902.597533092246	0
0	11995	2907.956122581876	1
0	11997	2908.885475607411	0
0	12003	2909.966791460704	1
0	12004	2910.274084660148	0
0	12026	2913.842434639504	1
0	12028	2914.999779270363	0
0	12065	2920.537371660107	1
0	12067	2920.583854624201	2
0	12068	2923.344227161676	1
0	12073	2924.278016378188	0
0	12119	2940.079622813939	1
0	12122	2940.386243698357	0
0	12132	2941.428694436203	1
0	12134	2942.639429672985	2
0	12138	2947.030075091293	3
0	12142	2948.037569550427	4
0	12143	2948.557319773869	3
0	12151	2948.699735794324	4
0	12152	2949.377271618452	3
0	12160	2951.527654084408	2
0	12167	2952.228311604334	3
0	12171	2952.88193642013	2
0	12177	2953.296888129705	3
0	12179	2953.676934972695	4
0	12181	2954.313179355548	5
0	12183	2956.495875968109	4
0	12188	2958.643723250767	3
0	12193	2959.300006753487	2
0	12201	2963.192871872696	1
0	12207	2964.106165426226	0
0	12213	2964.339696493083	1
0	12214	2964.762517629891	0
0	12223	2965.865212375532	1
0	12229	2967.635532359006	2
0	12232	2967.894267421699	1
0	12237	2968.027344135163	0
0	12251	2971.388103237708	1
0	12258	2973.041279038622	2
0	12260	2973.130012734113	3
0	12262	2973.868880627881	2
0	12268	2975.709623560838	1
0	12273	2977.465273613422	0
0	12307	2984.742800296148	1
0	12310	2987.164717212193	0
0	12316	2987.780996037079	1
0	12318	2987.791727958292	2
0	12319	2988.077683328	1
0	12324	2988.922819771927	0
0	12335	2991.262108210999	1
0	12337	2991.370095879097	0
0	12343	2992.588135705041	1
0	12346	2993.638017653812	2
0	12348	2995.631732325088	3
0	12350	2996.023858152637	2
0	12355	2996.162253829842	1
0	12359	2997.435333912193	2
0	12363	2998.852166664364	3
0	12365	3000.090094079152	4
0	12373	3002.516735239045	5
0	12374	3002.653231734877	4
0	12379	3002.692330548513	3
0	12385	3002.986272735023	4
0	12386	3003.018932914704	3
0	12390	3003.071575369869	4
0	12394	3005.129732246753	5
0	12396	3005.880941434879	4
0	12403	3007.990057194433	3
0	12411	3008.152317442852	4
0	12413	3009.805018978361	3
0	12418	3009.930034379623	2
0	12422	3012.014828205629	3
0	12427	3013.127210928287	2
0	12436	3017.16604470598	1
0	12442	3018.008684648689	0
0	12475	3021.231117618394	1
0	12476	3021.568970850613	0
0	12506	3025.801687876051	1
0	12507	3025.832537243629	0
0	12563	3039.223353519133	1
0	12566	3040.729814810465	0
0	12572	3041.119960011463	1
0	12574	3043.100790600384	0
0	12601	3047.400008214621	1
0	12604	3048.019931138414	2
0	12605	3048.463201255706	1
0	12610	3048.694356880489	0
0	12616	3051.06619665042	1
0	12621	3053.126709764774	0
0	12627	3053.765136542243	1
0	12629	3054.088584252557	2
0	12631	3054.282956757078	3
0	12632	3054.285637215867	2
0	12638	3054.318374611786	3
0	12639	3056.685368114509	2
0	12647	3057.125342558284	3
0	12650	3057.486367665659	4
0	12652	3057.57295325606	5
0	12653	3058.182617434795	4
0	12658	3059.026980558216	3
0	12664	3059.667020950192	4
0	12667	3060.639927082322	3
0	12672	3062.471080817048	2
0	12676	3062.504408649843	3
0	12678	3063.874880312559	4
0	12681	3064.529840454699	3
0	12685	3065.109952098124	4
0	12688	3065.387217301303	3
0	12694	3066.705489395057	4
0	12696	3066.820351307567	5
0	12698	3067.163317350258	4
0	12703	3067.767161811065	3
0	12708	3068.562904785318	2
0	12713	3070.583555462596	1
0	12717	3071.327465825541	2
0	12720	3073.823255416717	1
0	12725	3074.822552709958	0
0	12729	3075.403770635189	1
0	12733	3076.271615233381	2
0	12737	3076.604751720671	3
0	12738	3076.642957100696	2
0	12747	3077.660004948015	1
0	12753	3078.522319954773	2
0	12754	3079.295325943968	1
0	12769	3082.401445852437	0
0	12790	3084.893814043947	1
0	12791	3085.553347221699	0
0	12807	3086.398592225349	1
0	12812	3088.155036501054	0
0	12818	3088.180385733149	1
0	12823	3090.280711430512	2
0	12825	3090.370358458153	3
0	12831	3091.262248033932	2
0	12836	3091.386488146205	1
0	12841	3091.506141815862	0
0	12895	3099.07514535309	1
0	12898	3102.221559490639	0
0	12914	3105.427034244724	1
0	12918	3107.571881823871	2
0	12920	3107.643819721256	3
0	12922	3107.956142863296	4
0	12926	3108.519275114696	3
0	12931	3108.886172787381	2
0	12936	3108.956525608149	1
0	12943	3110.737243493802	0
0	12954	3111.874590355936	1
0	12955	3112.102119078057	0
0	13001	3125.425751090764	1
0	13004	3127.299654127139	0
0	13028	3135.151985040866	1
0	13032	3135.828297191776	0
0	13051	3138.805708461334	1
0	13054	3140.416059671855	0
0	13065	3141.752109199073	1
0	13067	3141.94373428957	2
0	13072	3143.287903834033	1
0	13078	3144.00048376424	2
0	13079	3144.973584687923	1
0	13086	3145.981269439267	0
0	13092	3146.350501244313	1
0	13093	3146.544902250819	0
0	13099	3146.952579474734	1
0	13100	3147.166563167112	0
0	13115	3149.528285350489	1
0	13118	3150.340680198468	0
0	13149	3155.162927783398	1
0	13153	3158.063207399191	0
0	13159	3158.238348599729	1
0	13160	3159.266500903188	0
0	13226	3179.186738326729	1
0	13228	3179.847065062244	0
0	13242	3182.644636477502	1
0	13247	3185.179994805459	0
0	13260	3186.15150816399	1
0	13261	3186.74684258615	0
0	13282	3188.7787191411	1
0	13283	3189.694203141662	0
0	13289	3189.850108319306	1
0	13292	3192.136551225615	2
0	13294	3192.409337751273	3
0	13295	3193.154535081289	2
0	13301	3193.380897280264	3
0	13302	3193.427201072319	2
0	13307	3194.059897054814	1
0	13312	3194.119844401399	0
0	13329	3195.635255357582	1
0	13330	3195.636496257025	0
0	13347	3198.548717838288	1
0	13348	3198.616844385534	0
0	13428	3215.08593819749	1
0	13434	3221.407492728141	2
0	13437	3223.245313450472	1
0	13442	3223.276187201727	0
0	13497	3231.682589582822	1
0	13498	3231.842876379055	0
0	13509	3233.842956908623	1
0	13510	3233.982854492906	0
0	13544	3245.562792267425	1
0	13545	3245.848003034636	0
0	13551	3246.032450202304	1
0	13552	3248.017361663601	0
0	13567	3249.92566245385	1
0	13568	3250.237942111483	0
0	13589	3253.096146177766	1
0	13593	3253.226338360485	2
0	13599	3254.60854699603	3
0	13600	3254.612093259421	2
0	13609	3256.841110608145	3
0	13617	3260.173773186204	4
0	13621	3262.225784843379	5
0	13623	3262.265718584965	6
0	13625	3263.149268015158	7
0	13627	3264.029128142245	8
0	13628	3264.714014772261	7
0	13634	3265.119947602368	6
0	13639	3265.233571661851	5
0	13645	3266.71783669693	4
0	13652	3266.849566879992	5
0	13654	3267.048213463485	6
0	13656	3267.247223892979	7
0	13659	3268.995586960582	6
0	13666	3269.587319761688	5
0	13671	3269.738576479346	4
0	13680	3272.873781889636	3
0	13686	3273.591773460562	2
0	13691	3274.31018879374	1
0	13699	3275.647834468774	0
0	13718	3278.044674583697	1
0	13719	3278.134087461004	0
0	13817	3304.160517912605	1
0	13818	3304.886137438795	0
0	13824	3305.129123317531	1
0	13830	3306.173976727228	2
0	13831	3306.685210307464	1
0	13840	3307.647927447051	2
0	13842	3307.835121672725	3
0	13844	3307.953841909938	4
0	13848	3309.381403064151	5
0	13850	3309.82916074569	6
0	13851	3309.979352559987	5
0	13859	3310.456631642451	4
0	13865	3310.847124153595	5
0	13869	3312.557366596363	4
0	13876	3312.854360917298	5
0	13877	3313.408005047781	4
0	13882	3313.476677862266	3
0	13887	3313.519164257566	2
0	13892	3313.614145201299	1
0	13897	3313.632875940202	0
0	13901	3313.837178819102	1
0	13907	3314.679952616732	2
0	13909	3314.853828487446	3
0	13911	3315.201463398015	4
0	13912	3315.685262136373	3
0	13917	3318.472572070125	2
0	13926	3320.394682201538	1
0	13933	3321.305675088318	0
0	13959	3327.711753475751	1
0	13961	3328.663217928262	2
0	13965	3330.236976381282	3
0	13967	3330.721612355451	4
0	13968	3331.052954810731	3
0	13973	3331.296748459679	2
0	13982	3333.562897998703	1
0	13991	3336.483855564388	2
0	13992	3336.622051155883	1
0	13998	3336.69889487177	2
0	14000	3337.290435050118	1
0	14005	3337.881456875106	0
0	14012	3338.682513800728	1
0	14014	3338.918797111891	0
0	14050	3344.984206567907	1
0	14051	3346.009626215179	0
0	14080	3354.972815836931	1
0	14083	3355.86086732519	0
0	14100	3358.505690445574	1
0	14102	3359.345560218535	2
0	14106	3360.129526904547	3
0	14109	3361.216394857657	2
0	14114	3361.527964267861	1
0	14120	3361.571066621756	2
0	14123	3362.082922480068	1
0	14131	3365.828669338767	0
0	14137	3366.025552783538	1
0	14140	3367.541269242572	0
0	14231	3389.226203290201	1
0	14233	3389.447806071811	0
0	14274	3401.834877092629	1
0	14280	3405.523108844116	0
0	14297	3408.093495681414	1
0	14298	3408.24863265028	0
0	14304	3408.771102249062	1
0	14306	3409.420077891056	2
0	14310	3411.456264313479	1
0	14316	3414.51694054829	0
0	14322	3414.884110885277	1
0	14324	3415.106925610687	0
0	14331	3416.136843409785	1
0	14335	3417.350445095574	2
0	14338	3420.882574193576	1
0	14343	3421.880455537234	0
0	14376	3425.044004561594	1
0	14378	3425.108525441116	2
0	14380	3425.760523814205	1
0	14390	3430.695693916122	0
0	14401	3431.429444891477	1
0	14402	3431.763480733106	0
0	14418	3435.331499668054	1
0	14420	3435.377537704634	2
0	14425	3438.258285544855	1
0	14431	3438.804921600018	0
0	14473	3455.155673731107	1
0	14474	3457.267532928591	0
0	14481	3457.752877230123	1
0	14482	3457.929311145547	0
0	14488	3459.650200933864	1
0	14489	3460.009162012607	0
0	14576	3476.583738555348	1
0	14577	3477.315173335982	0
0	14613	3486.241774300458	1
0	14616	3487.382405443654	0
0	14644	3495.399560315636	1
0	14647	3495.585400012055	0
0	14681	3505.729323685727	1
0	14682	3506.430473706692	0
0	14705	3512.987533796449	1
0	14709	3514.163574823431	2
0	14712	3517.890333691546	1
0	14719	3518.052375170019	2
0	14720	3519.223253670973	1
0	14728	3521.514252547104	2
0	14729	3521.875619731385	1
0	14734	3522.280579125021	0
0	14749	3524.830726415681	1
0	14751	3525.301537554604	2
0	14756	3526.674473359275	1
0	14763	3527.982505101824	0
0	14777	3531.441583880988	1
0	14779	3532.004627988016	0
0	14801	3536.405425191526	1
0	14803	3536.889679866753	2
0	14805	3537.525082779023	3
0	14807	3538.635762496565	4
0	14811	3543.337672591239	5
0	14817	3544.594062725215	6
0	14820	3546.062329025905	5
0	14828	3547.260000941706	4
0	14835	3548.971460962898	3
0	14841	3549.861261914623	4
0	14843	3550.404057034779	5
0	14846	3550.589903742981	4
0	14852	3551.838793203148	5
0	14854	3552.025820498064	6
0	14859	3552.543141401505	7
0	14862	3553.05250487378	6
0	14870	3556.266434976214	5
0	14875	3556.60627827523	4
0	14881	3557.333771980549	5
0	14882	3557.380534879726	4
0	14889	3559.270997158828	3
0	14894	3559.932522798707	2
0	14900	3560.548664199105	3
0	14901	3560.584923822467	2
0	14905	3560.724966581113	3
0	14909	3561.405373094439	4
0	14910	3561.718614968088	3
0	14915	3562.465463539493	2
0	14922	3563.012950788516	3
0	14923	3566.264237078648	2
0	14929	3567.793386195062	1
0	14935	3570.467552587922	0
0	14948	3572.626968919707	1
0	14949	3572.991869473727	0
0	14955	3574.605338679232	1
0	14956	3574.654764496053	0
0	14987	3581.678464343775	1
0	14988	3587.881619758778	0
0	15027	3591.362707153686	1
0	15030	3591.616694694997	0
0	15043	3592.67604919614	1
0	15051	3595.830512429252	0
0	15071	3598.692789884527	1
0	15078	3601.437532684084	0
0	15084	3601.774628695656	1
0	15087	3602.426923700765	0
0	15114	3607.358816909281	1
0	15116	3609.204952497567	2
0	15119	3610.391047447588	1
0	15124	3610.944299218186	0
0	15142	3615.485874459167	1
0	15144	3616.095176562742	2
0	15149	3616.858483030595	3
0	15151	3616.992543647462	2
0	15157	3618.651796664391	1
0	15162	3618.874771076596	0
0	15205	3628.895492254329	1
0	15209	3630.283771886216	0
0	15254	3646.818674603115	1
0	15255	3647.82764221424	0
0	15300	3663.067429453699	1
0	15301	3663.427910750893	0
0	15328	3669.192159654209	1
0	15330	3672.098272433487	2
0	15334	3673.1081287804	3
0	15338	3674.577990452244	2
0	15344	3674.96937073318	3
0	15346	3675.510324736512	4
0	15350	3677.737501439531	5
0	15353	3678.164603200052	4
0	15358	3678.500863718506	3
0	15368	3680.713167556107	2
0	15373	3681.391620908396	1
0	15387	3686.016752372104	0
0	15398	3687.138920423535	1
0	15402	3688.77519829242	2
0	15404	3689.793265611885	3
0	15408	3691.159720290329	2
0	15413	3691.408153883537	1
0	15419	3692.187366994085	0
0	15427	3693.476756541402	1
0	15428	3693.748599290294	0
0	15436	3695.282527062625	1
0	15439	3696.140837341321	0
0	15457	3699.061999604728	1
0	15459	3699.472406894398	2
0	15461	3700.007531235253	1
0	15467	3700.055284416446	2
0	15469	3701.459698364795	1
0	15478	3703.360751108813	2
0	15480	3704.140039304177	3
0	15483	3704.677161168786	4
0	15485	3706.211556968158	5
0	15487	3707.568885534614	4
0	15492	3708.146353309225	3
0	15498	3708.49253226788	4
0	15500	3711.816911070098	3
0	15505	3713.587585192305	2
0	15514	3715.847075966436	1
0	15520	3716.706533199341	2
0	15523	3717.588214297714	1
0	15529	3718.598183117926	2
0	15530	3718.768121723155	1
0	15536	3720.544781692169	2
0	15537	3720.586067298129	1
0	15542	3721.162289888511	0
0	15556	3722.077560387234	1
0	15559	3724.123526364724	0
0	15579	3726.729265136436	1
0	15580	3728.094165887648	0
0	15588	3728.555722053326	1
0	15590	3728.760334055823	2
0	15593	3729.203998696381	1
0	15598	3730.184761043602	0
0	15627	3731.724568817577	1
0	15632	3733.879237005217	2
0	15633	3734.086841804176	1
0	15640	3735.616412974653	0
0	15646	3736.667787102393	1
0	15649	3738.342474930836	0
0	15655	3738.443415410872	1
0	15658	3739.031524225438	2
0	15664	3742.477295634225	3
0	15665	3742.831226011814	2
0	15673	3744.082492923977	3
0	15674	3744.294012805361	2
0	15682	3744.781922541603	3
0	15685	3746.42682798722	4
0	15688	3747.720097979529	3
0	15693	3748.50179727482	2
0	15698	3749.761261960359	1
0	15703	3749.863268593756	0
0	15732	3752.531818353237	1
0	15734	3753.074065756122	0
0	15751	3755.491383606933	1
0	15754	3759.306574606487	0
0	15762	3760.35630731075	1
0	15763	3760.654459465377	0
0	15776	3762.22415655315	1
0	15780	3763.309453651907	0
0	15786	3764.020307494425	1
0	15787	3765.282081758512	0
0	15808	3768.54256722046	1
0	15812	3770.490373540254	0
0	15822	3773.16910663409	1
0	15823	3773.502824115954	0
0	15843	3775.713838134721	1
0	15847	3776.430439709249	0
0	15864	3779.618543430133	1
0	15865	3780.349696958146	0
0	15874	3780.427648054217	1
0	15880	3781.950410766561	2
0	15882	3782.196150261431	3
0	15884	3783.967135698523	4
0	15886	3784.25224082016	5
0	15888	3784.517491330597	6
0	15890	3785.691182236099	7
0	15894	3787.534814254994	8
0	15897	3788.675925987413	9
0	15899	3789.548615394929	10
0	15900	3789.59112398078	9
0	15905	3789.699114313302	8
0	15910	3790.090446489367	7
0	15916	3790.767505171842	6
0	15927	3793.745790009515	5
0	15938	3796.941878189338	4
0	15943	3797.499464059676	3
0	15949	3798.028934118034	4
0	15952	3799.364894949772	3
0	15958	3800.093751583474	2
0	15963	3801.82139556391	1
0	15968	3801.901016758677	0
0	15981	3804.935782797893	1
0	15982	3805.863156873153	0
0	16011	3810.607397809633	1
0	16014	3811.222119551269	0
0	16021	3811.713767703979	1
0	16023	3811.715240964428	2
0	16026	3811.855799174791	3
0	16027	3812.023760280875	2
0	16032	3812.113171839747	1
0	16037	3812.564739954423	0
0	16066	3822.636710675737	1
0	16069	3823.549883109608	0
0	16096	3829.022828417375	1
0	16097	3829.044577047453	0
0	16106	3829.485166321023	1
0	16111	3831.402155692244	0
0	16118	3832.847021659141	1
0	16121	3833.781219388493	2
0	16123	3834.142184622572	1
0	16129	3834.360166231311	2
0	16132	3835.933581446828	1
0	16137	3836.882531528457	0
0	16144	3839.574745083535	1
0	16145	3839.802045290063	0
0	16167	3847.607976704764	1
0	16168	3847.614853406429	0
0	16185	3850.501262698754	1
0	16186	3853.611969501875	0
0	16201	3854.949899058476	1
0	16203	3855.027863051568	2
0	16204	3855.815579555469	1
0	16209	3856.145696824241	0
0	16233	3864.259768296388	1
0	16235	3864.274917926618	2
0	16237	3864.324018521706	3
0	16239	3864.520130746352	4
0	16242	3864.97472816283	3
0	16248	3865.405833946338	2
0	16254	3865.474298074253	3
0	16256	3865.851404881998	4
0	16258	3866.208540585016	5
0	16259	3866.583416828261	4
0	16264	3867.021608537622	3
0	16269	3868.329335960043	2
0	16273	3869.577281209076	3
0	16276	3870.739741145619	2
0	16280	3871.01552054778	3
0	16282	3871.817752090136	4
0	16284	3872.717744457752	5
0	16286	3872.809463648609	6
0	16288	3873.88420416663	7
0	16290	3874.084974248611	8
0	16294	3875.123134964073	9
0	16295	3875.339662462592	8
0	16305	3879.159385073292	9
0	16306	3879.230710147828	8
0	16311	3880.241215406776	7
0	16316	3881.433944092881	6
0	16321	3885.386145069806	5
0	16326	3885.766375222367	4
0	16330	3886.543811083121	5
0	16332	3886.897412859755	6
0	16334	3887.965961306469	7
0	16341	3889.122438994485	6
0	16345	3890.009460078061	7
0	16347	3890.418593615287	8
0	16350	3890.664602815864	7
0	16356	3894.378841246984	6
0	16361	3894.784212555915	5
0	16367	3897.845374877592	4
0	16373	3902.417909414719	3
0	16381	3903.375405529539	4
0	16382	3903.888130429683	3
0	16388	3904.65563981346	2
0	16393	3904.71267963664	1
0	16398	3905.086737719012	0
0	16414	3908.251161495102	1
0	16415	3908.437523495717	0
0	16434	3911.776441498786	1
0	16436	3911.944195001137	2
0	16437	3914.824813275503	1
0	16443	3914.893137489307	2
0	16444	3915.4193629036	1
0	16449	3916.553348282012	0
0	16462	3919.818903949136	1
0	16466	3923.06549800083	0
0	16489	3928.530406997271	1
0	16492	3933.328274294582	0
0	16536	3939.945456918861	1
0	16538	3940.7429697145	0
0	16555	3942.579789955783	1
0	16559	3945.761515606153	2
0	16560	3947.091382020735	1
0	16566	3948.195719945714	0
0	16579	3949.850180329665	1
0	16580	3950.370431098354	0
0	16595	3951.375314364651	1
0	16599	3951.586520396455	2
0	16600	3951.629245942293	1
0	16607	3954.709669325851	0
0	16636	3957.871881844397	1
0	16637	3958.315627900833	0
0	16652	3966.108658420436	1
0	16662	3968.216490907422	0
0	16674	3969.369781981362	1
0	16677	3971.557203136392	0
0	16687	3973.338959180987	1
0	16688	3973.715911210262	0
0	16703	3979.475147119029	1
0	16704	3979.586032743066	0
0	16715	3979.697903849194	1
0	16717	3980.026963775725	0
0	16734	3984.896742402008	1
0	16736	3985.743413620115	0
0	16744	3987.846330778254	1
0	16745	3987.963416073705	0
0	16764	3990.440334084755	1
0	16765	3990.613618921783	0
0	16789	3995.610773407525	1
0	16790	3995.963995188621	0
0	16814	4001.215837665156	1
0	16819	4004.676222086493	0
0	16829	4010.457076202505	1
0	16835	4012.231533110478	0
0	16841	4012.614206297947	1
0	16845	4014.219798038069	2
0	16848	4014.571716412743	1
0	16855	4016.72276307429	2
0	16857	4016.851227539085	3
0	16860	4017.859984620989	4
0	16862	4018.072241986923	3
0	16867	4018.181534045978	2
0	16874	4019.680181893938	3
0	16876	4019.98691818673	4
0	16877	4021.229756147099	3
0	16886	4024.150522155787	2
0	16893	4025.321479865047	1
0	16900	4026.221525037745	2
0	16901	4026.548928533772	1
0	16909	4027.037432441674	2
0	16910	4027.138743205571	1
0	16919	4029.16059922663	0
0	16947	4033.220829611451	1
0	16948	4033.69689574856	0
0	16967	4038.821282825636	1
0	16970	4039.540874877103	0
0	16976	4039.797130345283	1
0	16980	4041.265465344165	0
0	16989	4041.57221097627	1
0	16991	4041.688447478832	2
0	16993	4041.78191400609	3
0	16995	4042.652347198628	4
0	16999	4044.919591655635	3
0	17005	4046.671024403396	2
0	17011	4046.744366362582	3
0	17014	4047.190805634597	2
0	17020	4047.258146058417	3
0	17021	4047.765103904829	2
0	17027	4049.505812391528	3
0	17028	4049.548787935409	2
0	17033	4049.68305080991	1
0	17040	4051.751313020445	0
0	17064	4054.641721523525	1
0	17065	4055.028817369119	0
0	17071	4055.200680657066	1
0	17074	4056.228336313321	2
0	17076	4056.684081608892	3
0	17077	4056.887646503948	2
0	17083	4058.094629729243	1
0	17090	4058.61858847125	0
0	17102	4059.459705378071	1
0	17104	4059.514674416854	2
0	17110	4062.455005306123	3
0	17111	4062.938154322734	2
0	17117	4064.171366429202	1
0	17122	4065.15532435399	0
0	17155	4074.082869265689	1
0	17160	4075.126502554947	0
0	17175	4078.686045092268	1
0	17177	4079.82347605052	0
0	17205	4086.529085595826	1
0	17208	4088.355812911876	0
0	17230	4093.243455139929	1
0	17232	4094.315684189273	2
0	17234	4095.232541408839	3
0	17236	4095.463801787151	4
0	17237	4096.123588214747	3
0	17242	4096.172079574474	2
0	17247	4096.847635449863	1
0	17254	4097.84635328345	0
0	17273	4099.929533267413	1
0	17280	4103.453590855088	0
0	17291	4104.074108317588	1
0	17294	4105.433310576276	2
0	17295	4105.519407375522	1
0	17301	4106.105590158108	0
0	17320	4110.359623472165	1
0	17322	4110.642885153448	2
0	17323	4111.703452904298	1
0	17329	4112.126860565442	0
0	17363	4120.962970942138	1
0	17367	4121.234043562911	2
0	17368	4121.492108260331	1
0	17374	4121.714215148244	2
0	17377	4124.18051624157	1
0	17383	4124.321862303604	0
0	17402	4131.297195992341	1
0	17405	4135.523378548578	0
0	17428	4141.683113007315	1
0	17430	4141.863148791774	2
0	17434	4142.704617011332	3
0	17436	4142.944998473928	4
0	17437	4143.033533860358	3
0	17442	4143.769640952397	2
0	17447	4143.890723224862	1
0	17452	4143.926794935538	0
0	17470	4146.459032636388	1
0	17473	4147.48474793636	0
0	17523	4165.440560633155	1
0	17525	4166.433211160937	2
0	17526	4166.696838729819	1
0	17531	4167.40595293382	0
0	17548	4172.534940422403	1
0	17549	4174.408371086288	0
0	17562	4175.62243426123	1
0	17567	4178.780124733352	0
0	17641	4195.075770272729	1
0	17642	4195.636910001868	0
0	17648	4197.674090924594	1
0	17649	4198.332846011256	0
0	17665	4200.349613361839	1
0	17668	4201.172108525971	0
0	17677	4202.864084695979	1
0	17678	4202.936933912046	0
0	17698	4204.652385194579	1
0	17699	4205.611868273089	0
0	17711	4208.713827176232	1
0	17716	4211.280067488729	0
0	17725	4212.191910308547	1
0	17727	4212.250676102385	2
0	17729	4213.124418532328	1
0	17737	4213.34151038112	2
0	17739	4214.399880505388	1
0	17747	4214.642533257591	2
0	17748	4214.680340147801	1
0	17754	4215.993938178857	0
0	17792	4224.893610293841	1
0	17794	4226.752491024559	2
0	17795	4226.953547708724	1
0	17802	4229.885615664865	0
0	17821	4233.727448045988	1
0	17829	4236.200160652609	0
0	17835	4236.689173587128	1
0	17836	4237.216929292623	0
0	17861	4242.212260671487	1
0	17863	4242.899944446843	2
0	17864	4244.61284254477	1
0	17869	4244.847676437787	0
0	17888	4246.124945890122	1
0	17889	4246.360421732416	0
0	17921	4256.655090343507	1
0	17925	4257.387714186196	2
0	17926	4257.800593856192	1
0	17933	4258.914817154554	2
0	17935	4259.110689003002	3
0	17936	4259.553503788786	2
0	17941	4260.014634139362	1
0	17946	4260.773106599542	0
0	17955	4261.204448628307	1
0	17959	4265.375747945146	0
0	17971	4266.287047198209	1
0	17975	4266.99566807926	0
0	18004	4273.49133077695	1
0	18005	4273.745634050725	0
0	18019	4274.582063750787	1
0	18020	4274.964286490096	0
0	18086	4292.435873156805	1
0	18087	4292.440672711392	0
0	18102	4294.96691834401	1
0	18105	4295.570960734969	2
0	18106	4296.044321940194	1
0	18115	4297.027058767196	0
0	18126	4299.226026501998	1
0	18127	4300.120392650761	0
0	18135	4300.781228622302	1
0	18137	4301.301316342703	0
0	18161	4306.299353769896	1
0	18163	4310.455391335425	0
0	18169	4311.300484384996	1
0	18171	4311.519647440181	0
0	18199	4314.647751655519	1
0	18200	4314.725336786108	0
0	18206	4314.828855826994	1
0	18207	4315.148704310663	0
0	18249	4323.142152613284	1
0	18250	4324.071284268324	0
0	18264	4324.809943200575	1
0	18265	4326.596440661744	0
0	18276	4327.031626534831	1
0	18277	4327.908145645567	0
0	18303	4334.445945287876	1
0	18307	4334.972266531344	2
0	18310	4335.470907909104	1
0	18316	4335.971073628277	2
0	18318	4336.322019652279	3
0	18321	4336.613182166527	2
0	18325	4337.150030516481	3
0	18327	4338.637121786536	4
0	18329	4339.049922990549	5
0	18334	4342.028516746402	6
0	18335	4342.135497232802	5
0	18340	4343.04351578232	4
0	18344	4343.05135367019	5
0	18349	4345.517649521849	4
0	18356	4346.781555262064	5
0	18357	4347.820318581689	4
0	18362	4348.30715110425	3
0	18366	4349.099588416755	4
0	18368	4350.085009936473	5
0	18373	4351.919699640877	4
0	18378	4352.195653822472	3
0	18390	4353.429823415343	4
0	18391	4353.769343088787	3
0	18397	4355.084740028963	2
0	18402	4356.242432990635	1
0	18407	4356.313248949154	0
0	18417	4359.060555002095	1
0	18418	4359.178233626424	0
0	18422	4359.990120501432	1
0	18427	4361.01648838537	0
0	18433	4363.045629958607	1
0	18435	4363.845383978492	0
0	18454	4368.880300566711	1
0	18456	4369.699618415612	2
0	18462	4372.263153667916	3
0	18465	4373.199916289801	2
0	18474	4374.446858385405	1
0	18479	4375.207566318189	0
0	18509	4382.057592010969	1
0	18510	4382.683587135138	0
0	18526	4386.515998931826	1
0	18528	4386.855993268967	2
0	18529	4387.153878941655	1
0	18535	4387.27123445579	2
0	18537	4387.61692073647	3
0	18539	4387.738121119339	2
0	18545	4388.133910644701	1
0	18551	4388.518674696144	2
0	18553	4388.647139609306	3
0	18554	4389.077675985743	2
0	18560	4389.773253077619	1
0	18566	4390.24187327224	0
0	18580	4390.906257429412	1
0	18582	4395.051486682238	2
0	18584	4395.178513821925	3
0	18590	4398.144716385319	4
0	18592	4398.45705504194	3
0	18602	4399.163624593318	2
0	18607	4399.261849128591	1
0	18613	4400.104534227609	0
0	18636	4406.306380614631	1
0	18638	4406.441919548446	2
0	18642	4406.724052943365	3
0	18643	4408.127194647793	2
0	18651	4409.680752562997	1
0	18658	4410.279834424244	2
0	18659	4410.926835947662	1
0	18665	4412.087237304233	0
0	18684	4412.752672820616	1
0	18687	4415.134948131689	0
0	18698	4415.860212712805	1
0	18701	4419.106233620595	0
0	18753	4434.092576525142	1
0	18755	4434.163834372347	2
0	18758	4435.024594586059	1
0	18763	4435.969404116624	0
0	18798	4440.993183441461	1
0	18799	4441.28574425307	0
0	18826	4450.160862412021	1
0	18827	4450.275351579288	0
0	18853	4462.056944308789	1
0	18856	4463.566174666791	0
0	18877	4474.52786015387	1
0	18881	4476.213448080675	0
0	19007	4515.692883191991	1
0	19009	4516.340323508355	2
0	19019	4519.343208566759	3
0	19020	4519.465121854121	2
0	19027	4521.633124131305	3
0	19028	4521.937209752413	2
0	19034	4522.185736690751	3
0	19039	4523.141513049011	2
0	19046	4525.604892986853	3
0	19048	4525.753558024267	4
0	19049	4525.814737743267	3
0	19055	4525.926445831473	2
0	19060	4526.159705797568	1
0	19066	4527.584459076204	0
0	19073	4528.044516922843	1
0	19076	4528.248136979747	2
0	19083	4531.281718096496	3
0	19084	4533.401400385748	2
0	19089	4533.432170820625	1
0	19098	4534.365783864963	0
0	19108	4536.383384994682	1
0	19109	4536.555669626657	0
0	19121	4539.193651104599	1
0	19123	4539.694072290302	0
0	19144	4545.511807596017	1
0	19145	4546.78321703733	0
0	19166	4548.802092251055	1
0	19169	4549.04536437067	0
0	19183	4551.692878303977	1
0	19184	4551.927564391299	0
0	19193	4553.777025811763	1
0	19196	4554.337103055879	0
0	19202	4554.437546250947	1
0	19203	4554.640461419359	0
0	19209	4554.716540179043	1
0	19211	4555.359251970368	0
0	19220	4556.670701105037	1
0	19223	4557.910880727356	0
0	19227	4559.908313770615	1
0	19231	4560.542007322806	2
0	19234	4561.337626804713	1
0	19240	4562.658217323102	0
0	19249	4563.72070948455	1
0	19251	4564.217878154434	2
0	19253	4564.517295221122	3
0	19256	4565.469487071947	2
0	19260	4565.876703904415	3
0	19263	4567.283748135783	2
0	19269	4569.068660285454	1
0	19274	4569.145462596763	0
0	19280	4569.739281695203	1
0	19283	4570.153667420154	0
0	19296	4571.301131705216	1
0	19298	4571.566651724024	2
0	19299	4572.365456914239	1
0	19304	4573.25293478839	0
0	19310	4573.765613160887	1
0	19314	4574.520117618325	0
0	19324	4575.664082009297	1
0	19325	4576.188692465684	0
0	19332	4577.688530780348	1
0	19335	4578.605214453199	2
0	19336	4578.720845054887	1
0	19344	4579.186313365301	0
0	19367	4582.302197131302	1
0	19368	4582.357081338387	0
0	19378	4584.381575960238	1
0	19380	4585.008153205562	2
0	19384	4585.565219624427	3
0	19386	4585.923319474123	4
0	19392	4587.485139465149	5
0	19394	4587.742482855382	6
0	19395	4588.115584872737	5
0	19404	4590.198885200078	6
0	19409	4590.895488149569	7
0	19410	4591.891972269254	6
0	19416	4592.158720008321	7
0	19418	4592.165498487162	8
0	19420	4592.606641529153	7
0	19426	4593.380008280694	6
0	19433	4593.992918544001	5
0	19438	4595.281982730133	4
0	19443	4595.848363278543	3
0	19448	4596.015271251101	2
0	19454	4596.052038888853	3
0	19458	4596.86640712128	4
0	19461	4597.731694164985	3
0	19466	4598.345261907197	2
0	19474	4599.158069522831	3
0	19475	4599.938719940448	2
0	19482	4602.893583497042	3
0	19484	4603.710892405548	2
0	19489	4604.520213199104	1
0	19494	4604.86502740782	0
0	19507	4606.966564204909	1
0	19508	4607.737401733562	0
0	19547	4613.976065737629	1
0	19552	4615.653410097928	2
0	19553	4616.444757382251	1
0	19558	4616.448737919409	0
0	19581	4618.616975087266	1
0	19585	4619.140356827206	2
0	19587	4619.272141277505	3
0	19588	4619.827410461852	2
0	19594	4619.888173261043	3
0	19596	4622.177168516612	2
0	19601	4623.218928428227	1
0	19609	4623.478005248486	2
0	19610	4623.58092152291	1
0	19617	4624.620947375226	0
0	19633	4625.193126826346	1
0	19635	4625.289804180063	2
0	19641	4627.627649479971	1
0	19647	4627.912484909612	2
0	19648	4628.128090665162	1
0	19653	4629.337393400762	0
0	19657	4629.369846857402	1
0	19661	4631.162523399541	2
0	19662	4631.786721001701	1
0	19671	4632.65541693574	2
0	19672	4633.037143963629	1
0	19678	4633.738703906427	2
0	19679	4634.024299919004	1
0	19690	4636.680873825437	0
0	19709	4641.614634139462	1
0	19712	4643.204344984478	0
0	19722	4645.621531760381	1
0	19726	4646.292094313804	2
0	19727	4646.764319021129	1
0	19734	4647.920757561834	2
0	19738	4649.160750951173	3
0	19741	4649.513177643609	4
0	19745	4650.771449308599	3
0	19750	4651.273784179455	2
0	19759	4652.333808839527	3
0	19760	4652.532185567708	2
0	19766	4652.556787223506	3
0	19768	4652.777723904921	4
0	19769	4653.79153729701	3
0	19776	4656.650153270303	2
0	19785	4658.541991380651	3
0	19787	4658.787139516677	4
0	19789	4658.998987258758	5
0	19791	4660.037026720039	6
0	19793	4660.822231845573	7
0	19796	4662.090593582358	6
0	19801	4662.1495256916	5
0	19806	4662.349016125053	4
0	19811	4662.364190954809	3
0	19820	4666.200781497286	2
0	19825	4666.450724906057	1
0	19833	4666.695770511603	2
0	19835	4668.424113488103	3
0	19836	4669.305789992449	2
0	19842	4669.668689745417	3
0	19846	4671.003419213508	2
0	19853	4673.128345342566	1
0	19861	4673.975462916672	2
0	19863	4674.408415639134	3
0	19864	4676.00356662546	2
0	19869	4676.066500636588	1
0	19874	4676.114728056008	0
0	19896	4679.370953991133	1
0	19897	4680.13535158931	0
0	19903	4680.148125229379	1
0	19911	4684.162459505293	0
0	19927	4686.391801088192	1
0	19928	4686.760246983467	0
0	19934	4686.854405843899	1
0	19935	4687.08502350575	0
0	19939	4687.33426114797	1
0	19941	4687.66727588491	2
0	19948	4690.923292560498	3
0	19949	4691.201005615992	2
0	19958	4692.892289380252	1
0	19963	4693.013184197042	0
0	19975	4693.566954444525	1
0	19980	4695.313004253232	0
0	19993	4696.631636281502	1
0	20005	4699.825403005651	2
0	20006	4702.16613959499	1
0	20013	4703.258575435853	0
0	20041	4706.36842876851	1
0	20043	4706.961661854247	2
0	20044	4708.289341635357	1
0	20049	4709.475463321329	0
0	20057	4711.414541330991	1
0	20058	4712.346709442413	0
0	20064	4712.904901688765	1
0	20065	4713.510075438106	0
0	20086	4719.147200324019	1
0	20087	4719.469146866768	0
0	20093	4719.934318631554	1
0	20101	4721.695914677992	0
0	20124	4725.60932740715	1
0	20125	4726.059253349454	0
0	20139	4728.178268128866	1
0	20140	4728.869421843843	0
0	20150	4729.95676294259	1
0	20154	4731.810513443227	2
0	20155	4732.777017129679	1
0	20160	4733.043307453533	0
0	20179	4735.198051636157	1
0	20185	4737.363533808287	0
0	20206	4739.395311416245	1
0	20207	4739.720818817165	0
0	20216	4741.528821286885	1
0	20218	4742.297983465256	2
0	20221	4743.093721436931	1
0	20227	4744.187640143231	0
0	20236	4744.345057213728	1
0	20241	4746.69206744812	0
0	20251	4747.940408810416	1
0	20252	4748.292633181547	0
0	20261	4748.70324304062	1
0	20263	4748.795959097961	2
0	20265	4749.241786281437	3
0	20271	4750.975178904723	2
0	20277	4751.26457002864	1
0	20282	4751.456480482518	0
0	20288	4751.671602722571	1
0	20293	4752.540269481592	0
0	20320	4758.430928662863	1
0	20325	4758.981802915461	2
0	20327	4759.30899668704	1
0	20332	4759.959209200811	0
0	20349	4761.392404874486	1
0	20351	4761.808500207897	0
0	20386	4768.322900153052	1
0	20389	4769.874383577673	0
0	20402	4773.198281009064	1
0	20404	4773.72564747197	2
0	20407	4775.503276793482	1
0	20412	4776.290970662625	0
0	20446	4789.096263462517	1
0	20447	4789.73460666249	0
0	20478	4798.203375009372	1
0	20480	4799.380910396595	0
0	20486	4799.865215155326	1
0	20487	4799.924513294233	0
0	20527	4811.07303007327	1
0	20530	4813.032599649367	0
0	20574	4823.731240976461	1
0	20576	4825.394512422936	0
0	20616	4831.234370135465	1
0	20617	4831.763217202355	0
0	20623	4831.810452397096	1
0	20625	4833.319310232759	0
0	20657	4843.873038794018	1
0	20659	4843.971980859998	2
0	20665	4845.184356564087	3
0	20667	4845.939670603312	4
0	20669	4846.446909090247	5
0	20677	4849.967269947707	6
0	20678	4850.620371773652	5
0	20683	4850.790061469039	4
0	20688	4852.4858749535	3
0	20693	4852.869116160027	2
0	20698	4852.872158901843	1
0	20706	4855.590743139059	0
0	20717	4856.059029757296	1
0	20721	4857.382090338945	2
0	20726	4858.954317439525	3
0	20731	4860.284538760304	4
0	20733	4860.349124734304	5
0	20734	4860.473035236294	4
0	20739	4860.653932789131	3
0	20746	4862.599159795907	2
0	20752	4863.631108369715	3
0	20760	4865.834142978385	2
0	20766	4865.952554297934	3
0	20768	4866.735309228031	4
0	20770	4867.020750754452	3
0	20778	4870.14984149473	2
0	20783	4872.425125387295	1
0	20789	4872.704606133931	2
0	20791	4874.548519570121	1
0	20797	4874.590383714345	2
0	20799	4875.283057422395	3
0	20800	4875.298204143774	2
0	20805	4875.506741923031	1
0	20810	4876.077228517429	0
0	20832	4877.963947207035	1
0	20833	4878.178613580331	0
0	20856	4882.731927502732	1
0	20860	4883.861200451764	0
0	20869	4885.411051043701	1
0	20874	4886.503940517721	0
0	20910	4893.593933130527	1
0	20911	4894.562201826549	0
0	20917	4896.687137062714	1
0	20918	4897.358136671092	0
0	20928	4898.385173578124	1
0	20935	4902.220380305327	0
0	20954	4906.154595061964	1
0	20955	4907.314773110059	0
0	20992	4913.583013378414	1
0	20998	4914.634497497736	0
0	21006	4915.28326681074	1
0	21007	4915.638884979769	0
0	21013	4915.878790774855	1
0	21014	4915.892214196275	0
0	21033	4919.549542491781	1
0	21039	4923.118993402997	2
0	21040	4923.378176922434	1
0	21046	4924.366837950837	0
0	21065	4926.296958393743	1
0	21066	4926.574664232364	0
0	21121	4947.063672762864	1
0	21122	4947.244012806289	0
0	21135	4948.801777319897	1
0	21138	4950.96233049304	0
0	21154	4955.08020218994	1
0	21155	4955.452758650739	0
0	21169	4958.313558245426	1
0	21171	4959.112230809633	0
0	21194	4961.297674133911	1
0	21196	4961.776762449284	2
0	21197	4962.579034694518	1
0	21203	4963.15329401864	2
0	21204	4963.166741213801	1
0	21210	4964.359728336078	0
0	21234	4975.117022993364	1
0	21237	4976.015265206646	0
0	21243	4976.48332395792	1
0	21245	4976.505215861623	2
0	21246	4976.63478576371	1
0	21252	4978.331845155677	0
0	21259	4979.523749260527	1
0	21260	4980.532469228971	0
0	21277	4982.225027518186	1
0	21279	4982.420350570692	2
0	21281	4983.352685329723	1
0	21286	4984.08882123595	0
0	21312	4989.839077798402	1
0	21314	4991.131248133934	2
0	21315	4992.0275993027	1
0	21322	4992.348569559111	2
0	21323	4993.956285864906	1
0	21328	4994.88284021965	0
0	21337	4996.071891553942	1
0	21338	4996.737774213554	0
0	21382	5007.940209206929	1
0	21383	5008.331304704445	0
0	21391	5009.885345822781	1
0	21394	5010.316901537799	2
0	21396	5010.537672184394	3
0	21397	5010.862421025649	2
0	21405	5011.67961382458	1
0	21411	5012.682031205747	2
0	21413	5013.42226570422	1
0	21420	5014.02021983178	0
0	21447	5019.18814866713	1
0	21450	5020.889071770498	0
0	21459	5021.388928024396	1
0	21465	5024.017417641159	0
0	21474	5024.998863950103	1
0	21479	5026.85228297623	2
0	21481	5028.274884482465	3
0	21482	5029.23604055745	2
0	21489	5030.15820113532	1
0	21495	5030.215001797384	2
0	21499	5031.242408995048	3
0	21500	5031.519369081742	2
0	21512	5037.068872326227	1
0	21518	5038.112847467435	0
0	21530	5039.066403834109	1
0	21532	5041.134538659564	0
0	21551	5043.153533022276	1
0	21555	5044.972883897007	2
0	21557	5045.104815497848	3
0	21558	5046.373639466385	2
0	21565	5046.737141853788	3
0	21566	5047.300509837013	2
0	21576	5051.044682161591	1
0	21581	5051.410878828644	0
0	21589	5051.731894823892	1
0	21590	5052.027475431029	0
0	21597	5052.910859685492	1
0	21599	5053.655527594919	0
0	21702	5078.763661109569	1
0	21703	5079.040951072747	0
0	21732	5086.690231120755	1
0	21735	5086.875024684312	0
0	21753	5088.135549568405	1
0	21755	5088.998510577474	2
0	21757	5089.544164833544	3
0	21761	5090.084382618758	4
0	21762	5091.165978721509	3
0	21770	5091.720518419169	2
0	21775	5091.924868635159	1
0	21782	5093.129950907783	0
0	21823	5099.335003836516	1
0	21827	5104.568178745949	2
0	21828	5107.002175968174	1
0	21835	5108.437150519686	0
0	21841	5108.897851846987	1
0	21844	5109.086661776844	2
0	21845	5111.759812487899	1
0	21852	5111.929879548872	0
0	21961	5147.902727956128	1
0	21962	5149.294791281542	0
0	21997	5162.104753514819	1
0	22008	5163.805477656621	0
0	22016	5166.439812340707	1
0	22018	5167.112719445672	2
0	22019	5167.849404048325	1
0	22024	5168.743488899207	0
0	22038	5169.817532753493	1
0	22039	5170.087015426204	0
0	22069	5176.474182980253	1
0	22070	5176.512677319137	0
0	22076	5176.704792745066	1
0	22077	5176.876073111035	0
0	22108	5183.250436156742	1
0	22111	5184.642394703223	0
0	22142	5187.455053556666	1
0	22144	5187.665939307852	2
0	22148	5190.036781389926	1
0	22153	5190.982952293598	0
0	22167	5194.587152173635	1
0	22175	5196.260838223227	2
0	22176	5197.48571855256	1
0	22182	5198.125872770855	2
0	22185	5200.185467751487	3
0	22186	5200.271515167128	2
0	22191	5200.851377351332	1
0	22197	5201.165486234515	0
0	22203	5201.234595153366	1
0	22205	5202.752276963316	0
0	22225	5207.619026771655	1
0	22226	5207.623545228013	0
0	22247	5210.071635829201	1
0	22249	5210.541907172996	2
0	22252	5212.200486117171	3
0	22254	5212.408420124296	4
0	22258	5212.918249157563	5
0	22259	5213.359583053494	4
0	22265	5213.415050523805	5
0	22267	5214.236615584448	4
0	22273	5214.470861603569	3
0	22279	5215.239244776051	2
0	22284	5215.909293894143	1
0	22291	5216.166862545267	0
0	22315	5226.111060062017	1
0	22317	5227.837797340513	2
0	22319	5228.269803880189	3
0	22321	5231.234855930655	4
0	22323	5232.405785354503	5
0	22325	5232.591629520326	6
0	22328	5233.949461049803	5
0	22336	5234.845990262591	6
0	22337	5234.93634958497	5
0	22343	5236.055361607343	4
0	22348	5236.139805116861	3
0	22354	5236.256487972764	4
0	22356	5237.546485828966	3
0	22363	5237.923555715741	4
0	22365	5238.387852672702	3
0	22370	5238.896871846092	2
0	22377	5241.026050256552	1
0	22381	5241.699944818667	2
0	22385	5242.739278648088	3
0	22387	5243.008685766596	4
0	22392	5247.475283474419	3
0	22397	5251.04373717309	2
0	22401	5251.128097561135	3
0	22403	5251.226196796854	4
0	22407	5252.147728782547	3
0	22412	5252.154622198041	2
0	22426	5257.533020995675	1
0	22432	5257.64846956559	2
0	22433	5257.894045264595	1
0	22439	5258.027861219939	2
0	22440	5258.820275885393	1
0	22446	5259.36838164643	0
0	22466	5260.928156233931	1
0	22469	5262.56557647321	2
0	22472	5263.945852434985	1
0	22478	5264.026416221507	2
0	22481	5264.125456967366	3
0	22483	5264.507804506916	2
0	22489	5265.223458475845	1
0	22495	5267.063469902386	0
0	22519	5270.367224517338	1
0	22520	5270.738918498134	0
0	22526	5271.133922707157	1
0	22527	5271.583867021365	0
0	22534	5272.661499495735	1
0	22539	5276.35729408708	0
0	22546	5279.317415088205	1
0	22547	5280.473537450992	0
0	22554	5282.367414590292	1
0	22556	5282.449634263601	2
0	22558	5282.489049706305	3
0	22559	5282.856784586364	2
0	22565	5283.499197710675	3
0	22568	5284.11265708455	2
0	22573	5284.771427381737	1
0	22580	5285.318032682698	2
0	22582	5285.333422394399	3
0	22584	5286.054261777328	2
0	22592	5286.915831642009	1
0	22599	5287.993810089839	2
0	22602	5291.223178099538	1
0	22607	5291.641894699499	0
0	22613	5291.949541901451	1
0	22614	5292.539479728688	0
0	22627	5293.508273591516	1
0	22629	5294.809924568226	0
0	22635	5294.8140446355	1
0	22636	5295.5419497411	0
0	22655	5298.040422496745	1
0	22659	5299.98607738103	0
0	22671	5301.211846109755	1
0	22674	5302.609460920903	0
0	22695	5305.088180961899	1
0	22699	5308.873358360818	2
0	22706	5309.831512505041	3
0	22707	5310.889818492025	2
0	22712	5311.223614854133	1
0	22717	5311.435329009834	0
0	22728	5314.376335098399	1
0	22735	5318.384682569739	0
0	22749	5321.135361493172	1
0	22752	5322.140080482511	0
0	22789	5329.949546758985	1
0	22794	5332.616224915721	2
0	22795	5332.734766526056	1
0	22800	5333.923814687828	0
0	22806	5334.534681824243	1
0	22809	5334.878460133844	0
0	22824	5335.789295310322	1
0	22829	5337.684941520986	0
0	22835	5338.323982077023	1
0	22838	5340.067536336488	0
0	22854	5342.143587436144	1
0	22856	5344.56529578822	2
0	22857	5345.776273658021	1
0	22863	5347.999821809176	0
0	22869	5348.187775190554	1
0	22871	5348.193147354293	2
0	22872	5348.548262275809	1
0	22877	5348.987604219608	0
0	22887	5349.931929951923	1
0	22888	5350.6407197262	0
0	22903	5353.931268203318	1
0	22907	5354.045495398728	2
0	22909	5354.120478440932	3
0	22910	5354.357472389875	2
0	22917	5355.887438294643	3
0	22921	5357.378577242584	2
0	22927	5357.659901173783	3
0	22928	5358.618927109324	2
0	22933	5359.40598622524	1
0	22941	5360.181750855124	0
0	22952	5360.764092902706	1
0	22953	5360.958919099844	0
0	22978	5363.691356797644	1
0	22985	5369.183752553229	2
0	22988	5369.745595536388	1
0	22994	5371.791068318473	0
0	23036	5381.22689494851	1
0	23038	5381.394476690835	2
0	23040	5382.25291326524	3
0	23042	5383.167940636671	4
0	23043	5384.231714561109	3
0	23049	5385.797993760187	4
0	23053	5386.244722328362	5
0	23055	5387.344376438757	6
0	23056	5387.754880393765	5
0	23062	5388.766178399975	4
0	23069	5390.564396982334	3
0	23075	5390.614883203755	4
0	23076	5391.11880863243	3
0	23081	5392.088851198069	2
0	23087	5392.837344422103	1
0	23096	5394.644357596213	2
[...]
5	118066	27695.867748614269	5.204399012355
5	118085	27697.699252889194	2.546967575036
5	118095	27707.677707300095	6.692722304574
5	118125	27716.933184876765	1.669575243713
5	118190	27736.985668499667	4.366019713764
5	118200	27739.650586108634	1.332059459154
5	118243	27757.083251593552	4.782097580624
5	118253	27761.046502951091	4.44407234107
5	118261	27762.43240095141	0.23055451698
5	118317	27776.40455160825	1.210422750904
5	118331	27778.278022932592	0.743862341364
5	118355	27783.932486754608	4.233951605239
5	118500	27809.80106838187	27.130314505061
5	118508	27811.257754477329	24.58515678352
5	118525	27813.022685435768	25.915373532183
5	118540	27815.827843884422	28.71547920742
5	118549	27820.556263502807	21.567728168443
5	118570	27824.435349487376	24.288763459709
5	118575	27824.478982288312	19.274274360925
5	118586	27827.316775352869	15.048354985427
5	118591	27827.469657005294	13.807237546713
5	118604	27829.619112748172	15.415285043985
5	118669	27846.172650192489	25.344970893916
5	118715	27853.193273361192	27.755967877102
5	118720	27853.732719694763	27.098128445518
5	118725	27853.761188511475	25.583282634954
5	118730	27854.422448847699	22.277696204166
5	118739	27855.032675003989	15.993345331214
5	118747	27856.786859252126	11.634408207491
5	118759	27858.811844492019	8.333023292584
5	118770	27862.000785401956	11.513232015999
5	118781	27863.516531771684	8.713587716005
5	118789	27865.33502982169	6.989791102005
5	118799	27866.235710728882	5.941333654917
5	118814	27872.684395342984	6.283780061867
5	118839	27876.725422458449	5.60598961313
5	118890	27886.583396614641	0.847025347016
5	118905	27894.860220342026	0.061303624913
5	118919	27903.52015032776	0.347868884377
5	118928	27910.118710999858	0.886182988313
5	118938	27913.99755706425	2.837789486857
5	119120	27955.956926279128	29.251260139133
5	119171	27961.145782323906	13.872293770363
5	119252	27981.949634865798	33.876226501541
5	119259	27982.574799633049	33.147410170157
5	119269	27984.29790792755	33.263099996738
5	119290	27991.170552801153	38.161364095284
5	119324	28006.621701065571	49.287767950383
5	119372	28018.727619316787	60.43104464535
5	119377	28019.48550992347	54.558986125062
5	119386	28021.552602203524	54.73018283524
5	119407	28024.979603373355	51.273734322652
5	119435	28030.582709899272	47.835530124277
5	119442	28030.93573769706	44.811564695111
5	119452	28031.134684765587	42.71504676865
5	119462	28034.625990921819	43.549067673155
5	119469	28035.377833781679	1.608127159851
5	119489	28037.572857376542	3.405404324376
5	119496	28042.747822578016	0.307534442978
5	119520	28052.828973868415	3.433864432855
5	119570	28069.103629506899	2.74976476002
5	119580	28070.616411524701	0.743153225231
5	119587	28071.798709823737	1.923242225473
5	119595	28073.281298681632	2.56873925288
5	119642	28093.955759531334	1.628405715974
5	119671	28100.271285357527	1.110445237977
5	119691	28109.589072849174	6.509688623678
5	119698	28111.045992167326	0.10422692071
5	119716	28116.817418578386	0.91460721022
5	119725	28118.798492632975	2.004292825348
5	119745	28124.883156092236	1.932773811701
5	119761	28129.00139683915	0.67880968634
5	119770	28131.268747272485	1.321374843885
5	119801	28138.937606429603	0.695764370997
5	119836	28152.752181375081	1.636704424713
5	119841	28154.807694951842	2.766358244956
5	119889	28164.374941516239	3.38315835598
5	119898	28167.107130404428	1.054251649951
5	119906	28169.435381449026	0.739148404548
5	119920	28171.494114543414	1.840334658069
5	119934	28172.470383181798	2.343181216613
5	119949	28173.243101677012	0.422284755474
5	119998	28179.975508916632	5.410493485821
5	120040	28186.583764485225	1.753548782454
5	120044	28186.751949308821	1.289315137646
5	120057	28189.831854837603	2.857735148422
5	120074	28194.709968658433	2.96820724852
5	120078	28195.510682734933	3.163971359633
5	120111	28198.506482756218	0.486038106687
5	120120	28199.308574703267	0.987064081392
5	120142	28201.681616643958	1.329020901303
5	120157	28203.835608357922	2.905390080496
5	120164	28204.855468652192	2.503148525547
5	120172	28207.066128594335	4.599870326166
5	120179	28207.863580355451	5.018883736407
5	120194	28214.117235336521	11.050723373463
5	120201	28217.405081340006	14.286219954482
5	120215	28220.425880931857	15.259425392495
5	120246	28224.618668585756	13.327331150101
5	120251	28224.930594173671	11.089350479998
5	120258	28225.809708297329	7.174248579781
5	120267	28228.237736834767	5.794103450957
5	120277	28230.071793884364	4.691911111628
5	120285	28231.774455556913	4.884427283172
5	120312	28237.359595917899	0.697096476897
5	120336	28244.71617670988	2.954437807792
5	120464	28269.844238000587	22.653194471407
5	120474	28276.684433257665	20.869563104089
5	120497	28279.40970602606	19.643178674254
5	120524	28283.420116618914	11.782544465595
5	120619	28300.032935895353	22.906481356581
5	120687	28314.278832184288	25.577300343197
5	120698	28315.725581451385	23.991909567919
5	120715	28317.208825851171	23.243326910058
5	120724	28319.860880592103	23.304853035815
5	120729	28320.179240156209	19.012422141845
5	120736	28321.483123160471	19.090719821215
5	120745	28323.459538334239	15.710498996024
5	120756	28323.979815160239	14.543584039634
5	120765	28327.500928132196	8.345167411228
5	120809	28339.089160116039	17.911527722045
5	120898	28351.098284695891	27.837419978973
5	120909	28353.983431167115	25.626189558765
5	120918	28354.695303979449	25.651774083937
5	120961	28368.606864901275	38.042835481627
5	120966	28368.663031915626	36.426765687422
5	120971	28369.325514126573	35.888892822129
5	120978	28370.520406684133	24.904722819957
5	120991	28372.411714842096	22.104775553266
5	121011	28379.410092847711	15.26040820676
5	121043	28387.154673484836	22.527701296517
5	121054	28387.275680132312	15.879298345814
5	121061	28388.273928985758	15.196648811899
5	121074	28392.0166311457	16.062448534482
5	121111	28398.057909791266	20.327148642608
5	121130	28404.262635549428	24.315218366141
5	121160	28409.463362801878	29.202106664121
5	121233	28423.764152551984	36.337275605339
5	121245	28429.485976484055	33.729056321004
5	121254	28431.659549697957	34.522132049636
5	121278	28438.03194032139	39.646078876757
5	121300	28443.044493867812	43.912733712907
5	121318	28446.65552566757	47.505184506955
5	121328	28450.883799388588	33.500353477846
5	121341	28456.30929366451	10.128102592591
5	121370	28468.950443029742	18.460195020946
5	121375	28469.41498760364	15.81956446277
5	121382	28472.350543166361	15.043406542167
5	121392	28473.932270265633	11.497841065019
5	121401	28478.424787493236	10.8205348644
5	121415	28480.648492749654	3.346123118285
5	121432	28482.791086604281	2.230320612202
5	121448	28488.37106268512	0.050439577721
5	121476	28497.967015362881	5.4908736008
5	121522	28503.938728881666	10.545153205784
5	121527	28504.844147935007	9.698690044734
5	121535	28508.434440038636	7.406400205783
5	121541	28509.74183077868	7.040975377402
5	121554	28516.352925583267	9.287911014298
5	121660	28534.597452814136	10.87140669305
5	121667	28535.696556444992	4.688934612382
5	121685	28539.579959028767	4.592048555052
5	121721	28543.511328294588	6.991886988493
5	121731	28545.946889993932	9.236131171062
5	121742	28547.944089645563	11.029741394527
5	121751	28551.602566542857	9.793170284342
5	121756	28552.956407452282	8.157768443846
5	121766	28556.004990902159	6.014983982045
5	121776	28556.650334458195	5.581615734654
5	121788	28560.621905730553	6.631306761132
5	121805	28564.247346668182	6.523591043845
5	121920	28586.158151267491	4.088646674562
5	121951	28595.330630627207	3.052670437013
5	121961	28596.998212844254	0.678072106025
5	121990	28604.063269187895	0.157178213186
5	121998	28606.068332641652	1.497432430616
5	122013	28608.232677324253	0.231272552934
5	122045	28611.785503534639	1.918080419639
5	122077	28619.137604440516	9.258321188294
5	122088	28621.027351343768	6.14107626683
5	122100	28623.511165510624	4.279849402658
5	122113	28627.545030085926	4.691723623527
5	122134	28631.9975679415	7.37375424716
5	122162	28651.356702064804	0.016695923302
5	122214	28670.278634632218	0.928241441987
5	122225	28671.535403198446	0.350870849689
5	122292	28690.447000999787	7.408699613316
5	122312	28695.431156555502	2.718855400689
5	122359	28702.28649638123	2.59760810859
5	122403	28711.427269332748	0.415163515268
5	122428	28718.491354208621	1.479383112474
5	122432	28719.409847718851	2.082347258318
5	122440	28720.685040425813	0.955609616211
5	122459	28726.67040625991	4.999085967321
5	122472	28730.006145672313	7.680516865676
5	122484	28733.550766373322	9.18097550394
5	122495	28737.160265024175	12.337106935237
5	122504	28739.782002571562	13.245875390629
5	122513	28740.529119262336	0.958303005868
5	122528	28743.767317669302	3.675833306455
5	122560	28757.072505141106	16.181615401726
5	122578	28758.221355245558	11.944065473896
5	122583	28759.363214786361	8.800203416913
5	122588	28760.189258152909	9.220865545486
5	122599	28763.935007207276	8.341454993937
5	122630	28771.729348046165	11.370198278609
5	122644	28773.332942073806	9.221925763201
5	122662	28778.729902053165	13.789168418638
5	122721	28785.853008622124	18.528758618178
5	122771	28794.182175245175	16.740448475308
5	122780	28796.301995098512	16.303650856495
5	122785	28796.450794817646	12.62502541249
5	122796	28798.65736044306	13.879825282322
5	122838	28804.171017193704	18.442907032656
5	122843	28804.174478877893	15.332310143162
5	122852	28805.906525876944	14.042067820475
5	122862	28807.507163593197	12.285065074155
5	122866	28809.532811940701	9.312971799746
5	122877	28814.973093016072	1.250062922861
5	122910	28821.652307985288	1.211918453725
5	122945	28836.704994486257	4.623360047266
5	122953	28838.168613883294	3.867993008047
5	122966	28840.552994397475	3.840868592968
5	122994	28844.979034169242	4.595342384898
5	123023	28853.086816815552	0.022199728332
5	123034	28854.200208197898	0.873723913141
5	123038	28854.38689935953	0.561065059816
5	123045	28855.937401436931	1.148737152678
5	123062	28861.786133020383	2.490974583178
5	123116	28871.761289022731	10.936441491713
5	123146	28876.371853780475	0.019104322859
5	123155	28879.721497079658	2.328223575001
5	123186	28885.050267418203	5.025446580666
5	123201	28891.201000528223	6.227650851636
5	123226	28894.431365050078	8.263957819683
5	123239	28898.643846790386	11.743806758017
5	123253	28902.168539336323	12.628135709242
5	123260	28904.998431307482	12.434230868075
5	123281	28915.610104071005	19.423698129986
5	123297	28918.735605484277	21.712686730934
5	123305	28920.066286518767	20.720908451096
5	123315	28920.438195890026	8.397136453155
5	123319	28920.734649283801	7.988929057001
5	123340	28922.595768075968	0.256064569599
5	123398	28931.464463591922	4.56175514259
5	123414	28934.839710606539	1.9294388727
5	123484	28947.504024458454	0.613090110421
5	123490	28947.87522813751	0.923612040738
5	123499	28955.35034813558	1.185870267614
5	123506	28961.535874971927	1.243394208997
5	123533	28967.760815563498	1.495262080938
5	123553	28969.882811405697	0.828657442794
5	123563	28970.625540361993	0.556678751023
5	123567	28973.044484529338	2.509663928716
5	123582	28976.675456604289	0.376883293139
5	123589	28978.261443368344	1.184265916211
5	123621	28983.867180337416	4.869063204074
5	123643	28990.326057738013	2.633218198726
5	123656	28991.713301362295	2.811971012634
5	123705	29003.462284428197	13.841394203879
5	123716	29004.745685159914	7.838201311537
5	123751	29016.027053827273	2.672225680795
5	123773	29017.762081243314	1.05556417238
5	123783	29019.959167207113	2.249565267591
5	123853	29030.5360209635	6.574190645083
5	123858	29033.304452162183	6.655418326851
5	123868	29035.46643375594	8.76497057014
5	123881	29037.212771873687	7.799953924185
5	123893	29041.420132872721	10.950373168135
5	123901	29041.790336145133	7.083505432902
5	123906	29042.034400497882	2.720501239309
5	123924	29047.735300879045	6.179224835378
5	123982	29057.200023499176	11.914760305343
5	123989	29057.303765995121	11.706521683774
5	124017	29062.345772363766	13.158013147033
5	124029	29070.394898175454	15.493463846852
5	124039	29071.637459266041	15.357770421027
5	124044	29072.578408669604	6.333355316259
5	124048	29073.548977059961	3.727030982028
5	124102	29083.246561158348	0.613644706757
5	124109	29085.509325350942	0.777200475257
5	124116	29086.213196688757	0.186242463667
5	124125	29091.486253585799	1.58425387492
5	124146	29096.674076934707	0.024133990509
5	124163	29099.129743456766	1.659178224204
5	124173	29099.465681494518	1.482100802942
5	124183	29104.403786908319	6.316185534389
5	124195	29108.327061534673	4.386695672988
5	124241	29116.11860333057	1.059147051747
5	124252	29116.576056810495	0.361702829091
5	124298	29127.152533065167	0.482540024288
5	124316	29129.901489098208	1.435989925818
5	124326	29131.987155456415	3.485841727287
5	124333	29132.651045659893	3.137198884458
5	124344	29134.111322851915	4.063848932677
5	124350	29135.314574420571	5.061187724523
5	124383	29145.970255190483	0.747015523583
5	124396	29147.922615707447	1.851305063991
5	124416	29153.044818161519	1.399797571148
5	124427	29156.274167167947	2.335990960842
5	124431	29156.793429281275	1.181139653787
5	124441	29159.169958154932	0.720990203277
5	124494	29168.295246757724	6.464244768445
5	124502	29170.046929257808	3.027688503017
5	124520	29177.254531785392	1.046216642536
5	124533	29178.982504538877	2.103863534766
5	124570	29184.84626214903	6.042892737612
5	124632	29192.603640924508	8.46483350484
5	124638	29194.048362006509	8.899288154637
5	124648	29196.07118272776	5.696048665946
5	124676	29202.988808330042	7.492204364029
5	124683	29204.230522533091	6.526172384747
5	124711	29211.057455041333	12.553448507864
5	124716	29211.243825649156	9.523893617343
5	124726	29212.609721919057	6.45158436183
5	124738	29214.051197103902	7.320449592434
5	124754	29219.759592290432	11.120493860179
5	124765	29223.718185419102	14.42351005783
5	124799	29228.029655125342	15.529522663789
5	124809	29229.402908761788	14.584129695147
5	124823	29233.629941451635	17.249396179823
5	124856	29238.938188490691	14.120947042168
5	124866	29241.337137959268	11.160582610214
5	124873	29242.035146742794	2.228579766305
5	124883	29243.233844725862	2.463941709902
5	124964	29268.176889476729	3.686193960627
5	124970	29269.667517951962	3.827929870488
5	124978	29271.135133585235	5.198787429538
5	125000	29276.360842437017	9.581583714422
5	125005	29280.408775638239	7.326256269152
5	125012	29282.970158544805	1.844336093871
5	125088	29304.927987557755	2.257979118131
5	125116	29312.117117283969	5.362195260672
5	125136	29316.252996457274	1.495250161831
5	125140	29316.565698030878	1.461424253088
5	125167	29326.187167413791	2.078277907215
5	125171	29326.972323915607	0.850654151012
5	125204	29333.760331399596	1.457288749582
5	125211	29335.575146050388	1.918987518509
5	125220	29340.911291687342	5.886141833681
5	125240	29345.448380867237	0.994758398309
5	125291	29358.199910367986	1.051315844996
5	125336	29372.858254243252	5.192166341431
5	125353	29375.19686171346	0.926114796335
5	125363	29376.185321358483	0.695150495581
5	125379	29377.951203165346	1.286760899303
5	125408	29388.575048825098	2.746135499039
5	125447	29394.695287768475	3.745732252483
5	125458	29395.212832916346	3.796977095778
5	125488	29401.164451399753	9.50536467852
5	125493	29401.350163230092	7.645138108369
5	125499	29402.938915303375	7.735202248638
5	125505	29404.802164964872	8.942037849441
5	125514	29405.773461254983	5.196672959106
5	125563	29422.034940173842	0.578924034438
5	125603	29427.702692649682	0.503220180115
5	125647	29433.891870844252	0.812609708136
5	125669	29441.767680248017	1.790035131296
5	125683	29446.206348159042	1.598841881367
5	125696	29447.187420761568	1.73947334619
5	125705	29448.882052157632	2.319846478468
5	125779	29460.72009107279	6.649649353343
5	125799	29464.700229152504	2.459186820429
5	125811	29465.902490942284	3.333726469677
5	125823	29468.943436503682	3.937685952754
5	125844	29472.635542010965	5.408833952772
5	125854	29477.028974257816	5.871255249583
5	125864	29478.748691647024	6.791307318308
5	125897	29482.238940546757	3.12628529814
5	125904	29482.805181696572	0.659534335239
5	125936	29490.797931764288	7.549029459122
5	125950	29493.550629362478	5.661769119928
5	125965	29495.99472862552	6.74196717135
5	126011	29501.374065642222	4.763875639132
5	126058	29514.9326859193	1.189779940952
5	126101	29520.943861316426	1.277495755154
5	126117	29522.593933894751	2.368512491039
5	126129	29523.105097043768	1.50062584589
5	126159	29529.934833151011	1.015478113788
5	126177	29531.632985218528	1.289741351932
5	126184	29531.825206753068	1.210882878479
5	126205	29534.889289156052	1.790966086192
5	126236	29556.002922241183	3.998937774827
5	126249	29562.421286085536	8.647670983724
5	126280	29567.821800115099	12.420146755829
5	126292	29575.829760677814	17.355200257118
5	126335	29581.670675073158	5.25827962089
5	126357	29589.240135869904	0.515108658561
5	126379	29599.460431292737	0.242956345941
5	126415	29608.088088182428	2.19329811184
5	126444	29614.13203152041	1.955261134744
5	126479	29630.613655540704	8.19019511146
5	126525	29642.968431602557	19.346234585162
5	126531	29645.690030884261	6.807033725769
5	126539	29648.119943638892	8.368382472465
5	126549	29649.135066071367	9.296608327121
5	126559	29649.61355356399	0.197607517496
5	126569	29653.68860255443	4.231603381788
5	126582	29654.165262620868	2.432370107375
5	126593	29659.004890554703	5.214531275917
5	126632	29664.562263480889	0.713401748041
5	126657	29669.33700491526	4.682409282976
5	126662	29669.443194898787	4.546804886686
5	126667	29670.268988877451	5.274154533139
5	126677	29674.519406556614	8.480146118278
5	126688	29678.520974547801	12.050901253444
5	126695	29679.59341051222	10.986298064766
5	126704	29680.288740554691	5.772415400306
5	126733	29683.869649937943	1.120548112443
5	126740	29686.199630223842	2.508914332683
5	126747	29688.843362376993	3.336051379999
5	126751	29689.880766805039	3.418534202864
5	126782	29703.706466543682	5.671711992872
5	126797	29707.258201330387	7.457520246454
5	126802	29708.352465765715	3.861401371627
5	126811	29714.508708777231	7.553245327189
5	126822	29716.357242695158	6.23953177508
5	126832	29717.413911949817	0.512734628806
5	126847	29723.107148291225	2.675952799289
5	126898	29738.46647589225	1.034992572616
5	126961	29752.143382379228	10.529414369469
5	126966	29753.505920498926	10.29218343384
5	126976	29754.560946944944	0.673642317148
5	127054	29775.207895442359	3.567835287651
5	127064	29776.623206376568	3.017602668459
5	127068	29777.254062880212	3.238553673149
5	127091	29781.27887170537	0.162824791077
5	127111	29787.60195581961	5.418327731768
5	127126	29792.438645390195	8.22913443601
5	127157	29796.617654302047	6.591684796808
5	127162	29797.062459418967	2.294196877221
5	127170	29800.02639006515	0.817224783121
5	127295	29830.291004701062	10.541224702161
5	127301	29830.890605703196	3.104802235241
5	127308	29833.313689541549	5.363842587866
5	127317	29834.219612544853	4.276204659582
5	127345	29841.127638393961	2.66558347017
5	127349	29841.895075220532	1.232912550643
5	127369	29846.413257259441	4.317664015079
5	127388	29849.965999245612	5.118539825209
5	127410	29853.427481802698	6.036558364823
5	127418	29857.158855510913	9.633946049112
5	127423	29857.216177824615	9.613016459214
5	127430	29857.69248724362	5.346535669941
5	127439	29861.71619455012	4.256969242246
5	127457	29863.52963540069	0.34355868177
5	127490	29873.180858089738	4.765868371356
5	127494	29873.337155261418	4.201560912756
5	127522	29888.641463539736	1.972970393949
5	127534	29892.956064244165	2.296354027682
5	127560	29895.587331481526	0.787156194219
5	127591	29902.683720820161	6.86498039742
5	127639	29915.17177157236	18.316993574983
5	127644	29918.97207558601	20.94250785764
5	127648	29919.257957191066	17.325491710448
5	127658	29923.322916463532	3.694781420531
5	127665	29924.207867480294	1.043695363896
5	127729	29938.93406594778	0.592069919925
5	127806	29952.391798552538	1.678411342455
5	127843	29963.139452013561	3.393817884855
5	127874	29968.038817566741	5.516348315744
5	127878	29968.253626222657	0.853596958067
5	127910	29979.529711639159	3.310196033532
5	127975	29993.37403102417	4.016658954787

