version 2
run Second-n5-13-20191016-14:53:34-8168
attr configname Second-n5
attr datetime 20191016-14:53:34
attr experiment Second-n5
attr inifile omnetpp.ini
attr iterationvars ""
attr iterationvarsf ""
attr measurement ""
attr network org.omnetpp.queueing.Pizza
attr processid 8168
attr repetition 13
attr replication ""
attr resultdir results
attr runnumber 13
attr seedset 13
param **.PS.maxInventoriedPS 5
param **.U1.interArrivalTime exponential(3s)
param **.U2.interArrivalTime exponential(5s)
param **.PS.serviceTimeForInventoryU1 exponential(1.0s)
param **.PS.serviceTimeForInventoryU2 exponential(1.2s)
param **.PS.serviceTimeDirectU1 exponential(1.4s)
param **.PS.serviceTimeDirectU2 exponential(1.4s)
param **.PS.probabilityProducing 0.7
param **.CS.serviceTimeU1 exponential(1.1s)
param **.CS.serviceTimeU2 exponential(1.4s)

vector 0 Pizza.EntryQueueU1 queueLength:vector ETV
attr interpolationmode sample-hold
attr title "queue length, vector"
vector 1 Pizza.CS queueLength:vector ETV
attr interpolationmode sample-hold
attr title "queue length, vector"
vector 2 Pizza.EntryQueueU2 queueLength:vector ETV
attr interpolationmode sample-hold
attr title "queue length, vector"
vector 3 Pizza.sink lifeTime:vector ETV
attr interpolationmode none
attr title "lifetime of arrived jobs, vector"
attr unit s
vector 4 Pizza.sink lifeTimeU2:vector ETV
attr interpolationmode none
attr title "lifetime of arrived jobs, vector"
attr unit s
0	0	0	0
0	7	5.324835378102	1
0	14	11.215102530395	0
0	25	12.029129270795	1
0	26	12.168995606313	0
0	72	21.590056765483	1
0	73	22.937171706491	0
0	131	32.721168555128	1
0	134	33.166620028117	2
0	135	33.241654581829	1
0	140	33.422739987545	0
0	180	41.076511465357	1
0	182	43.829234705339	0
0	191	45.210844058592	1
0	192	46.517960554765	0
0	209	51.388157970457	1
0	214	52.719422564993	2
0	216	53.133618057694	3
0	217	53.489176260548	2
0	222	53.73688331831	1
0	232	57.637875446833	2
0	233	58.169781102234	1
0	238	58.299757837134	0
0	275	70.586085770817	1
0	276	71.524157665823	0
0	330	91.281722031656	1
0	334	93.369919581252	0
0	395	116.915023696223	1
0	396	116.961914180832	0
0	412	122.769407158823	1
0	418	124.275732391919	2
0	419	124.445777482963	1
0	424	124.540744699931	0
0	487	141.957899183733	1
0	491	142.383965202987	2
0	492	142.423828226516	1
0	498	143.870705712236	0
0	511	145.9231354143	1
0	513	146.603479231437	2
0	514	147.41818284252	1
0	520	147.965866276361	0
0	533	150.460656112632	1
0	540	151.441436848687	2
0	541	151.596893140091	1
0	547	151.733766118954	2
0	548	152.845658684448	1
0	556	154.0879676242	0
0	580	157.115929288786	1
0	582	160.431968176185	2
0	583	161.016656654717	1
0	589	161.7709827114	2
0	590	162.748601666627	1
0	596	163.104944685565	2
0	599	163.776113024231	3
0	601	166.183275407944	2
0	610	166.849663130781	3
0	611	166.90274645427	2
0	618	167.211481644447	3
0	620	168.238584476975	4
0	621	168.344714642795	3
0	626	168.400219436222	2
0	635	169.99088120633	1
0	642	171.264335901377	0
0	668	176.041642364824	1
0	669	177.975239322691	0
0	688	179.607060235431	1
0	690	179.847638840638	2
0	691	180.997899938669	1
0	703	184.422375722606	0
0	721	185.949642363272	1
0	728	188.861462193825	0
0	752	192.97904235841	1
0	757	194.865483738422	0
0	767	196.562800819484	1
0	768	196.909907679301	0
0	814	207.743620502657	1
0	818	209.630238784906	0
0	833	210.218836235975	1
0	834	210.73965293891	0
0	875	220.25063605652	1
0	879	223.895880836977	0
0	898	227.393423626099	1
0	899	228.192232338454	0
0	961	240.381677508594	1
0	963	240.446567274791	2
0	965	240.796162717664	3
0	967	240.981291763575	4
0	968	243.0764519796	3
0	977	244.408805384481	2
0	982	244.61515401579	1
0	989	249.229508759831	0
0	996	249.950842443969	1
0	997	251.345465410288	0
0	1006	253.851637745931	1
0	1007	254.60307323797	0
0	1019	255.553772368526	1
0	1020	256.540823339634	0
0	1036	257.483702129127	1
0	1038	257.797511326785	0
0	1055	259.668231309812	1
0	1056	259.748009606216	0
0	1072	261.145420734359	1
0	1075	261.656216814988	0
0	1082	263.422609086642	1
0	1087	266.635239750595	0
0	1147	283.108408661738	1
0	1150	287.049218694259	0
0	1165	292.105984072406	1
0	1168	293.389039460069	2
0	1173	295.326656059591	1
0	1180	296.293874474471	2
0	1183	296.574706417893	1
0	1188	297.267020831346	0
0	1199	299.73147281448	1
0	1200	300.977319782625	0
0	1212	305.018194614541	1
0	1214	305.818358944873	0
0	1220	306.658247748083	1
0	1221	307.523330454782	0
0	1227	307.982842145542	1
0	1232	310.204480717659	0
0	1256	322.693888475571	1
0	1258	322.827438899288	2
0	1261	323.860269106911	3
0	1263	324.463360693578	4
0	1265	324.62416591058	5
0	1267	325.758151181555	6
0	1268	327.660619635687	5
0	1275	327.93264025321	4
0	1281	328.869870991556	5
0	1282	329.211495750596	4
0	1288	329.861863169805	5
0	1290	330.262311902833	6
0	1292	331.337482940179	5
0	1298	331.808001943045	4
0	1308	333.885321783547	5
0	1309	334.143613739351	4
0	1314	334.246886586618	3
0	1320	334.594480253278	2
0	1325	335.462702624447	1
0	1330	335.469455250345	0
0	1342	335.880092148337	1
0	1344	337.981611725196	0
0	1368	343.149171507873	1
0	1369	343.647977347077	0
0	1375	344.238826105318	1
0	1376	344.58869150457	0
0	1384	345.438937293357	1
0	1385	346.141494936837	0
0	1395	348.708489156433	1
0	1397	350.67973825532	2
0	1398	353.600206189875	1
0	1404	353.874520744362	0
0	1419	356.851000607313	1
0	1422	359.3001636625	0
0	1429	360.065491575829	1
0	1430	360.156569469712	0
0	1437	360.948245616946	1
0	1439	361.136899359193	2
0	1444	361.781975594868	3
0	1445	362.657074335049	2
0	1451	364.994359039323	1
0	1459	367.035269841594	0
0	1481	368.414704017628	1
0	1484	369.204045915307	0
0	1537	382.30924173	1
0	1541	382.657286316583	2
0	1543	383.148981215377	3
0	1545	383.159298012165	4
0	1548	383.420512198961	3
0	1554	384.965451707275	2
0	1560	385.332022520563	3
0	1562	386.105477131154	2
0	1570	386.916597148994	3
0	1572	387.204849636669	4
0	1573	388.192354540477	3
0	1580	388.707365258593	2
0	1586	389.176050093688	1
0	1593	390.009412549707	2
0	1595	390.774120161619	1
0	1600	391.058929274356	0
0	1606	391.526447362918	1
0	1608	391.847796795804	2
0	1610	392.20649322994	1
0	1616	392.516653830373	2
0	1618	394.118430600838	1
0	1624	395.31190007673	0
0	1646	398.393303880565	1
0	1648	398.501829789545	2
0	1652	399.333885915799	3
0	1654	400.497887368259	2
0	1661	401.80362521589	3
0	1662	402.045327881955	2
0	1668	402.798077078116	1
0	1675	403.633560525316	0
0	1705	408.561171047288	1
0	1709	410.510779079616	2
0	1713	411.635974742298	3
0	1717	413.778502989033	4
0	1722	415.933670514992	3
0	1732	416.857999510386	2
0	1737	416.941538955975	1
0	1743	418.252510707453	0
0	1758	423.427938352959	1
0	1759	423.906528380798	0
0	1775	425.597967670717	1
0	1777	426.996904020002	2
0	1779	427.271297532542	3
0	1784	428.753746337492	2
0	1789	429.737603978743	1
0	1794	429.747335133548	0
0	1809	432.387412472147	1
0	1818	435.478012753145	0
0	1826	438.353792044821	1
0	1831	441.100376745637	2
0	1833	441.944148467664	3
0	1836	443.211365914207	2
0	1842	444.450321040294	1
0	1847	444.610902463078	0
0	1858	444.852146552375	1
0	1859	445.010277217752	0
0	1901	451.956741487819	1
0	1902	451.998860843599	0
0	1921	454.718169430967	1
0	1923	456.049402081685	0
0	1937	456.687556631664	1
0	1941	457.382648768342	2
0	1942	457.709801494524	1
0	1948	458.728987662419	0
0	1958	460.952558998196	1
0	1962	467.84389330753	2
0	1964	468.032245274341	3
0	1966	468.154907002943	4
0	1968	468.247220167973	5
0	1972	468.905445197574	6
0	1975	470.096936254449	5
0	1982	470.396770224911	6
0	1983	470.419890967333	5
0	1992	473.478032201659	6
0	1993	474.012149634337	5
0	1999	474.801586910404	4
0	2004	474.979368846266	3
0	2009	475.305674761426	2
0	2014	475.338139154011	1
0	2021	475.812898789414	0
0	2049	482.418426701849	1
0	2051	483.907577668961	0
0	2057	484.142548691735	1
0	2058	484.321233213865	0
0	2083	487.481166094568	1
0	2086	488.071996085149	0
0	2099	489.624529475791	1
0	2101	489.828393588261	2
0	2103	490.104610060616	1
0	2108	490.814293988128	0
0	2119	493.970395897179	1
0	2121	497.02748729275	2
0	2123	498.554321171526	3
0	2130	501.220114587164	4
0	2131	502.046970053237	3
0	2138	504.045918957306	2
0	2146	505.199288500569	1
0	2151	505.215266607624	0
0	2166	508.436066029835	1
0	2167	509.735047316253	0
0	2175	510.794105369505	1
0	2176	510.923276928903	0
0	2198	514.467011060888	1
0	2200	514.698056333419	0
0	2207	516.92235739522	1
0	2209	517.342700926713	0
0	2245	524.086772944675	1
0	2246	525.146066295403	0
0	2286	538.708761437048	1
0	2288	539.624176597255	2
0	2289	540.104699962186	1
0	2294	540.904214194353	0
0	2300	541.875214876465	1
0	2301	542.648274385172	0
0	2335	550.668832615502	1
0	2337	553.740825784107	0
0	2367	563.95881428753	1
0	2368	564.176493474312	0
0	2431	582.44193276766	1
0	2433	582.544480286142	2
0	2435	583.293595028364	3
0	2437	583.580921553161	4
0	2438	584.892246733014	3
0	2443	585.135714844577	2
0	2448	585.269199745178	1
0	2454	585.830882789691	0
0	2476	588.516930537204	1
0	2479	588.893117384822	2
0	2480	589.415974473373	1
0	2487	589.865849184024	0
0	2511	595.94950718258	1
0	2513	596.176667428437	2
0	2516	599.824237286379	1
0	2523	600.686739684937	0
0	2530	601.129594000383	1
0	2531	602.096072993737	0
0	2546	608.548480386385	1
0	2547	610.622648974265	0
0	2560	611.470161576069	1
0	2561	611.930037169018	0
0	2568	612.430085572711	1
0	2569	612.71764635004	0
0	2578	613.658048284877	1
0	2579	614.374058872286	0
0	2606	620.090597818076	1
0	2611	621.094203104312	0
0	2693	650.662621435619	1
0	2695	654.190549293147	2
0	2696	656.735272305089	1
0	2702	657.320789452068	0
0	2725	665.686072900302	1
0	2726	666.901546153304	0
0	2741	672.24480403921	1
0	2742	672.590788439968	0
0	2788	687.483903566509	1
0	2792	690.088108129528	2
0	2795	691.024537319935	3
0	2796	691.904449340561	2
0	2801	692.002314753589	1
0	2807	694.069983374773	0
0	2823	696.706182890451	1
0	2826	697.745645155823	0
0	2832	697.827568069775	1
0	2834	697.890142275295	2
0	2836	698.608230780645	3
0	2840	702.272487434692	2
0	2848	704.220997360355	3
0	2852	705.60063847508	4
0	2854	708.094613713055	5
0	2857	708.797167141992	4
0	2862	709.228850767422	3
0	2867	709.516233272054	2
0	2874	710.642949467261	1
0	2879	710.728952262427	0
0	2885	710.758624736601	1
0	2886	710.842516857374	0
0	2901	713.683778900514	1
0	2902	714.317403687417	0
0	2936	719.109712859632	1
0	2938	719.505772227223	0
0	2979	731.183535248294	1
0	2981	731.801077087625	2
0	2983	731.880833201457	3
0	2984	732.264359460115	2
0	2990	733.079406379812	1
0	2997	733.921154124341	0
0	3020	736.930116732095	1
0	3022	737.088863222448	2
0	3025	738.707188695932	1
0	3031	741.175444424966	0
0	3187	794.543408032502	1
0	3188	797.547280699522	0
0	3195	797.745249757493	1
0	3196	797.869559516862	0
0	3238	806.563282329873	1
0	3239	807.271050831276	0
0	3258	809.940609372025	1
0	3261	810.787949263636	0
0	3272	812.654281074124	1
0	3273	813.193485015534	0
0	3286	814.290378694689	1
0	3290	814.728447102664	2
0	3292	815.074983348588	3
0	3296	819.219692981771	2
0	3302	820.96577374793	1
0	3307	821.229771682556	0
0	3321	822.220070631229	1
0	3323	822.613494208022	2
0	3326	823.482482602386	1
0	3333	824.14929447104	0
0	3373	834.233698151973	1
0	3374	834.935567043831	0
0	3388	836.095335024779	1
0	3389	836.67779096452	0
0	3396	837.090119754711	1
0	3397	839.894885329373	0
0	3413	840.939119181794	1
0	3415	841.243216442149	0
0	3443	844.332261316129	1
0	3444	844.593162546636	0
0	3461	846.878160753974	1
0	3462	848.198381777111	0
0	3500	856.896130478603	1
0	3503	857.129033974277	2
0	3504	857.862728784483	1
0	3511	858.396855645295	2
0	3515	861.252119322722	3
0	3516	861.451270399166	2
0	3522	861.524009719232	3
0	3527	862.386438489321	2
0	3533	863.007171735949	3
0	3539	864.09816651774	2
0	3544	864.132571994509	1
0	3551	864.334773087894	2
0	3552	864.452977430884	1
0	3557	865.374395014006	0
0	3591	869.920123440304	1
0	3593	870.686885476533	0
0	3619	878.332934364233	1
0	3623	881.973240970288	2
0	3629	885.040603469727	3
0	3630	886.509363134351	2
0	3636	886.628813143328	3
0	3638	886.889129814357	2
0	3644	887.022763813332	3
0	3645	887.45072572381	2
0	3652	887.937217753786	3
0	3653	888.096838552901	2
0	3661	889.921364742381	3
0	3662	890.020527249441	2
0	3670	892.164298032798	1
0	3681	894.659827442719	0
0	3687	895.828035674463	1
0	3690	896.655585169711	2
0	3691	896.681054775611	1
0	3699	897.229734212941	2
0	3701	897.727488688887	3
0	3704	897.88976582635	2
0	3710	898.217079391734	3
0	3712	898.580637938042	4
0	3714	899.157186376608	3
0	3724	901.858755760871	2
0	3730	902.843690013656	3
0	3733	904.646622652414	2
0	3739	905.702962826274	1
0	3745	906.354957053561	0
0	3792	916.263566096635	1
0	3794	916.522338357286	2
0	3798	919.581735746309	3
0	3799	919.741753008866	2
0	3804	920.197643761858	1
0	3810	920.360069279238	2
0	3812	920.40751743075	3
0	3815	922.219287786115	4
0	3818	923.059743614672	3
0	3824	923.17054889163	2
0	3833	924.371795616121	1
0	3840	925.823277882899	0
0	3881	935.113862627922	1
0	3882	935.695343522656	0
0	3923	948.212601930517	1
0	3926	949.105922174642	2
0	3928	949.381349609896	3
0	3929	949.47365857911	2
0	3934	950.063886624659	1
0	3939	950.190108946178	0
0	3964	955.095786719346	1
0	3965	955.29081633309	0
0	3979	957.094557621744	1
0	3984	959.220732408969	0
0	4047	976.815862560374	1
0	4048	977.205806425147	0
0	4108	990.094416322774	1
0	4113	992.674106314081	0
0	4119	992.933183880286	1
0	4121	993.750100265741	0
0	4142	998.674093561471	1
0	4144	999.60058125873	2
0	4146	1001.180023007326	1
0	4153	1001.949150698892	0
0	4166	1002.621202525804	1
0	4170	1004.925501133221	2
0	4171	1005.079680206446	1
0	4176	1005.262084138017	0
0	4184	1006.221605044544	1
0	4187	1008.49250826073	0
0	4232	1020.914337739703	1
0	4234	1021.578051937045	2
0	4238	1025.164896705445	3
0	4239	1025.804059764495	2
0	4244	1026.392938978673	1
0	4249	1027.438893026085	0
0	4263	1029.994850528144	1
0	4264	1030.038005845524	0
0	4305	1040.514821218329	1
0	4306	1042.363621902037	0
0	4312	1042.889209759948	1
0	4314	1044.453226927261	0
0	4345	1050.271105216926	1
0	4350	1050.713140311446	2
0	4354	1053.666473921123	1
0	4361	1053.885969431001	2
0	4363	1055.205417249262	1
0	4372	1056.66750648705	0
0	4381	1057.639635960544	1
0	4382	1058.917454683051	0
0	4398	1060.00082127997	1
0	4400	1060.76169564982	2
0	4401	1061.413607849878	1
0	4407	1061.604933890154	2
0	4408	1062.877489488973	1
0	4414	1063.857737458204	0
0	4448	1067.174104163123	1
0	4450	1067.207402894062	2
0	4451	1067.571030217174	1
0	4458	1068.997359999836	2
0	4459	1069.119821883701	1
0	4465	1069.968532787371	0
0	4486	1074.712736133033	1
0	4488	1075.108499472398	0
0	4502	1076.635315674155	1
0	4504	1077.42621185064	0
0	4510	1077.575143158802	1
0	4512	1078.127892985428	0
0	4526	1082.453179184953	1
0	4529	1083.361703312848	0
0	4609	1102.267878844626	1
0	4610	1103.045175847951	0
0	4666	1131.98233317617	1
0	4668	1133.501720042717	0
0	4674	1133.78974351025	1
0	4677	1135.263644245756	0
0	4683	1135.538397766645	1
0	4684	1136.856816718501	0
0	4696	1137.50909309799	1
0	4697	1137.569409827205	0
0	4708	1138.777375650538	1
0	4709	1139.527632482148	0
0	4730	1141.740301167257	1
0	4735	1147.143973709349	0
0	4741	1147.381931256729	1
0	4742	1147.473914779295	0
0	4783	1163.47106663603	1
0	4785	1163.976645605115	2
0	4787	1164.836828913646	1
0	4792	1165.39505703822	0
0	4806	1165.858969465402	1
0	4808	1166.758193917534	0
0	4838	1173.177273766447	1
0	4841	1174.864812067879	0
0	4858	1176.690843358809	1
0	4860	1177.818296733994	2
0	4865	1180.133817348815	1
0	4870	1180.236564412443	0
0	4879	1180.574500490378	1
0	4883	1181.460427544204	2
0	4884	1181.766864987412	1
0	4890	1183.021439810656	0
0	4932	1194.634316052586	1
0	4939	1201.473526322939	0
0	4953	1208.697006826777	1
0	4954	1209.340451903857	0
0	4969	1215.609632174627	1
0	4971	1215.711845336674	2
0	4973	1216.400178532996	3
0	4974	1216.826180482892	2
0	4980	1218.492876461187	1
0	4990	1219.40296055432	2
0	4992	1220.729196929535	1
0	4998	1223.631421457177	2
0	4999	1223.874936035568	1
0	5004	1225.73547180717	0
0	5027	1229.077246985161	1
0	5031	1229.664089064964	2
0	5032	1229.714087625225	1
0	5038	1231.510292029065	0
0	5044	1234.411919184555	1
0	5045	1234.764944402241	0
0	5057	1236.418571931631	1
0	5059	1236.429469258606	2
0	5062	1236.729638404956	3
0	5063	1237.259872399423	2
0	5070	1237.691269125751	3
0	5071	1238.455937121219	2
0	5077	1240.306040522576	1
0	5082	1240.430279348832	0
0	5106	1252.354578544138	1
0	5109	1254.131295873714	0
0	5123	1255.325327881021	1
0	5126	1256.469198143969	0
0	5161	1262.235853789081	1
0	5164	1262.88756823981	0
0	5197	1274.42941094464	1
0	5198	1274.652831778046	0
0	5207	1275.373083472811	1
0	5209	1275.950760542849	0
0	5223	1277.840895060507	1
0	5224	1278.321568751336	0
0	5245	1280.51372118638	1
0	5246	1280.608669586138	0
0	5280	1286.625634804361	1
0	5285	1288.893325628094	0
0	5307	1291.176922621389	1
0	5308	1291.234829750657	0
0	5324	1295.164718481186	1
0	5326	1295.906647146298	2
0	5327	1296.007495424378	1
0	5333	1296.394183880415	2
0	5334	1296.411971161435	1
0	5341	1297.381721921303	0
0	5366	1299.822596469447	1
0	5369	1300.868312728398	0
0	5376	1301.43789699596	1
0	5379	1302.246448809339	2
0	5381	1304.098866355364	3
0	5384	1308.312364245504	4
0	5389	1310.522659495592	3
0	5395	1310.574477341029	4
0	5399	1312.512929861626	3
0	5404	1312.939907883342	2
0	5414	1314.480857878826	1
0	5419	1314.491442694207	0
0	5431	1316.945340881394	1
0	5432	1317.189819174492	0
0	5441	1320.710335500775	1
0	5442	1322.254051999408	0
0	5449	1322.808806931778	1
0	5450	1323.795724917822	0
0	5542	1343.934141349264	1
0	5544	1345.077840124372	2
0	5548	1346.083606491273	1
0	5553	1346.557773047568	0
0	5590	1352.77814690361	1
0	5593	1353.368240750348	2
0	5594	1355.04728156287	1
0	5599	1355.078833838684	0
0	5639	1361.935663203388	1
0	5641	1362.22404847456	0
0	5647	1362.243522413889	1
0	5650	1363.459802107942	0
0	5676	1365.53053579068	1
0	5679	1366.236396239445	0
0	5694	1371.314560998848	1
0	5696	1372.022061006538	2
0	5697	1372.154053176548	1
0	5702	1372.395633399796	0
0	5727	1379.745122799111	1
0	5730	1380.202036179179	0
0	5743	1380.767710797746	1
0	5745	1381.227772173678	2
0	5749	1381.466538493828	3
0	5751	1382.258342208176	4
0	5755	1383.524307645704	5
0	5756	1383.622289742888	4
0	5762	1384.95880557524	3
0	5770	1386.719547625465	2
0	5775	1387.893101172489	1
0	5780	1388.321261541828	0
0	5894	1414.599334383571	1
0	5896	1416.47923699985	2
0	5897	1416.632549667499	1
0	5902	1417.046388163937	0
0	5911	1418.206946751974	1
0	5913	1418.68435383375	2
0	5914	1418.936528238256	1
0	5923	1420.281332643164	2
0	5928	1420.555721509409	1
0	5933	1420.616555171846	0
0	5972	1430.844488455475	1
0	5978	1436.334023388787	0
0	5986	1438.728684982862	1
0	5990	1442.320429804322	0
0	6007	1446.892795506355	1
0	6009	1446.972609263107	2
0	6014	1451.092157859897	3
0	6015	1451.166047763081	2
0	6020	1451.717413041164	1
0	6028	1452.911149499951	0
0	6034	1453.754509708305	1
0	6035	1453.973144680991	0
0	6041	1454.035300740705	1
0	6045	1454.999598644535	2
0	6047	1455.123840400744	3
0	6049	1455.911936812787	4
0	6050	1456.809432408322	3
0	6057	1456.971572657228	2
0	6063	1458.123803437016	1
0	6069	1458.530385602379	2
0	6072	1458.624141731112	3
0	6074	1459.55058019606	2
0	6079	1459.606503358489	1
0	6085	1461.236528948414	0
0	6097	1463.219769364363	1
0	6103	1466.386246542016	0
0	6135	1473.150881135261	1
0	6136	1474.219823280138	0
0	6149	1476.204677039834	1
0	6152	1477.215267000729	0
0	6160	1477.657174022264	1
0	6162	1478.24945642	0
0	6183	1482.628635022537	1
0	6188	1484.350131192018	0
0	6203	1486.128142262498	1
0	6205	1489.739672864761	2
0	6206	1490.662902261314	1
0	6211	1490.720944616547	0
0	6225	1491.934670706258	1
0	6226	1492.028698245498	0
0	6243	1494.681459741687	1
0	6248	1496.427277113243	2
0	6252	1497.292400538401	1
0	6260	1499.439113690739	2
0	6261	1499.669366121134	1
0	6266	1499.923086958984	0
0	6292	1507.508149179062	1
0	6296	1509.746593191989	0
0	6302	1509.909425568901	1
0	6306	1510.71140875907	0
0	6313	1512.925486591261	1
0	6314	1514.205916287269	0
0	6325	1514.518834322885	1
0	6327	1514.974463788513	0
0	6344	1516.041177523336	1
0	6346	1517.575365712433	2
0	6347	1517.777222824222	1
0	6356	1518.537000564004	2
0	6357	1520.182372870959	1
0	6366	1522.556775139115	2
0	6368	1522.693911658062	3
0	6369	1522.731910569617	2
0	6374	1522.800938501198	1
0	6380	1524.097768756145	0
0	6407	1526.171137318666	1
0	6408	1526.283021634851	0
0	6427	1531.637805706463	1
0	6428	1532.24455503493	0
0	6450	1536.494311957081	1
0	6452	1536.824624068125	2
0	6454	1537.46619863652	3
0	6459	1537.786759207366	2
0	6465	1539.46965569611	1
0	6471	1539.652363339168	0
0	6487	1541.65827026837	1
0	6488	1543.679985466968	0
0	6500	1544.459337915216	1
0	6503	1545.795154112318	0
0	6514	1547.666361568056	1
0	6517	1548.962785005881	2
0	6519	1550.29109378639	3
0	6521	1551.868513499601	4
0	6522	1553.056129052779	3
0	6530	1553.145487977191	4
0	6532	1554.047799101525	3
0	6538	1554.27097950134	4
0	6539	1554.35781147002	3
0	6545	1555.350600690574	4
0	6547	1555.413535510984	5
0	6548	1555.665500286872	4
0	6555	1556.733966335241	3
0	6562	1557.312907834959	4
0	6563	1557.660607626915	3
0	6573	1559.677688710948	4
0	6575	1560.064933651778	5
0	6576	1560.180890563293	4
0	6581	1560.245533049344	3
0	6589	1563.375007292236	2
0	6596	1565.311483387382	3
0	6598	1566.198544081218	4
0	6600	1566.66519196682	5
0	6601	1567.391307493642	4
0	6606	1567.504785226448	3
0	6611	1567.599098654687	2
0	6618	1567.791341484142	3
0	6622	1568.294191435707	4
0	6624	1569.628375542658	3
0	6629	1569.872442636548	2
0	6637	1574.321343721261	1
0	6642	1574.394300671857	0
0	6648	1574.651216955044	1
0	6649	1575.412062533036	0
0	6660	1576.630655641694	1
0	6664	1578.933302055434	2
0	6665	1579.308400811721	1
0	6671	1580.302583794871	2
0	6672	1581.049882404758	1
0	6678	1581.489174261664	2
0	6687	1585.007334536407	1
0	6696	1587.204335814474	2
0	6697	1587.817014276389	1
0	6702	1588.642814530891	0
0	6728	1594.122811334711	1
0	6730	1595.853987169378	2
0	6737	1601.517847327498	1
0	6744	1603.325409368612	2
0	6748	1605.464483167318	1
0	6754	1605.606500429897	2
0	6755	1606.057806110495	1
0	6762	1608.190441877262	0
0	6796	1615.426843020431	1
0	6797	1617.425511527371	0
0	6820	1619.880686720899	1
0	6822	1619.896875130352	2
0	6824	1620.792721294425	1
0	6829	1620.825276721154	0
0	6876	1635.064878510369	1
0	6878	1636.945494134329	2
0	6880	1637.030039610655	3
0	6883	1642.355630216867	2
0	6890	1642.437239936989	3
0	6891	1642.699488280726	2
0	6897	1642.877669579729	1
0	6905	1643.735905034764	2
0	6907	1644.276922956309	1
0	6913	1645.516870405485	0
0	6925	1647.132889975692	1
0	6927	1648.88465326386	2
0	6929	1648.967832469813	3
0	6930	1649.18419958483	2
0	6937	1650.508792898873	3
0	6938	1650.86889975049	2
0	6943	1652.057612064629	1
0	6948	1652.242846556668	0
0	6977	1660.076095733573	1
0	6980	1661.92602930045	0
0	6996	1665.883642974324	1
0	6998	1667.739382155345	0
0	7005	1669.894619643909	1
0	7007	1670.466562821443	2
0	7011	1670.724691148595	3
0	7013	1671.198661497902	4
0	7015	1673.446200341186	5
0	7018	1674.03601688868	4
0	7024	1674.135481566049	5
0	7026	1675.21313364142	4
0	7033	1675.776486507408	5
0	7035	1677.758748365762	6
0	7036	1677.932319260083	5
0	7044	1678.491855541639	6
0	7045	1678.96025823453	5
0	7051	1679.432512644311	6
0	7053	1680.057290880408	7
0	7055	1681.926071257826	8
0	7056	1682.519264381001	7
0	7062	1684.055305772914	6
0	7067	1684.520138871508	5
0	7074	1685.003193026228	4
0	7083	1687.136706997182	3
0	7089	1688.238747707487	2
0	7096	1689.399914464837	3
0	7097	1689.571143013293	2
0	7105	1691.691798677287	3
0	7106	1691.881077862921	2
0	7112	1692.907222406029	1
0	7119	1693.98107019148	2
0	7123	1695.697685515677	3
0	7124	1696.643961221487	2
0	7133	1699.312931515648	1
0	7139	1700.28702571094	0
0	7169	1703.737587673846	1
0	7173	1704.944578444632	0
0	7180	1706.607420588924	1
0	7182	1707.630726392997	0
0	7213	1713.14361394105	1
0	7214	1713.917252161823	0
0	7232	1715.833313491039	1
0	7234	1715.881817353135	0
0	7240	1716.304225428486	1
0	7244	1717.331844550602	2
0	7249	1720.123358153084	3
0	7250	1720.48221950275	2
0	7256	1721.093181179501	1
0	7262	1721.685943812076	2
0	7263	1721.711258581889	1
0	7268	1722.245689740001	0
0	7305	1731.1887256148	1
0	7307	1731.449648736119	2
0	7312	1733.268644631144	3
0	7314	1733.843589585817	4
0	7316	1740.266010765655	5
0	7318	1741.520493962949	6
0	7320	1742.980372501426	7
0	7322	1743.384328118805	8
0	7324	1745.071925261299	9
0	7325	1745.611691379529	8
0	7331	1745.687794665768	9
0	7333	1746.166656945133	8
0	7338	1746.231821485662	7
0	7348	1749.993425267685	8
0	7349	1750.604293538327	7
0	7354	1751.176988731046	6
0	7359	1751.456795478152	5
0	7365	1751.922738895687	4
0	7370	1752.138025153734	3
0	7375	1753.859143192489	2
0	7382	1756.429453130969	1
0	7387	1756.576774160698	0
0	7391	1756.598283014607	1
0	7395	1759.04962399825	2
0	7402	1760.386317635668	1
0	7407	1760.459978612263	0
0	7418	1760.81090616233	1
0	7419	1761.348650974498	0
0	7425	1761.739842072684	1
0	7428	1761.854003938654	2
0	7429	1761.863362855615	1
0	7436	1762.312378261061	2
0	7437	1762.789924354892	1
0	7442	1762.952619148837	0
0	7453	1764.943866864115	1
0	7456	1765.693572246981	0
0	7468	1766.283303911676	1
0	7470	1766.902748924819	0
0	7486	1768.791324060457	1
0	7490	1771.773267107166	2
0	7492	1773.164429176763	3
0	7496	1773.802058218761	2
0	7503	1774.218680890779	1
0	7510	1775.408438526276	0
0	7522	1776.122734832718	1
0	7525	1778.029129676448	2
0	7526	1778.362288415083	1
0	7531	1778.46801441539	0
0	7558	1783.489352689709	1
0	7559	1783.605213759528	0
0	7566	1784.790026603107	1
0	7568	1785.048486187449	2
0	7570	1785.116071853835	3
0	7574	1786.612299710882	4
0	7576	1787.545364927332	3
0	7581	1787.575361350974	2
0	7585	1787.947448020787	3
0	7588	1790.680508814433	2
0	7592	1790.891457061804	3
0	7595	1791.660553974238	2
0	7601	1793.523911929528	3
0	7605	1795.472103338911	4
0	7611	1796.189315503494	5
0	7612	1796.558973144697	4
0	7618	1797.096890860516	5
0	7626	1801.117024787874	4
0	7636	1803.905024114643	3
0	7641	1804.347322332999	2
0	7646	1804.440898294691	1
0	7651	1804.469441379673	0
0	7659	1805.953627377332	1
0	7662	1806.634477816859	0
0	7682	1809.259417621925	1
0	7683	1810.112836628044	0
0	7696	1812.147130695424	1
0	7698	1812.194037826318	2
0	7700	1812.839703830167	3
0	7702	1812.957561522057	4
0	7705	1814.14209130074	3
0	7711	1815.793251642709	2
0	7718	1815.993489122649	1
0	7726	1817.238826538409	2
0	7727	1818.644738485246	1
0	7733	1819.766751121537	0
0	7744	1820.197741784314	1
0	7745	1822.029320071634	0
0	7752	1822.299457714808	1
0	7757	1823.693203017456	2
0	7762	1825.49803299818	3
0	7763	1825.728247931848	2
0	7770	1828.163018784189	3
0	7772	1829.267597564063	4
0	7776	1830.335816611591	5
0	7778	1830.615099894977	6
0	7780	1831.316014340879	7
0	7781	1831.399792068346	6
0	7789	1832.885208853561	5
0	7795	1834.205491920544	4
0	7800	1834.270580621177	3
0	7810	1836.10894951727	2
0	7815	1836.112733010949	1
0	7820	1837.35280922861	0
0	7834	1839.945495089013	1
0	7836	1840.4018094634	0
0	7848	1842.485688917426	1
0	7851	1843.781145164843	0
0	7857	1844.037506978258	1
0	7860	1844.742731535987	0
0	7866	1845.450417911538	1
0	7867	1846.351119538653	0
0	7873	1847.349669660611	1
0	7875	1848.298876451453	2
0	7877	1848.312053442272	3
0	7878	1848.516663467674	2
0	7883	1849.015333293738	1
0	7889	1849.21831761574	2
0	7891	1849.294911575895	1
0	7899	1851.088554851137	0
0	7924	1853.422149432152	1
0	7925	1853.847607186965	0
0	7952	1859.167587669669	1
0	7961	1863.52316367274	2
0	7963	1863.749943630951	3
0	7964	1868.366909360642	2
0	7969	1868.888741987838	1
0	7974	1869.86799552459	0
0	7990	1872.615459027362	1
0	7991	1875.165478180601	0
0	8011	1882.576104403333	1
0	8014	1884.177378771743	0
0	8020	1885.775518114168	1
0	8021	1885.829847271838	0
0	8049	1890.374626984511	1
0	8052	1893.389917918078	0
0	8058	1893.661202330845	1
0	8061	1895.254362821627	2
0	8062	1896.107819124442	1
0	8068	1896.856485271524	2
0	8070	1897.476976363877	1
0	8079	1898.661908382731	0
0	8090	1902.301672016452	1
0	8091	1903.470840328218	0
0	8098	1904.206365718367	1
0	8099	1904.697222516567	0
0	8105	1904.741375764812	1
0	8107	1906.251901391959	0
0	8113	1906.554556506481	1
0	8115	1907.400794579423	0
0	8145	1910.914512832021	1
0	8146	1911.918614287114	0
0	8171	1920.004401659169	1
0	8173	1920.219109891325	2
0	8177	1922.95264844973	1
0	8182	1923.2581837174	0
0	8190	1925.198084890621	1
0	8192	1926.213868193106	2
0	8196	1927.400659725433	1
0	8201	1928.409588744149	0
0	8216	1930.813905731198	1
0	8217	1931.71829351198	0
0	8235	1932.817734525122	1
0	8236	1933.211437443178	0
0	8315	1960.960608846129	1
0	8316	1961.754486930207	0
0	8322	1962.235844149729	1
0	8323	1962.900930850547	0
0	8359	1971.069468683848	1
0	8360	1971.267268713012	0
0	8380	1973.145649741843	1
0	8382	1973.326904481747	2
0	8384	1973.6955698991	3
0	8387	1976.170042312704	2
0	8392	1976.859187863713	1
0	8400	1977.230950739882	0
0	8416	1979.942895609982	1
0	8417	1980.254359783644	0
0	8480	2003.364670594192	1
0	8482	2003.661447771569	2
0	8483	2003.940296301821	1
0	8488	2003.993570781659	0
0	8545	2017.038238616973	1
0	8546	2017.116986163411	0
0	8568	2022.617461336317	1
0	8569	2023.238481013694	0
0	8601	2033.594659572729	1
0	8602	2033.602870443711	0
0	8611	2036.86506597266	1
0	8612	2037.016709140338	0
0	8686	2059.995052353415	1
0	8688	2061.268840896887	0
0	8694	2061.534506356482	1
0	8696	2062.683735072799	0
0	8710	2065.618316491117	1
0	8711	2066.035055983964	0
0	8728	2067.965318427786	1
0	8731	2068.750965052058	0
0	8782	2082.188825509503	1
0	8783	2082.204866101738	0
0	8807	2092.516710051987	1
0	8808	2092.589033296364	0
0	8831	2094.782312632589	1
0	8832	2095.458765516221	0
0	8838	2095.516278252109	1
0	8839	2097.379541941778	0
0	8936	2121.373346808098	1
0	8937	2121.66535429086	0
0	8952	2127.425589095161	1
0	8953	2128.294130338593	0
0	8976	2144.233731491513	1
0	8979	2144.608498001979	2
0	8980	2145.780077752761	1
0	8985	2146.037632346603	0
0	9026	2159.858666940271	1
0	9027	2160.242096109528	0
0	9065	2168.41872253349	1
0	9066	2168.537489726571	0
0	9082	2169.834871039118	1
0	9083	2170.470571135427	0
0	9091	2171.709665843701	1
0	9093	2172.496089181898	0
0	9115	2178.24600422647	1
0	9116	2179.504150108755	0
0	9177	2194.772736022631	1
0	9179	2195.346737132686	0
0	9223	2211.283494100992	1
0	9224	2211.507505550769	0
0	9234	2213.121058419114	1
0	9235	2213.493896307107	0
0	9254	2215.365587400468	1
0	9256	2215.662494689356	2
0	9258	2215.777845898574	3
0	9260	2216.456481009954	4
0	9262	2217.160189651618	5
0	9263	2217.406265313047	4
0	9269	2219.206233053421	3
0	9274	2219.452581781037	2
0	9280	2220.426680004702	1
0	9286	2220.476242751979	0
0	9381	2241.69830518354	1
0	9382	2242.096145546915	0
0	9428	2254.950578485724	1
0	9430	2256.069095508454	0
0	9456	2263.123542857261	1
0	9459	2263.704530401849	0
0	9477	2265.596811642598	1
0	9478	2265.78563325771	0
0	9506	2272.099999522654	1
0	9509	2274.746536148751	0
0	9515	2274.882439594834	1
0	9519	2275.925425263642	0
0	9527	2276.599683556092	1
0	9529	2277.141127369009	0
0	9541	2278.566825175317	1
0	9545	2279.718989871133	2
0	9551	2280.682404201527	3
0	9552	2280.954221027594	2
0	9560	2281.615377190231	3
0	9561	2281.722593602103	2
0	9566	2281.825959865742	1
0	9571	2282.408044576459	0
0	9585	2284.393723798984	1
0	9588	2285.425504891212	2
0	9589	2287.376917428333	1
0	9596	2288.365889237236	0
0	9602	2288.475316890812	1
0	9605	2288.697795276078	2
0	9607	2289.262048299095	1
0	9612	2289.446411708788	0
0	9618	2289.554031645295	1
0	9619	2290.019990697436	0
0	9631	2291.305166669029	1
0	9635	2292.724563916246	2
0	9636	2292.802370828001	1
0	9642	2292.87347695222	2
0	9645	2295.940512794612	1
0	9650	2298.15648297544	0
0	9678	2304.459878349528	1
0	9679	2304.705981138019	0
0	9709	2313.639839208845	1
0	9712	2315.212001735563	2
0	9714	2316.625173364484	3
0	9716	2317.693488785338	4
0	9717	2317.926943391805	3
0	9722	2318.343184443979	2
0	9729	2321.047934102579	1
0	9734	2321.153643416542	0
0	9740	2322.020730207713	1
0	9741	2322.027825117204	0
0	9748	2322.75963838662	1
0	9750	2323.196864503633	2
0	9751	2323.800575837938	1
0	9757	2323.939941140744	0
0	9783	2332.356624511801	1
0	9785	2333.318671245373	2
0	9786	2334.728314240972	1
0	9791	2334.755994531554	0
0	9797	2336.450049357868	1
0	9800	2337.078428509112	2
0	9802	2337.445982840584	3
0	9808	2339.135018819812	4
0	9809	2339.6504614973	3
0	9815	2339.65801679419	4
0	9818	2341.185309596132	5
0	9819	2341.249973208866	4
0	9825	2342.049901176791	3
0	9831	2342.202394580578	2
0	9838	2342.828626434002	3
0	9839	2343.122896144226	2
0	9844	2343.947692502882	1
0	9849	2343.949048471005	0
0	9870	2351.98072261908	1
0	9871	2352.114407187929	0
0	9878	2352.45065372018	1
0	9880	2352.972528290024	2
0	9881	2353.017201218235	1
0	9886	2354.313380366454	0
0	9903	2358.487967165321	1
0	9906	2359.120842141288	2
0	9909	2360.493446855397	1
0	9914	2360.735497936643	0
0	9920	2361.96488736454	1
0	9921	2362.387188465827	0
0	9932	2362.740028406819	1
0	9933	2362.906472086452	0
0	9939	2362.968711166716	1
0	9942	2364.099546851364	0
0	9961	2366.236561478383	1
0	9962	2366.250930272726	0
0	9966	2366.763699140941	1
0	9972	2369.178640411005	2
0	9973	2369.457751857592	1
0	9979	2370.169244601704	0
0	10025	2375.332187750763	1
0	10027	2376.907380456239	2
0	10029	2377.990386362449	1
0	10035	2378.796853051665	0
0	10084	2395.209301379449	1
0	10086	2398.453262941478	2
0	10088	2398.532607255451	3
0	10091	2400.101547279742	2
0	10096	2400.553369824512	1
0	10104	2402.352246052848	0
0	10123	2405.00197057315	1
0	10124	2405.103128001358	0
0	10132	2406.898880723995	1
0	10133	2407.19998111951	0
0	10147	2408.009092494668	1
0	10151	2408.510943773546	2
0	10152	2409.065345694012	1
0	10158	2409.218112569711	2
0	10161	2411.311386045845	1
0	10166	2411.520851015441	0
0	10227	2424.43778913713	1
0	10228	2425.21392198779	0
0	10242	2426.338149545623	1
0	10244	2427.718476204478	2
0	10245	2428.131014832232	1
0	10250	2430.249541579648	0
0	10256	2430.408359236451	1
0	10259	2430.867583355132	2
0	10261	2432.281115778043	1
0	10266	2432.316994784503	0
0	10281	2435.063552436126	1
0	10283	2435.887025384255	0
0	10300	2438.123134550364	1
0	10303	2438.359944113581	0
0	10333	2441.672827035373	1
0	10340	2443.614315849174	0
0	10361	2446.739997347141	1
0	10370	2450.559168393878	0
0	10379	2452.082400314442	1
0	10383	2453.658066573682	2
0	10385	2453.891693884548	3
0	10386	2454.694010543924	2
0	10392	2454.940886087282	3
0	10394	2457.176408753783	4
0	10395	2457.291700127758	3
0	10401	2457.57857703969	4
0	10403	2459.083474745548	5
0	10409	2461.473761756564	4
0	10414	2462.358616600307	3
0	10421	2464.254628854075	4
0	10422	2469.638161081697	3
0	10427	2469.838159811218	2
0	10433	2470.695284947093	3
0	10436	2472.480258476039	4
0	10438	2472.483700930346	5
0	10440	2473.753639283877	6
0	10441	2474.010076458058	5
0	10447	2474.652734211196	6
0	10449	2475.734353192759	5
0	10454	2475.904241818042	4
0	10459	2477.499856396569	3
0	10464	2478.83615641837	2
0	10469	2479.367503386167	1
0	10474	2481.327310914317	0
0	10480	2482.578245943795	1
0	10481	2483.163600846973	0
0	10487	2484.675821035195	1
0	10488	2485.210617484267	0
0	10492	2485.262975065493	1
0	10495	2487.245463373192	0
0	10512	2492.311048305487	1
0	10513	2492.670093533023	0
0	10534	2496.711249546216	1
0	10535	2497.124187681042	0
0	10548	2498.622498641139	1
0	10549	2501.127335965807	0
0	10556	2501.404022298724	1
0	10557	2501.936174879323	0
0	10572	2503.869064894114	1
0	10573	2503.998678041527	0
0	10634	2515.775274804513	1
0	10640	2516.372471633335	2
0	10643	2517.383187343637	1
0	10648	2518.485105407175	0
0	10656	2519.754175018382	1
0	10657	2520.258719896116	0
0	10667	2522.420189672973	1
0	10673	2523.514634207841	2
0	10674	2523.523401579542	1
0	10679	2523.849404715816	0
0	10685	2524.544571930523	1
0	10686	2524.97695875841	0
0	10722	2531.826266963462	1
0	10723	2532.243556279772	0
0	10857	2561.207945471155	1
0	10858	2561.527343381298	0
0	10867	2563.042556696148	1
0	10868	2563.909457697787	0
0	10875	2565.256162635297	1
0	10880	2566.648161540083	0
0	10918	2577.190239595759	1
0	10925	2579.15711792196	0
0	10957	2582.107402556696	1
0	10960	2584.436963071654	0
0	10980	2590.684398156858	1
0	10983	2591.229922491709	0
0	11008	2596.33831319589	1
0	11011	2598.634758814531	2
0	11012	2599.253959867954	1
0	11017	2599.279698864337	0
0	11037	2605.830520497858	1
0	11039	2605.940144579382	2
0	11042	2608.957995590397	3
0	11045	2610.387462395374	4
0	11048	2612.083008507269	3
0	11053	2612.27615857211	2
0	11058	2612.825744692548	1
0	11067	2613.781783111618	2
0	11070	2614.183040029569	3
0	11075	2617.038550976847	2
0	11081	2618.442936897945	3
0	11083	2621.063511155193	2
0	11088	2621.172282794193	1
0	11093	2621.685342894256	0
0	11109	2621.957503142554	1
0	11112	2624.795714550347	0
0	11125	2625.444518139381	1
0	11129	2629.985633920702	0
0	11142	2632.38383490897	1
0	11143	2632.430652416158	0
0	11149	2632.974058323758	1
0	11151	2634.926556477967	0
0	11162	2636.349657110947	1
0	11163	2636.590208207577	0
0	11189	2643.158458157384	1
0	11191	2645.835276629567	0
0	11230	2654.865744004951	1
0	11231	2655.106198090129	0
0	11240	2657.057601181367	1
0	11248	2660.194185159911	0
0	11257	2661.199949810284	1
0	11262	2663.236638948799	2
0	11263	2663.751190179369	1
0	11268	2663.977094021866	0
0	11280	2664.76277287963	1
0	11281	2665.20188867755	0
0	11287	2665.223974059686	1
0	11293	2668.264358191446	0
0	11351	2690.574221115798	1
0	11354	2691.822700142554	2
0	11355	2691.908946023048	1
0	11360	2692.290440475413	0
0	11387	2704.856041077479	1
0	11389	2705.138583468178	2
0	11393	2706.140510841929	3
0	11394	2708.407303440361	2
0	11400	2710.590075648382	1
0	11407	2711.714936435974	2
0	11408	2712.030067209755	1
0	11414	2712.639987436361	0
0	11466	2730.356170036606	1
0	11467	2732.225314078287	0
0	11473	2733.815355217307	1
0	11475	2733.888140648143	2
0	11476	2734.219688082564	1
0	11482	2735.082807266544	0
0	11562	2756.982839029015	1
0	11564	2758.262360418392	2
0	11566	2758.491753404318	3
0	11568	2759.177641149259	2
0	11574	2759.471985139386	3
0	11577	2761.35146333336	4
0	11578	2762.327886619996	3
0	11583	2762.476252489617	2
0	11588	2762.502937546207	1
0	11593	2763.449644322109	0
0	11599	2763.530994130289	1
0	11600	2763.688479670063	0
0	11646	2781.302539986881	1
0	11647	2781.681514227567	0
0	11667	2785.267083969368	1
0	11668	2786.65350388123	0
0	11694	2791.902945603226	1
0	11696	2792.632379788182	0
0	11703	2793.634524355473	1
0	11704	2794.266064611497	0
0	11812	2820.718853028381	1
0	11813	2821.282487456278	0
0	11855	2830.95465082159	1
0	11856	2831.17741733609	0
0	11876	2833.94913298692	1
0	11881	2837.807684466363	0
0	11891	2838.648349394419	1
0	11895	2839.332870618949	2
0	11896	2839.693622517644	1
0	11905	2840.480035365089	2
0	11908	2841.74047659364	1
0	11914	2842.550345944952	0
0	11930	2846.989450620582	1
0	11932	2846.99093175831	2
0	11934	2847.577584543695	3
0	11936	2850.339227809016	4
0	11938	2850.543688366847	5
0	11943	2852.651223417802	4
0	11948	2852.956252402033	3
0	11954	2853.364704455999	2
0	11960	2854.282934095968	3
0	11962	2854.671422628985	2
0	11968	2855.696418102565	1
0	11974	2855.974426613954	0
0	11986	2856.372019761195	1
0	11988	2858.490303397257	0
0	11999	2860.039654423763	1
0	12000	2860.451507353014	0
0	12062	2879.75508583084	1
0	12067	2882.286935515206	0
0	12079	2884.103459341719	1
0	12081	2885.571403180941	2
0	12082	2887.92143485966	1
0	12087	2888.443936338719	0
0	12107	2895.43226618142	1
0	12108	2895.914189084071	0
0	12115	2897.299793417293	1
0	12116	2897.875979163206	0
0	12122	2898.227078866407	1
0	12126	2899.562154435281	0
0	12140	2904.385765671332	1
0	12141	2905.352342880546	0
0	12163	2908.193067172841	1
0	12164	2908.225491583313	0
0	12171	2908.643415944178	1
0	12174	2909.311002445675	0
0	12183	2910.873836891432	1
0	12187	2914.423974760175	0
0	12193	2914.696116835487	1
0	12195	2916.617825186062	0
0	12219	2921.273953068686	1
0	12221	2923.756689140458	2
0	12223	2924.045055976484	3
0	12225	2924.826450129354	4
0	12227	2925.188058449447	5
0	12228	2926.145286602267	4
0	12238	2929.739814570897	5
0	12240	2930.110250523099	6
0	12241	2930.233551874597	5
0	12248	2932.755886168996	6
0	12249	2934.258770177196	5
0	12256	2934.759762597428	4
0	12262	2935.328414693886	3
0	12270	2937.608356133156	2
0	12275	2938.378339832213	1
0	12281	2938.417271094143	2
0	12289	2941.217100801662	1
0	12295	2942.256314743786	2
0	12296	2942.553898488149	1
0	12301	2943.364194286012	0
0	12321	2948.560376093008	1
0	12324	2949.647352520277	0
0	12341	2950.109646187439	1
0	12342	2950.431064703033	0
0	12355	2952.750900227846	1
0	12356	2952.850183899425	0
0	12404	2960.721352939962	1
0	12405	2960.870985986772	0
0	12422	2964.076018740277	1
0	12427	2964.651537873145	2
0	12428	2966.091513087624	1
0	12437	2969.190864082532	2
0	12439	2969.606208392615	3
0	12440	2969.871198558257	2
0	12448	2970.988813250497	3
0	12452	2972.623838152914	2
0	12457	2972.663436986808	1
0	12464	2974.250168322634	0
0	12475	2974.930644433567	1
0	12479	2976.662643514697	0
0	12493	2977.23850220441	1
0	12495	2977.383291967747	2
0	12498	2977.586016058825	1
0	12504	2977.683315548293	0
0	12515	2980.703016903161	1
0	12518	2983.317417322421	0
0	12577	2998.311591764665	1
0	12578	2999.482490756258	0
0	12591	3001.503198865592	1
0	12593	3001.829800429034	2
0	12594	3001.934853707734	1
0	12600	3002.18904644384	2
0	12605	3004.536129754265	1
0	12611	3006.532880143393	0
0	12622	3007.416868639236	1
0	12624	3008.10065755942	0
0	12698	3036.563886543599	1
0	12700	3037.466789176748	0
0	12721	3041.151327117903	1
0	12723	3041.156673201602	2
0	12728	3045.391706262319	1
0	12735	3045.997834040583	0
0	12746	3046.407999248678	1
0	12749	3046.9903717646	0
0	12756	3048.373216412893	1
0	12757	3049.095684098169	0
0	12763	3050.191696528997	1
0	12766	3051.449432329561	0
0	12772	3051.493404143804	1
0	12773	3051.849753030775	0
0	12780	3052.014273996224	1
0	12781	3052.510398999993	0
0	12793	3053.401780677484	1
0	12794	3053.949062005094	0
0	12815	3056.088964657645	1
0	12817	3056.238614732249	2
0	12819	3056.608644029871	1
0	12824	3057.054740095666	0
0	12842	3060.583890007878	1
0	12843	3060.628083545931	0
0	12861	3065.375049648083	1
0	12863	3065.431837408632	2
0	12864	3065.515901659844	1
0	12869	3065.914889376114	0
0	12888	3068.38993994539	1
0	12893	3070.101218545184	0
0	12947	3079.603148703336	1
0	12948	3079.969418977236	0
0	12978	3087.279659304894	1
0	12979	3087.517750525291	0
0	12985	3088.710211818418	1
0	12990	3089.256353190714	2
0	12994	3091.176044563478	1
0	12999	3091.834092764734	0
0	13015	3093.502840883162	1
0	13018	3094.616670136387	0
0	13059	3103.736196886032	1
0	13060	3103.909439178659	0
0	13066	3103.930797252976	1
0	13067	3104.31312186135	0
0	13100	3109.679993510287	1
0	13101	3111.345226977095	0
0	13168	3130.186236598066	1
0	13171	3130.67545445076	0
0	13213	3141.550242788726	1
0	13214	3142.035386413863	0
0	13220	3142.040690679946	1
0	13221	3142.169403175278	0
0	13247	3148.85185919796	1
0	13249	3149.345148765228	2
0	13250	3150.46973667524	1
0	13258	3152.317952225483	2
0	13259	3152.458756855332	1
0	13265	3152.858683326921	0
0	13289	3156.991616528042	1
0	13300	3160.454173188937	2
0	13303	3162.240224925136	1
0	13309	3162.613174948288	2
0	13311	3162.662635262961	3
0	13312	3162.749540800078	2
0	13319	3163.109468663454	3
0	13320	3164.621165173433	2
0	13326	3166.271205104118	1
0	13331	3167.835032271406	0
0	13350	3170.496140777111	1
0	13351	3172.412816411497	0
0	13364	3174.867735764522	1
0	13367	3176.023831715239	0
0	13386	3177.789022453497	1
0	13388	3179.376590249518	2
0	13390	3179.700752154651	3
0	13391	3181.856908918338	2
0	13397	3182.944090286866	3
0	13398	3183.299834484961	2
0	13404	3183.72293807116	1
0	13409	3183.979615817141	0
0	13416	3186.471581719622	1
0	13419	3187.238350650716	2
0	13420	3188.416194388602	1
0	13425	3189.194582556593	0
0	13519	3218.4416102645	1
0	13520	3219.397758118622	0
0	13526	3219.601416890671	1
0	13529	3222.384906348708	0
0	13569	3238.304290255711	1
0	13573	3238.975873404369	0
0	13581	3239.629957857849	1
0	13582	3239.759312439078	0
0	13608	3244.789519816711	1
0	13611	3245.786793253317	2
0	13612	3247.777087019568	1
0	13618	3248.5631504136	0
0	13662	3258.804524220389	1
0	13663	3259.147633312011	0
0	13669	3259.243427755341	1
0	13670	3259.808007461109	0
0	13705	3272.218876667268	1
0	13706	3272.711747685188	0
0	13734	3287.203754389622	1
0	13736	3287.846031210407	2
0	13738	3287.947049364571	3
0	13739	3288.264851855676	2
0	13745	3288.794198036096	3
0	13746	3289.995500097764	2
0	13751	3290.119568921819	1
0	13757	3290.344234658056	2
0	13766	3295.710647482636	3
0	13769	3296.831381987495	2
0	13775	3297.573566773595	1
0	13780	3297.71510894354	0
0	13791	3299.453449487637	1
0	13793	3300.30150002412	2
0	13795	3300.540351591361	3
0	13798	3302.239854470881	2
0	13803	3302.605155482108	1
0	13808	3302.652792401652	0
0	13826	3306.943831903274	1
0	13833	3308.433089658804	2
0	13834	3308.862203833892	1
0	13839	3309.31387269588	0
0	13860	3314.667621507498	1
0	13862	3314.804168603558	2
0	13865	3315.8379362329	3
0	13866	3316.967112700478	2
0	13872	3318.002890048612	1
0	13877	3319.033649690547	0
0	13903	3325.578245261304	1
0	13905	3325.852986993838	2
0	13906	3326.189489844121	1
0	13914	3327.497630941829	0
0	13920	3328.344488510836	1
0	13923	3328.626944103799	2
0	13926	3329.085547676789	1
0	13931	3329.162828981113	0
0	13969	3335.975344303129	1
0	13970	3336.607387611601	0
0	13986	3338.406092138586	1
0	13987	3339.30111504107	0
0	13999	3340.406480576309	1
0	14000	3340.580307681146	0
0	14036	3348.517650133709	1
0	14043	3353.432748444634	0
0	14054	3353.851148605452	1
0	14059	3356.075686054888	2
0	14060	3357.79851282429	1
0	14067	3358.870955165	0
0	14080	3362.379945042224	1
0	14081	3364.181650377959	0
0	14093	3366.209840332878	1
0	14094	3366.577027820366	0
0	14101	3367.261098247461	1
0	14104	3367.906928467359	0
0	14113	3368.852402738357	1
0	14115	3370.105557501101	2
0	14117	3370.614040223097	3
0	14120	3371.701361601764	4
0	14122	3373.496896033544	5
0	14123	3373.754299582749	4
0	14128	3373.930557772407	3
0	14133	3374.140789862422	2
0	14141	3374.974150607176	3
0	14146	3377.142834192648	2
0	14151	3378.574444392005	1
0	14160	3380.452482395791	0
0	14184	3388.14491170244	1
0	14186	3389.339714557107	2
0	14189	3389.642714299261	1
0	14195	3390.397427960123	0
0	14210	3394.919784698994	1
0	14213	3398.168181159277	0
0	14231	3399.135205661949	1
0	14233	3399.212879527462	2
0	14234	3399.702446846932	1
0	14240	3400.004280632533	2
0	14241	3400.769363210565	1
0	14246	3401.626993087146	0
0	14272	3409.525813904205	1
0	14277	3412.172716927135	0
0	14286	3412.593541469385	1
0	14288	3412.597226549326	2
0	14292	3415.678008504141	1
0	14299	3416.947710541335	2
0	14300	3418.366603083753	1
0	14306	3418.607491439623	2
0	14313	3420.518225454392	3
0	14314	3420.554962902178	2
0	14319	3420.923988413589	1
0	14326	3421.701969457741	0
0	14336	3424.81899270077	1
0	14338	3425.444101017165	2
0	14340	3427.131278424385	1
0	14345	3427.952882836101	0
0	14351	3429.178488884939	1
0	14354	3429.692679860625	0
0	14368	3432.401914793514	1
0	14370	3432.505240590659	2
0	14371	3432.701221043246	1
0	14376	3433.159185830549	0
0	14431	3447.284162554363	1
0	14432	3447.897455191745	0
0	14449	3451.277545105739	1
0	14454	3453.600730973402	0
0	14463	3455.287214644534	1
0	14469	3458.887034669396	0
0	14537	3482.163798125267	1
0	14538	3482.423356367149	0
0	14547	3483.579959072134	1
0	14548	3484.013160057935	0
0	14594	3501.194428652613	1
0	14595	3501.210355662622	0
0	14650	3513.439290527179	1
0	14651	3513.945536839101	0
0	14682	3523.815158163319	1
0	14683	3524.374660949481	0
0	14730	3534.420740456514	1
0	14731	3534.681315121415	0
0	14791	3547.090282626751	1
0	14792	3547.336087914591	0
0	14831	3556.179197523211	1
0	14832	3557.371775721621	0
0	14846	3561.512502093718	1
0	14847	3561.557808052931	0
0	14870	3570.642351309352	1
0	14871	3571.071407188089	0
0	14927	3590.123122900843	1
0	14928	3590.311900866526	0
0	14983	3608.683978429861	1
0	14984	3608.959234803817	0
0	14998	3609.846288864533	1
0	15000	3610.82802362066	2
0	15001	3611.333614959008	1
0	15006	3611.670062207315	0
0	15038	3618.697543083343	1
0	15042	3620.305929172652	0
0	15078	3625.22786957608	1
0	15079	3626.692764146927	0
0	15085	3627.255016082947	1
0	15086	3627.902903448056	0
0	15099	3629.235912303211	1
0	15101	3631.013461574249	0
0	15120	3635.612599934973	1
0	15122	3635.636021994363	2
0	15126	3638.134744617827	3
0	15127	3638.267459660718	2
0	15134	3640.820544252102	3
0	15135	3643.62996210851	2
0	15140	3643.923483676454	1
0	15147	3644.300646404464	2
0	15149	3644.424077737781	3
0	15151	3645.484413728724	2
0	15156	3646.686464602381	1
0	15161	3647.308205549203	0
0	15175	3648.489064731188	1
0	15179	3648.587216086014	0
0	15185	3649.666524864961	1
0	15186	3649.92950177586	0
0	15211	3653.193754655311	1
0	15212	3653.236309207546	0
0	15218	3654.004692574581	1
0	15219	3654.144319606425	0
0	15282	3673.691491044794	1
0	15283	3673.7076493049	0
0	15289	3673.752312816008	1
0	15290	3674.291621840323	0
0	15296	3675.077207272747	1
0	15297	3675.825420391605	0
0	15310	3677.726387926292	1
0	15312	3678.735466357425	2
0	15313	3679.057012577735	1
0	15319	3679.213216843947	2
0	15320	3679.371895622525	1
0	15324	3679.404052730554	2
0	15328	3680.51243861059	3
0	15329	3680.952423936483	2
0	15334	3681.254564010541	1
0	15338	3682.51869215781	2
0	15340	3683.791344281388	3
0	15342	3684.072860680505	4
0	15344	3684.119940915035	5
0	15347	3685.137745143741	4
0	15351	3686.055842026538	5
0	15355	3687.777632959943	6
0	15357	3687.944295165448	7
0	15358	3688.157355490552	6
0	15363	3690.606379957067	5
0	15371	3694.929012010757	6
0	15372	3695.550311836465	5
0	15380	3696.20096295149	6
0	15385	3698.917426814012	5
0	15390	3702.802095882831	4
0	15395	3703.514324082014	3
0	15401	3704.71595410133	4
0	15403	3705.684055817924	3
0	15408	3705.73069030423	2
0	15422	3708.54158464102	1
0	15428	3709.086395839149	0
0	15458	3711.117300767181	1
0	15459	3712.52898517196	0
0	15489	3716.0160884619	1
0	15491	3716.350774653787	2
0	15493	3717.037932874345	3
0	15496	3719.041885080044	2
0	15502	3719.795169260017	1
0	15508	3720.543723306872	0
0	15519	3722.755110290103	1
0	15521	3722.854263127364	2
0	15526	3724.409880964902	3
0	15527	3724.88053820949	2
0	15532	3724.946532522815	1
0	15539	3727.014947943855	2
0	15542	3728.574289119361	1
0	15548	3729.616157559932	0
0	15557	3730.056151584559	1
0	15559	3730.645156103591	0
0	15575	3732.329851390439	1
0	15577	3733.590052970644	2
0	15579	3736.300128379617	3
0	15581	3737.982755649442	4
0	15582	3739.980381717757	3
0	15589	3740.272723340229	4
0	15592	3741.490198675275	3
0	15600	3743.362025700388	4
0	15601	3743.832163739437	3
0	15606	3744.543815669938	2
0	15612	3745.030105844358	1
0	15619	3745.953657631622	0
0	15660	3753.663979153373	1
0	15661	3757.15226741954	0
0	15678	3761.228243626408	1
0	15679	3761.958988583335	0
0	15691	3762.440905083546	1
0	15693	3762.659428276613	2
0	15695	3763.819434822771	3
0	15696	3764.096613927983	2
0	15701	3764.690219019924	1
0	15707	3764.847572147696	2
0	15712	3765.333327066549	1
0	15717	3765.561284233187	0
0	15743	3771.391544671965	1
0	15745	3772.373531631598	2
0	15749	3773.946746398068	1
0	15755	3774.186541113483	0
0	15788	3783.177349994605	1
0	15789	3783.57630563761	0
0	15795	3784.204354586593	1
0	15798	3786.162240536479	0
0	15841	3804.613066332401	1
0	15844	3804.906656169931	0
0	15851	3805.969314377444	1
0	15854	3808.47731296324	0
0	15872	3810.684832974947	1
0	15873	3810.903737806889	0
0	15939	3829.481619394335	1
0	15941	3830.240185425741	0
0	15947	3830.321634867626	1
0	15948	3830.633726581126	0
0	15984	3845.198399336	1
0	15986	3845.441094940588	2
0	15987	3846.208475785004	1
0	15994	3846.625764233298	2
0	15995	3847.75641601854	1
0	16000	3849.500135581841	0
0	16029	3853.887148122998	1
0	16031	3854.314865171135	0
0	16068	3862.772603830535	1
0	16069	3863.684460028678	0
0	16076	3864.111319106346	1
0	16077	3864.15093135258	0
0	16083	3864.687260426922	1
0	16085	3865.452303469129	0
0	16091	3866.388735671087	1
0	16093	3867.154620631036	2
0	16095	3867.54985670093	3
0	16097	3867.815509501136	2
0	16102	3868.618136049451	1
0	16107	3868.984123429084	0
0	16191	3892.732619447537	1
0	16192	3893.533993903828	0
0	16219	3901.313541000501	1
0	16224	3903.041674923165	2
0	16225	3904.44604390779	1
0	16232	3905.047270485199	2
0	16236	3906.720827614685	3
0	16237	3907.970431394598	2
0	16245	3910.068464828944	1
0	16251	3910.929538404767	0
0	16266	3913.627801792208	1
0	16272	3914.827974750707	0
0	16285	3917.10788902	1
0	16288	3917.425651650006	0
0	16320	3921.997932489239	1
0	16326	3923.571179499465	2
0	16328	3923.809489347925	1
0	16335	3924.544977999879	2
0	16337	3927.36548413642	1
0	16342	3927.5231932309	0
0	16351	3929.860025709515	1
0	16352	3929.926201372179	0
0	16366	3934.547843145264	1
0	16367	3935.665330221462	0
0	16392	3940.006825450865	1
0	16397	3940.692844728486	2
0	16400	3941.876463179379	3
0	16401	3942.119813377276	2
0	16406	3942.258609717814	1
0	16411	3942.546505727996	0
0	16434	3945.07553743307	1
0	16435	3945.383144150437	0
0	16441	3945.512681273743	1
0	16444	3946.747861281088	2
0	16446	3947.680576079304	1
0	16452	3951.929770667606	2
0	16453	3952.343905384484	1
0	16460	3953.220170623987	2
0	16465	3953.724413694769	1
0	16470	3954.371194310696	0
0	16520	3962.709947711731	1
0	16522	3963.079661240846	2
0	16528	3968.519709703424	1
0	16533	3969.106872633378	0
0	16549	3971.379002909341	1
0	16553	3973.035536536083	0
0	16559	3973.919835331121	1
0	16563	3975.20259922093	0
0	16571	3977.608481228199	1
0	16572	3978.104873793887	0
0	16623	3995.347830208909	1
0	16626	3995.533429509185	0
0	16651	4003.991239932951	1
0	16652	4004.084339112292	0
0	16685	4010.926819184835	1
0	16689	4011.788056965032	2
0	16690	4012.16195221065	1
0	16695	4012.273982383312	0
0	16710	4014.303135496335	1
0	16712	4014.905040093957	2
0	16714	4015.920066814887	3
0	16716	4017.873778353728	4
0	16717	4017.961837609617	3
0	16723	4018.040440279381	4
0	16724	4018.040598379442	3
0	16731	4020.273723004161	2
0	16736	4020.974895204172	1
0	16741	4021.067486313391	0
0	16762	4028.990916171408	1
0	16763	4029.390827043333	0
0	16779	4030.975062804638	1
0	16780	4031.2397647209	0
0	16788	4032.454239329454	1
0	16789	4032.955745827865	0
0	16796	4033.485359360278	1
0	16797	4034.458265178594	0
0	16832	4040.816416094914	1
0	16835	4041.153091517987	0
0	16847	4042.057479037971	1
0	16849	4042.628885230441	2
0	16850	4042.84905497482	1
0	16861	4047.266891472071	0
0	16870	4049.357794730312	1
0	16871	4050.07043092899	0
0	16882	4051.184639803878	1
0	16885	4054.344434420211	0
0	16900	4059.481805524658	1
0	16901	4061.603390138636	0
0	16921	4067.590518126972	1
0	16924	4068.682574408246	0
0	16935	4068.98295521854	1
0	16936	4069.016240285057	0
0	16966	4075.213202797984	1
0	16967	4076.184716047328	0
0	17019	4084.774341438506	1
0	17020	4084.866704929607	0
0	17036	4086.893682407432	1
0	17039	4088.621802244145	0
0	17076	4101.940957828164	1
0	17078	4102.105900420565	2
0	17079	4103.257266369013	1
0	17086	4103.867021565568	2
0	17087	4104.522635724314	1
0	17092	4104.694802364572	0
0	17105	4106.278213094415	1
0	17110	4107.344560162752	0
0	17123	4108.978535947258	1
0	17124	4109.069793681924	0
0	17164	4119.31403851614	1
0	17168	4121.651327873255	0
0	17180	4122.757630695268	1
0	17184	4126.601713322258	2
0	17185	4127.140875945498	1
0	17191	4128.198116579032	2
0	17192	4129.04205403375	1
0	17199	4129.596453784285	0
0	17229	4136.890437048484	1
0	17233	4137.929505239793	0
0	17249	4142.423423614732	1
0	17251	4143.125134176208	2
0	17253	4144.286648037364	3
0	17256	4146.911848745737	2
0	17264	4149.494007097805	3
0	17265	4149.619682455904	2
0	17270	4149.931268874752	1
0	17275	4150.488312946422	0
0	17286	4151.424818719913	1
0	17291	4152.817542430743	2
0	17293	4153.463855224829	1
0	17299	4153.77172465495	0
0	17336	4164.958633886326	1
0	17339	4165.619084816591	2
0	17341	4166.210823065694	3
0	17344	4168.79096802778	2
0	17349	4169.404796419487	1
0	17354	4169.653658229731	0
0	17366	4170.153408962656	1
0	17367	4170.244996238316	0
0	17387	4172.022335529164	1
0	17388	4172.351749767853	0
0	17424	4179.210228461941	1
0	17425	4181.525658308397	0
0	17433	4182.869342494717	1
0	17435	4183.610405603177	0
0	17471	4196.741024401246	1
0	17473	4198.107904520929	0
0	17507	4204.163034297625	1
0	17509	4204.591012351575	0
0	17548	4216.651131453379	1
0	17552	4217.745943788708	2
0	17553	4218.33468818248	1
0	17559	4218.731371948757	2
0	17561	4218.839139221764	3
0	17565	4219.226723285272	4
0	17567	4220.132521621641	5
0	17569	4220.48273385346	6
0	17570	4220.484096222693	5
0	17575	4220.569563636028	4
0	17580	4222.388865714724	3
0	17585	4222.561689549366	2
0	17593	4224.178357444251	1
0	17598	4224.312783482726	0
0	17646	4236.742565996404	1
0	17648	4239.85577796135	2
0	17649	4241.966529677311	1
0	17655	4242.197961843601	2
0	17657	4242.567022308329	1
0	17664	4244.033414142246	0
0	17709	4252.387518063235	1
0	17710	4252.457163563307	0
0	17727	4259.723246626531	1
0	17728	4260.17576035839	0
0	17773	4269.256596969332	1
0	17775	4269.329588055211	2
0	17778	4271.261623232645	3
0	17782	4271.659396979414	4
0	17783	4273.391317169469	3
0	17793	4275.550578394667	2
0	17800	4276.181222842465	3
0	17802	4277.699588218331	2
0	17808	4278.67303509589	1
0	17814	4278.731393037946	2
0	17815	4279.316807118817	1
0	17821	4279.730264838158	2
0	17822	4280.046206121924	1
0	17829	4281.962603207792	0
0	17841	4282.640204663914	1
0	17842	4283.392709203601	0
0	17855	4285.850756331503	1
0	17856	4286.478834949152	0
0	17909	4294.960265663628	1
0	17911	4295.337575389052	2
0	17912	4295.505269251159	1
0	17918	4296.955416577864	0
0	17972	4310.797879842405	1
0	17976	4313.111976271257	0
0	17982	4313.177853807659	1
0	17983	4313.185399867481	0
0	18016	4324.308971565961	1
0	18017	4325.586193518192	0
0	18030	4327.302735258354	1
0	18032	4327.830825274002	2
0	18034	4327.888667164034	3
0	18037	4331.685956409946	2
0	18043	4332.493996057301	1
0	18049	4333.841572643446	0
0	18085	4340.694695903411	1
0	18087	4342.215133964401	0
0	18142	4357.139195295824	1
0	18143	4357.325258434452	0
0	18184	4366.726014817652	1
0	18186	4368.078927538318	0
0	18198	4370.381460270428	1
0	18202	4372.336308881963	2
0	18203	4372.451308252413	1
0	18210	4372.89321148519	2
0	18212	4373.805171227019	1
0	18218	4374.051551608517	0
0	18238	4376.525213097229	1
0	18239	4377.092795349169	0
0	18261	4379.766741699536	1
0	18265	4380.612597221412	0
0	18358	4403.207740537793	1
0	18362	4403.361406908541	2
0	18364	4405.222021242461	1
0	18372	4405.665376157371	2
0	18373	4407.281712475548	1
0	18378	4407.867883664869	0
0	18390	4408.512364201439	1
0	18393	4409.566756332351	0
0	18405	4413.546552083764	1
0	18407	4414.212906980235	2
0	18409	4414.756602884948	1
0	18415	4415.015694627902	2
0	18417	4415.950441408588	3
0	18418	4416.187182535338	2
0	18423	4416.537189503366	1
0	18428	4416.814026236183	0
0	18439	4418.149474567715	1
0	18443	4418.970112965235	0
0	18485	4429.087702245391	1
0	18487	4429.858862300563	2
0	18489	4430.714082014407	1
0	18497	4431.080141210851	0
0	18567	4444.372836279525	1
0	18570	4444.705725980865	0
0	18576	4444.747078159017	1
0	18577	4445.086645974435	0
0	18598	4447.396729027249	1
0	18599	4447.997270659097	0
0	18615	4452.447884439373	1
0	18617	4452.635039675021	2
0	18618	4453.145672719214	1
0	18624	4454.623650732442	0
0	18633	4455.735794783217	1
0	18634	4456.112282664678	0
0	18652	4459.385415441136	1
0	18654	4459.699502865468	2
0	18659	4461.827272444379	3
0	18660	4462.622123744652	2
0	18665	4462.671314945542	1
0	18670	4462.745385297051	0
0	18686	4465.939787681612	1
0	18688	4465.960696187408	2
0	18690	4470.20245569539	1
0	18695	4470.339761102772	0
0	18740	4487.986074631556	1
0	18741	4488.461731966297	0
0	18756	4495.521675670621	1
0	18757	4495.736020548558	0
0	18794	4512.041175611624	1
0	18795	4513.710174176918	0
0	18897	4544.110717560685	1
0	18900	4544.376272712137	0
0	18940	4553.846242747701	1
0	18944	4554.334554717942	2
0	18945	4554.432935387236	1
0	18950	4554.791067197835	0
0	18956	4554.870272529331	1
0	18957	4555.469980558502	0
0	18963	4555.701881485502	1
0	18966	4556.578553963225	0
0	19081	4585.302596232572	1
0	19082	4585.458300497193	0
0	19110	4591.155128168512	1
0	19111	4591.906100774418	0
0	19151	4604.634710691373	1
0	19152	4604.681093237885	0
0	19175	4608.358615868517	1
0	19176	4609.401205953444	0
0	19227	4619.197184681287	1
0	19228	4619.201385245312	0
0	19261	4627.996939635879	1
0	19264	4628.836671673112	2
0	19267	4630.784234797273	1
0	19273	4632.909939583273	0
0	19279	4633.318654371022	1
0	19282	4633.66984243765	0
0	19289	4634.522413208586	1
0	19292	4635.154767421295	0
0	19299	4635.521599107506	1
0	19300	4635.808463727602	0
0	19317	4638.416251249064	1
0	19320	4640.732283627938	0
0	19326	4641.402306736544	1
0	19327	4642.212178444597	0
0	19348	4647.31316754596	1
0	19352	4648.134755103285	2
0	19354	4648.163566187577	3
0	19357	4648.228213189335	4
0	19359	4648.51498015825	5
0	19362	4649.821747291219	4
0	19368	4650.525676621844	3
0	19374	4651.316597634746	2
0	19380	4652.636976191604	1
0	19385	4654.239012637996	0
0	19391	4654.290217708633	1
0	19393	4655.12203301481	0
0	19428	4666.995996785706	1
0	19429	4667.082719819665	0
0	19444	4667.430854278146	1
0	19445	4667.52563215133	0
0	19467	4675.269459991493	1
0	19468	4675.816715141155	0
0	19480	4676.821527144861	1
0	19481	4677.052203232053	0
0	19495	4679.524614119064	1
0	19500	4681.085198228148	2
0	19501	4681.352157702557	1
0	19507	4682.34501883173	2
0	19509	4683.918589809736	1
0	19515	4684.091193548787	0
0	19544	4690.711475316882	1
0	19545	4690.918941761639	0
0	19556	4693.250282443683	1
0	19559	4693.490926392311	0
0	19565	4693.792600406473	1
0	19572	4695.486650083343	0
0	19602	4702.365381816525	1
0	19604	4702.426260846607	2
0	19606	4702.51696103799	3
0	19607	4703.055616867809	2
0	19613	4704.087409929924	1
0	19618	4705.204601174621	0
0	19631	4707.805724497686	1
0	19637	4708.798107108178	2
0	19639	4708.8000007816	3
0	19640	4709.366238177011	2
0	19646	4709.808220234355	1
0	19651	4710.078817557039	0
0	19657	4710.268614146495	1
0	19659	4711.727629435928	0
0	19674	4715.443376830262	1
0	19678	4716.85050457917	2
0	19683	4724.982385097657	1
0	19689	4725.262977967108	2
0	19693	4726.009294588789	3
0	19694	4726.019613357155	2
0	19699	4726.293940082337	1
0	19709	4728.466738980012	2
0	19712	4731.092310141568	1
0	19717	4731.529830635786	0
0	19728	4732.493939279135	1
0	19733	4736.017289880478	0
0	19748	4739.775191320114	1
0	19749	4740.141101310403	0
0	19778	4744.39503768955	1
0	19779	4744.684854253067	0
0	19864	4765.55941829354	1
0	19865	4766.203690820984	0
0	19909	4778.835439245801	1
0	19911	4779.874566185644	0
0	19926	4784.783630155776	1
0	19927	4785.063862438645	0
0	19933	4785.080036887176	1
0	19935	4785.315433947102	0
0	19949	4786.214423631026	1
0	19951	4786.28139604994	2
0	19953	4786.309744198315	3
0	19955	4787.197093009062	2
0	19961	4787.316840502248	3
0	19962	4787.548275136559	2
0	19968	4788.989743980573	3
0	19975	4791.012012446658	2
0	19981	4791.302331464234	1
0	19987	4791.602885381663	2
0	19989	4791.713785374276	3
0	19990	4792.100515234697	2
0	19995	4792.699525669171	1
0	20001	4793.211731819606	2
0	20005	4793.815065487045	3
0	20007	4794.428289804169	4
0	20009	4794.791527155012	5
0	20012	4795.299565905654	4
0	20017	4795.304719066073	3
0	20023	4795.607045849512	4
0	20024	4796.182609693571	3
0	20030	4798.037160812306	2
0	20037	4799.171989559479	3
0	20038	4799.319820565654	2
0	20045	4800.390609043534	1
0	20050	4801.370147843054	0
0	20066	4804.090638527063	1
0	20070	4805.433393783906	0
0	20089	4807.541415189815	1
0	20090	4808.761335311045	0
0	20096	4810.058194429975	1
0	20099	4810.554650994254	0
0	20120	4813.447087681346	1
0	20121	4813.622348752675	0
0	20149	4816.351690802513	1
0	20151	4817.170562116793	2
0	20153	4817.653254340963	3
0	20155	4818.945686798111	4
0	20158	4820.521233492282	3
0	20165	4821.45233992448	2
0	20171	4821.844729466768	3
0	20177	4824.338200724126	2
0	20182	4825.009212512862	1
0	20187	4825.704076663369	0
0	20214	4830.947358258281	1
0	20216	4833.074333472117	0
0	20244	4841.303700964922	1
0	20247	4844.697115929825	0
0	20260	4847.215381673894	1
0	20263	4848.796262891041	0
0	20289	4856.05920167554	1
0	20293	4857.393006703548	0
0	20309	4860.568447796653	1
0	20310	4860.892056973141	0
0	20327	4865.903835685252	1
0	20332	4867.075266134044	0
0	20373	4877.920405819292	1
0	20377	4881.636188274653	0
0	20438	4899.494534050616	1
0	20441	4900.248111408385	0
0	20449	4900.910177247488	1
0	20451	4901.024616866288	2
0	20453	4901.207022744381	3
0	20454	4901.38837773977	2
0	20459	4901.922852150399	1
0	20465	4902.736929448946	2
0	20466	4902.771624976593	1
0	20474	4904.285541494496	2
0	20476	4905.14720705591	1
0	20488	4908.743936686641	2
0	20489	4909.382471774811	1
0	20495	4909.461800705381	2
0	20496	4909.748520094836	1
0	20502	4914.396092827855	0
0	20521	4922.608215524244	1
0	20522	4923.049824436622	0
0	20528	4923.132392663812	1
0	20530	4924.932640290792	0
0	20536	4925.885063440158	1
0	20537	4926.435149294398	0
0	20566	4938.526562152486	1
0	20567	4938.827897579218	0
0	20573	4938.848923081507	1
0	20574	4939.036603978482	0
0	20582	4940.434722148177	1
0	20584	4941.012534984697	0
0	20645	4960.758087297529	1
0	20646	4960.855599439244	0
0	20677	4967.259485283412	1
0	20679	4967.915468688849	2
0	20680	4968.069923387789	1
0	20685	4969.041971551221	0
0	20691	4969.291675256549	1
0	20695	4972.913070465464	2
0	20697	4973.024620623249	1
0	20704	4973.456077336641	0
0	20717	4974.141722771732	1
0	20718	4975.365711311363	0
0	20741	4980.291128555925	1
0	20744	4983.034781152365	0
0	20751	4983.97377511153	1
0	20754	4985.041232003526	0
0	20766	4988.313322847481	1
0	20768	4990.928106444833	2
0	20770	4992.189480480409	3
0	20773	4994.894994129158	2
0	20779	4995.600865763455	3
0	20780	4995.77780391187	2
0	20785	4995.922155623775	1
0	20792	4996.357047525533	0
0	20802	4996.711747673625	1
0	20804	4996.762358544939	2
0	20806	4997.077727988163	3
0	20809	4998.059186903647	2
0	20817	4998.802156155422	3
0	20818	4998.818293958411	2
0	20823	4999.222147805977	1
0	20829	5000.010083931513	0
0	20850	5003.899277904771	1
0	20851	5004.048788640509	0
0	20866	5009.132290361951	1
0	20868	5010.246663665805	2
0	20870	5011.787597381395	3
0	20871	5013.58251208602	2
0	20876	5013.658018914972	1
0	20885	5014.868891950363	0
0	20914	5020.156311841265	1
0	20915	5020.478152832868	0
0	20924	5023.757494375563	1
0	20925	5024.536735625626	0
0	20966	5033.231069455571	1
0	20967	5034.190554700369	0
0	20991	5043.081120981451	1
0	20992	5043.999747573013	0
0	20998	5044.529455430331	1
0	21000	5044.711555372365	0
0	21007	5045.699679965425	1
0	21008	5046.296847692488	0
0	21021	5049.651762379522	1
0	21022	5050.289357613574	0
0	21028	5050.359642388856	1
0	21030	5051.329366566152	2
0	21031	5051.484785093153	1
0	21036	5051.626137866634	0
0	21042	5052.930551466401	1
0	21045	5055.59436284035	0
0	21051	5055.676446262949	1
0	21055	5056.737738621841	2
0	21059	5058.376864901138	1
0	21065	5058.625340808044	0
0	21091	5065.068823920379	1
0	21092	5065.57437551779	0
0	21122	5070.861332026097	1
0	21123	5071.127075917781	0
0	21130	5071.849562297739	1
0	21133	5072.498874616009	2
0	21134	5072.686951945003	1
0	21141	5073.209682995847	2
0	21144	5074.271873949468	1
0	21149	5074.961508677595	0
0	21209	5087.293672928167	1
0	21213	5088.365865388799	2
0	21214	5088.554520762161	1
0	21219	5088.739112668404	0
0	21230	5089.866180145512	1
0	21231	5090.138896627213	0
0	21255	5094.577475713917	1
0	21257	5097.536931801047	0
0	21271	5100.41110918874	1
0	21273	5104.052890413855	2
0	21274	5104.227608523056	1
0	21280	5105.053732966988	0
0	21294	5106.843192196441	1
0	21295	5107.638034298288	0
0	21326	5115.452972336595	1
0	21328	5116.117756014548	2
0	21330	5117.214941693706	3
0	21331	5118.405738103202	2
0	21336	5119.096253615541	1
0	21342	5119.898580263207	0
0	21375	5132.816010124881	1
0	21376	5133.210981166036	0
0	21404	5138.205406305717	1
0	21406	5138.532863774963	2
0	21409	5139.741238560286	1
0	21416	5140.620006118739	0
0	21479	5153.411262892216	1
0	21488	5157.445910239185	2
0	21489	5157.552965704011	1
0	21494	5157.786064883968	0
0	21503	5158.894974278956	1
0	21505	5159.240059384256	2
0	21506	5159.437359645783	1
0	21511	5159.47518085873	0
0	21519	5160.666047173924	1
0	21521	5160.708411576052	2
0	21523	5161.251880675573	1
0	21528	5161.435706510743	0
0	21556	5165.453289593873	1
0	21558	5166.984684998949	0
0	21597	5178.466037756377	1
0	21599	5178.934780805784	2
0	21600	5180.469784699357	1
0	21605	5180.557886309041	0
0	21653	5195.060079907671	1
0	21655	5196.26927649791	0
0	21661	5196.884307510251	1
0	21662	5197.000404235525	0
0	21683	5203.900630668411	1
0	21687	5205.510156144633	0
0	21699	5208.526366256094	1
0	21702	5209.593201537735	0
0	21733	5223.020724575568	1
0	21734	5223.341721318397	0
0	21746	5225.420336798641	1
0	21748	5225.882587236785	0
0	21762	5228.89102168047	1
0	21766	5229.179457780311	2
0	21767	5229.934085075686	1
0	21773	5230.264476707316	0
0	21816	5237.170186716765	1
0	21818	5238.539871034158	2
0	21819	5239.367689648152	1
0	21825	5239.521945227269	2
0	21826	5239.524904656827	1
0	21832	5240.150081057936	0
0	21853	5243.150067720925	1
0	21855	5243.824667915548	2
0	21857	5243.958246856458	3
0	21861	5246.94947916141	4
0	21862	5247.018429790124	3
0	21867	5248.082489927267	2
0	21873	5248.116491655831	3
0	21877	5249.777557115628	2
0	21885	5250.854469805301	3
0	21887	5251.952398507598	2
0	21892	5253.421608903891	1
0	21899	5253.834755738989	0
0	21956	5265.534066183777	1
0	21957	5266.208569466083	0
0	21970	5272.102377991747	1
0	21973	5272.724311892168	0
0	22003	5279.378782098647	1
0	22004	5280.648047459799	0
0	22010	5280.941524235821	1
0	22011	5281.810045454581	0
0	22038	5287.38552165145	1
0	22039	5287.500635851397	0
0	22062	5294.277418335783	1
0	22063	5295.486561582714	0
0	22087	5299.68782200035	1
0	22089	5299.747424201066	2
0	22091	5301.218141089908	1
0	22100	5303.805405321791	0
0	22107	5304.568782574452	1
0	22109	5304.805140133035	2
0	22110	5305.16211292953	1
0	22116	5305.369704493302	2
0	22117	5306.430382697445	1
0	22123	5306.731015765968	2
0	22125	5306.85455298294	3
0	22127	5306.963647666897	2
0	22133	5307.614091124173	3
0	22136	5308.224614216425	2
0	22141	5308.305577817217	1
0	22146	5308.382451626498	0
0	22152	5308.807367696097	1
0	22154	5310.015138964302	0
0	22192	5320.043085069693	1
0	22193	5320.921433797067	0
0	22199	5321.037746669961	1
0	22200	5321.184552463426	0
0	22208	5324.155693599644	1
0	22209	5324.500721403588	0
0	22218	5327.056025763417	1
0	22219	5327.132491657761	0
0	22247	5336.647135106215	1
0	22250	5338.834588063224	2
0	22251	5339.161226937118	1
0	22258	5339.803455448221	0
0	22265	5340.295214056686	1
0	22268	5341.15426448032	0
0	22304	5356.419729035691	1
0	22306	5356.776363422456	2
0	22307	5357.084615783307	1
0	22314	5357.738415310519	0
0	22379	5371.241335622395	1
0	22381	5371.31359987931	2
0	22383	5371.701747596963	3
0	22384	5372.786834467181	2
0	22389	5373.922787540999	1
0	22395	5374.036279974909	0
0	22469	5391.951792604147	1
0	22473	5392.303484034816	2
0	22475	5392.658170047113	1
0	22481	5395.111514040506	0
0	22487	5395.295879813749	1
0	22491	5396.749364998468	0
0	22502	5397.27489878175	1
0	22503	5397.340428214306	0
0	22542	5410.050211987519	1
0	22544	5410.270806090257	0
0	22565	5418.248954596931	1
0	22566	5418.844051475492	0
0	22627	5433.429650468466	1
0	22630	5434.234996019887	2
0	22632	5435.077668374997	1
0	22637	5435.948248141192	0
0	22677	5440.094950484278	1
0	22681	5441.175262109987	2
0	22682	5442.102925197336	1
0	22688	5442.25271934121	2
0	22689	5442.36822424608	1
0	22696	5443.742698307585	0
0	22707	5446.696273778594	1
0	22711	5447.965913220172	2
0	22715	5448.125678845351	3
0	22720	5448.800693889672	2
0	22726	5450.496316547478	1
0	22732	5452.737900236793	0
0	22749	5456.179966035444	1
0	22750	5456.881119243216	0
0	22800	5466.796381703206	1
0	22802	5466.913566206255	2
0	22803	5467.049645871081	1
0	22808	5468.038660173226	0
0	22825	5471.054987108669	1
0	22827	5474.242564169226	0
0	22833	5474.315265535632	1
0	22835	5475.922241853152	0
0	22853	5478.076458780391	1
0	22859	5481.412159487006	2
0	22860	5482.154659781823	1
0	22865	5482.575306288128	0
0	22925	5507.591282248563	1
0	22928	5507.961624798903	0
0	22960	5512.728800763058	1
0	22965	5516.283036189656	0
0	22985	5520.752828424558	1
0	22986	5521.168817598264	0
0	22999	5522.805790206379	1
0	23003	5524.558529308656	2
0	23004	5525.487861911701	1
0	23009	5525.720581086982	0
0	23047	5539.677031421073	1
0	23049	5539.747166698021	2
0	23051	5539.902723025899	3
0	23054	5542.198133999568	2
0	23059	5542.272229746855	1
0	23064	5542.348518321272	0
0	23094	5553.465788259282	1
0	23096	5554.35529946034	2
0	23097	5554.536179290197	1
0	23103	5554.591112296348	0
0	23126	5558.887342169515	1
0	23129	5559.756316374588	0
0	23141	5560.597224134198	1
0	23142	5562.056765202145	0
0	23172	5569.738965222341	1
0	23178	5570.987977469611	2
0	23181	5572.718942209664	3
0	23184	5573.209301052389	4
0	23185	5573.816975281504	3
0	23190	5574.206344355871	2
0	23196	5574.761665429615	1
0	23202	5575.129857471116	0
0	23225	5577.350429685637	1
0	23227	5577.389405579777	2
0	23231	5578.190289191556	1
0	23238	5580.233515201571	0
0	23269	5587.661747043795	1
0	23274	5589.867602549899	0
0	23333	5603.945408042408	1
0	23337	5604.194712473186	0
0	23358	5613.844429729865	1
0	23365	5616.10807448909	0
0	23380	5617.456360084285	1
0	23381	5619.215827352727	0
0	23401	5620.933200699525	1
0	23402	5621.225130491092	0
0	23409	5623.526810767233	1
0	23412	5625.646149339401	2
0	23413	5625.796760313368	1
0	23419	5627.174880122252	0
0	23493	5640.356977210158	1
0	23499	5644.601914390903	2
0	23500	5644.604243957884	1
0	23506	5645.144272323135	2
0	23508	5646.269609325187	1
0	23513	5646.423097742325	0
0	23519	5647.86552568125	1
0	23523	5648.914273297437	0
0	23546	5651.269959343989	1
0	23548	5651.379877325506	2
0	23550	5652.637520374726	1
0	23555	5652.855507525939	0
0	23561	5653.843490555652	1
0	23562	5654.577408536804	0
0	23568	5655.245681533889	1
0	23571	5655.654700824115	2
0	23575	5656.955935825299	1
0	23580	5657.042540661067	0
0	23586	5657.046707014435	1
0	23588	5657.325801157862	0
0	23594	5657.681476284501	1
0	23595	5658.346833290217	0
0	23599	5658.430185650632	1
0	23602	5659.086256449003	0
0	23625	5661.871195177802	1
0	23626	5661.937711659431	0
0	23653	5669.712547670681	1
0	23654	5669.98612255058	0
0	23670	5672.815787394164	1
0	23671	5673.745766398407	0
0	23677	5673.83681875114	1
0	23680	5675.413650560781	2
0	23681	5675.469501716361	1
0	23687	5676.784090008583	2
0	23689	5677.560722325828	1
0	23694	5678.279537319787	0
0	23709	5680.548167493879	1
0	23712	5682.272892746946	2
0	23713	5682.937203319774	1
0	23718	5683.021050479288	0
0	23724	5684.353409345757	1
0	23725	5685.622704466296	0
0	23731	5686.812575931	1
0	23733	5686.953685689551	2
0	23734	5687.14176297786	1
0	23739	5687.902045084621	0
0	23761	5692.202979333316	1
0	23762	5692.297056700292	0
0	23777	5695.847558555743	1
0	23779	5695.978045820031	2
0	23782	5698.288611847148	3
0	23784	5699.054243615057	2
0	23792	5700.301975205312	3
0	23794	5700.784034079944	4
0	23795	5701.40352540479	3
0	23805	5706.739853997263	4
0	23806	5706.754145939599	3
0	23812	5706.824011057212	4
0	23815	5707.157374135316	5
0	23818	5708.283020711708	4
0	23823	5708.319000643739	3
0	23829	5708.602467479438	2
0	23834	5708.776491843481	1
0	23839	5708.857029474817	0
0	23855	5709.734666599193	1
0	23856	5710.838834435885	0
0	23867	5711.477398890315	1
0	23875	5713.064134360898	2
0	23877	5713.944247653757	3
0	23878	5714.385705874812	2
0	23885	5715.909320947306	3
0	23888	5716.298537329496	4
0	23889	5716.348989273814	3
0	23894	5716.470478434676	2
0	23904	5718.876119033632	3
0	23905	5719.058730613185	2
0	23910	5719.736606730132	1
0	23914	5720.581463067468	2
0	23917	5721.437498441853	1
0	23921	5722.141527140773	2
0	23925	5723.645566154383	1
0	23933	5725.503892499014	0
0	23944	5726.662794890243	1
0	23949	5728.690421141106	0
0	23984	5734.172221849671	1
0	23985	5734.201860043317	0
0	24027	5753.033645180887	1
0	24031	5754.600002288318	2
0	24032	5755.230335904146	1
0	24037	5755.300383020054	0
0	24051	5758.385073035047	1
0	24055	5758.985221835166	0
0	24068	5760.281510774014	1
0	24070	5761.258509058764	2
0	24072	5763.331673771591	1
0	24077	5763.960172755345	0
0	24094	5767.642844280934	1
0	24097	5769.933612156163	0
0	24103	5770.260514445474	1
0	24105	5770.632451034484	2
0	24107	5771.303041371697	1
0	24113	5772.03887365514	0
0	24152	5780.347471422819	1
0	24153	5781.16999476361	0
0	24160	5783.175388839361	1
0	24161	5783.454270547807	0
0	24185	5792.267275997306	1
0	24187	5792.549840614897	2
0	24191	5795.695889563719	1
0	24196	5795.733483687603	0
0	24202	5795.976078722268	1
0	24204	5797.246698311915	2
0	24206	5797.372775214035	3
0	24207	5797.537822135955	2
0	24213	5797.935042704986	1
0	24219	5799.160214476257	0
0	24256	5807.500406833188	1
0	24257	5807.687611410407	0
0	24273	5811.660725185769	1
0	24275	5812.150325029456	2
0	24277	5812.571450101476	3
0	24278	5813.586697190686	2
0	24283	5813.599229237432	1
0	24288	5814.09949021659	0
0	24312	5824.341173034416	1
0	24313	5825.362517468745	0
0	24319	5825.828891858695	1
0	24321	5826.284983717866	2
0	24323	5827.5236185054	1
0	24328	5827.815005054106	0
0	24361	5833.417568137504	1
0	24364	5833.742818645338	0
0	24424	5847.759560856265	1
0	24426	5847.773854518286	2
0	24428	5848.536134483745	1
0	24434	5848.54726066445	2
0	24436	5848.61446627563	3
0	24439	5850.559490194924	2
0	24444	5850.807044715761	1
0	24452	5852.658515217707	0
0	24503	5862.801773884364	1
0	24505	5863.752114225832	2
0	24507	5865.993317622827	1
0	24512	5866.000865139756	0
0	24519	5866.638231442499	1
0	24521	5868.326980389745	0
0	24538	5870.925149722299	1
0	24539	5871.126888319025	0
0	24561	5880.083448892134	1
0	24564	5880.265375555132	2
0	24565	5880.307036168179	1
0	24570	5880.455910861653	0
0	24595	5884.510936485562	1
0	24596	5884.543747359606	0
0	24611	5892.446805038393	1
0	24613	5892.754126627757	2
0	24614	5892.898494949918	1
0	24619	5893.356569789107	0
0	24633	5894.800178555718	1
0	24637	5895.42097052622	2
0	24638	5895.523149686767	1
0	24647	5896.126065568298	2
0	24650	5897.494835300592	1
0	24656	5898.543015453165	2
0	24661	5900.755672408217	1
0	24667	5901.881717774271	0
0	24679	5905.046003764445	1
0	24680	5905.350769498942	0
0	24735	5919.692995954133	1
0	24738	5920.951071435398	2
0	24740	5921.598156975186	1
0	24746	5922.026225634959	2
0	24749	5924.594467076662	1
0	24754	5924.686213658397	0
0	24768	5925.696941590993	1
0	24770	5926.357917050298	0
0	24776	5926.388831183716	1
0	24778	5926.630080619158	2
0	24780	5926.761980592351	3
0	24783	5927.769495027771	4
0	24786	5928.618673481456	3
0	24791	5928.650800535712	2
0	24798	5929.382668634505	1
0	24805	5931.209096592148	0
0	24853	5938.337606782032	1
0	24854	5939.429867185931	0
0	24878	5942.604217800863	1
0	24879	5942.978416230858	0
0	24913	5958.120953526488	1
0	24916	5959.80495506886	0
0	24948	5965.119931370011	1
0	24952	5965.888040838681	0
0	24970	5968.915470091951	1
0	24971	5968.930565806436	0
0	24990	5973.328130991427	1
0	24992	5974.162840206429	2
0	24993	5974.61550490703	1
0	24999	5976.177550856488	2
0	25000	5977.29916959386	1
0	25006	5979.039937313537	0
0	25026	5981.290164752015	1
0	25031	5983.064333729599	2
0	25032	5983.253519569673	1
0	25040	5985.306238835109	0
0	25065	5990.212766428239	1
0	25068	5990.85875279509	2
0	25070	5991.725885370428	1
0	25075	5991.998014003282	0
0	25124	6013.236091671567	1
0	25125	6013.595137929726	0
0	25140	6015.646060994533	1
0	25144	6019.016517882923	0
0	25162	6021.00737934608	1
0	25165	6021.4037212328	2
0	25167	6022.261320197351	1
0	25173	6023.004687332827	0
0	25214	6033.728885914198	1
0	25216	6035.593693390033	2
0	25217	6036.606815383604	1
0	25224	6038.069133184556	0
0	25236	6038.805045356094	1
0	25237	6040.784339388772	0
0	25253	6043.242574876199	1
0	25255	6044.506744724471	2
0	25256	6045.035219005719	1
0	25261	6045.140666791741	0
0	25267	6045.399432683606	1
0	25268	6045.494681958211	0
0	25287	6054.289347928627	1
0	25290	6056.312379472135	0
0	25304	6060.309420788935	1
0	25305	6060.662734342879	0
0	25355	6075.462057581945	1
0	25357	6075.8012483846	2
0	25362	6076.573033117213	1
0	25368	6077.205891767575	2
0	25370	6077.298436218061	3
0	25372	6077.316419681046	4
0	25375	6077.662969019364	5
0	25376	6078.897834383325	4
0	25383	6079.990208530662	3
0	25388	6081.594797425574	2
0	25393	6082.058765312272	1
0	25399	6083.539646872779	0
0	25457	6094.326008587865	1
0	25458	6094.800437105525	0
0	25475	6096.174112986901	1
0	25476	6096.284523327051	0
0	25489	6100.375240113995	1
0	25490	6100.541700739668	0
0	25539	6118.306455973309	1
0	25540	6118.501095618309	0
0	25554	6120.81326345038	1
0	25555	6121.09490408723	0
0	25563	6122.579421322186	1
0	25565	6122.666763849139	2
0	25569	6123.524051050939	3
[...]
4	117001	27708.611184041223	1.355382964917
4	117013	27710.447919553085	0.238068802964
4	117030	27713.405223320222	0.152936666357
4	117048	27716.365959038873	2.544825985498
4	117073	27724.13247039043	1.701062924408
4	117091	27728.773305960154	5.87785829087
4	117101	27729.323769100932	1.299551816794
4	117106	27730.155829532773	2.07725546204
4	117114	27733.349267075138	0.540240806616
4	117134	27735.747204330896	2.305361851885
4	117172	27741.276906299544	7.793839228726
4	117216	27748.2257986251	12.766586801316
4	117232	27749.931232753937	11.18503266818
4	117270	27755.323022760058	10.640544266175
4	117275	27755.755357740269	8.616749683083
4	117281	27757.311343587388	8.352777285781
4	117289	27757.436697113659	7.782428751901
4	117294	27758.482942754539	7.380586574346
4	117303	27759.398304381584	5.643948475211
4	117322	27760.690932834617	3.282624590541
4	117327	27761.122340057759	2.222572199309
4	117340	27764.253990571447	3.730085588445
4	117364	27770.080517552362	7.426814942308
4	117386	27776.312105419733	11.086965123364
4	117406	27779.105279928164	13.307590938691
4	117426	27784.3282760148	5.782446409048
4	117442	27787.605796044737	0.079171611171
4	117452	27790.481441896008	2.695334063174
4	117465	27794.005997661386	4.18380749486
4	117497	27803.056612808064	12.299200767719
4	117530	27809.539062553142	16.460588814565
4	117542	27813.360654285934	17.444772236478
4	117559	27816.4742188189	17.172105527462
4	117564	27816.833829416423	17.411777014949
4	117571	27818.097993693414	8.147780944105
4	117601	27823.712728259491	0.141994641911
4	117611	27824.276818870968	0.393784071971
4	117655	27839.086459766998	1.434391874581
4	117677	27857.187468210802	1.575356291381
4	117688	27861.028073192245	4.312830697866
4	117714	27868.397628195089	1.712073007775
4	117721	27868.44123796481	0.041422198135
4	117736	27874.626297579402	3.826011381216
4	117743	27877.417208441081	0.042050869153
4	117774	27886.290275231617	2.328402622864
4	117779	27887.160947717232	2.448267448484
4	117783	27889.251412030188	4.191258013494
4	117806	27894.190740821977	1.283989393862
4	117819	27899.101304966631	5.467716896823
4	117834	27900.47040290752	1.34726519338
4	117845	27904.653582527686	5.363777575483
4	117863	27909.10973578565	7.878062974991
4	117884	27914.272328087671	2.867155790343
4	117900	27916.556807415855	4.821234470995
4	117929	27925.725176953538	11.877540608756
4	117938	27929.887909965151	14.895450757464
4	117957	27932.032699001292	15.844418553603
4	117964	27933.926776043255	14.304870446273
4	117979	27936.622123570063	12.777179418409
4	117989	27940.326801067977	5.279316643958
4	118043	27949.690922018042	0.155646275468
4	118051	27951.11660719918	0.931220381544
4	118093	27956.907991996164	0.970358445528
4	118101	27957.422631268753	0.583383152492
4	118117	27960.6034752075	0.67436278873
4	118170	27976.854276909772	1.884698263784
4	118192	27986.181365682662	1.249028763861
4	118208	27994.146211109256	0.902099048335
4	118253	28002.09808709104	3.417475244253
4	118257	28003.028146569777	1.065667691581
4	118264	28005.310441040795	2.031741348742
4	118271	28007.130305736755	0.55420135609
4	118287	28010.212736227094	1.481054320042
4	118387	28044.018882619618	15.864733856858
4	118399	28046.002356776513	15.106532741145
4	118404	28046.759578530822	15.768569267289
4	118410	28047.201584702822	12.440621967663
4	118417	28048.108887058954	4.140417183182
4	118428	28050.578828170548	6.058522822124
4	118464	28055.70677108289	1.834382934223
4	118536	28073.79702803879	12.781371419185
4	118544	28076.817733378875	13.767235190507
4	118553	28078.862666571351	12.312249239082
4	118558	28082.900582269246	14.031517434156
4	118563	28082.959987306329	12.899623580678
4	118570	28083.699295500125	5.185996648788
4	118577	28085.797964988972	2.348302636891
4	118581	28086.150452162175	1.016708642423
4	118599	28096.087224675185	6.626595084574
4	118655	28104.906811072963	12.482028547752
4	118666	28106.984466540531	6.283595506743
4	118672	28108.718544828007	7.639130770816
4	118692	28115.221603414199	4.963964431914
4	118696	28116.409541315275	5.317231088197
4	118721	28125.790306847707	0.694962774382
4	118755	28138.089129599857	8.72806737937
4	118760	28139.675305974819	7.953164945266
4	118782	28144.611807425803	0.329439167864
4	118847	28161.120090056677	0.722312849441
4	118883	28170.495499169323	1.695700654218
4	118936	28182.166246660626	4.794449224759
4	118952	28184.303348514459	4.039029057425
4	118960	28184.802839241742	2.261570479346
4	118966	28186.448438960598	3.44131519833
4	118977	28189.73419458371	5.217416309827
4	119019	28196.83571174757	10.374795517842
4	119038	28199.037370066098	4.406887701583
4	119047	28201.762717487107	4.911299716929
4	119054	28206.081673418521	0.033830910182
4	119061	28206.456052680449	0.347591629446
4	119093	28212.438446387333	0.502701141471
4	119102	28213.388733396666	1.13132000054
4	119106	28213.839461027547	0.600145430094
4	119131	28228.340176390408	0.408265662542
4	119138	28229.10201304258	0.187465084011
4	119154	28236.106376540895	0.858123873312
4	119173	28244.37818303922	2.717007082567
4	119188	28247.653529254689	2.306974069551
4	119192	28248.32226232322	2.15006576645
4	119204	28251.485475764403	2.784663122421
4	119211	28252.888894483741	2.162799896769
4	119224	28259.014423188361	7.938052224781
4	119276	28275.338959102511	4.321273669199
4	119317	28279.686122529202	8.376917771047
4	119326	28283.240834890443	10.316926815321
4	119341	28284.765490585547	9.666821017272
4	119346	28285.138355020477	9.965844368986
4	119353	28285.499686566064	8.647327471383
4	119360	28287.211967610133	10.043129972206
4	119398	28293.295356864112	11.225736015352
4	119403	28295.294614651111	9.818670196125
4	119408	28297.185149979277	9.133896064148
4	119415	28298.285610534311	9.644238219893
4	119463	28316.141542804602	2.28744896407
4	119498	28323.280604642565	1.227424080484
4	119503	28324.065747753827	1.483871906879
4	119553	28342.992412574675	0.313785471719
4	119621	28365.150750431264	7.734425780017
4	119652	28369.854377955761	11.602262689738
4	119665	28373.302830608271	12.003564501978
4	119681	28377.397860608998	6.410988106337
4	119723	28384.159030040959	12.121886954027
4	119728	28384.375874198848	10.954909102605
4	119733	28384.669429248003	4.955566850818
4	119741	28385.335347133329	5.579081790233
4	119752	28388.440434971636	5.285469407431
4	119793	28399.62394948056	6.166550649267
4	119841	28406.946015077747	1.705298965046
4	119856	28409.925491732221	3.756672990268
4	119919	28428.552187216639	21.051400872389
4	119930	28431.529919401713	23.652341207982
4	119973	28440.013208287869	24.184497098584
4	119983	28442.563192438497	24.197878707584
4	119989	28442.702067464008	5.440925806396
4	119996	28444.146786086976	2.190396572547
4	120007	28445.579642815806	3.547160670366
4	120021	28446.386454867217	3.326929468784
4	120056	28454.212499580489	1.518003552861
4	120063	28455.918914280779	3.055787394403
4	120082	28458.963137020919	2.637959606754
4	120086	28459.489181093089	2.380201167426
4	120098	28468.849202459682	4.553671108327
4	120110	28471.143690006588	4.425538197793
4	120124	28473.140214835967	1.794575716697
4	120137	28474.462937098315	3.091416573263
4	120182	28482.728286470144	5.146445490369
4	120188	28485.427594277242	7.513894755817
4	120195	28485.645963353125	0.190880208857
4	120228	28499.033734060419	8.238792895118
4	120239	28500.34729099082	4.870388957022
4	120247	28501.276550010065	5.132265973252
4	120270	28504.859069455162	7.18974585288
4	120327	28518.030821926916	1.52836441807
4	120355	28522.1391406591	5.509749866614
4	120365	28525.020914505053	7.228201191967
4	120376	28525.77812663355	7.763595720204
4	120385	28527.524298246537	6.511577718061
4	120401	28530.588179875179	9.309764787638
4	120409	28532.481428871369	5.115280163046
4	120421	28534.620698148428	6.973126978778
4	120433	28535.38095850129	0.024155151364
4	120441	28537.925692418425	1.509317191355
4	120456	28549.82666470137	9.168330581009
4	120472	28551.394030564323	2.5412844489
4	120492	28557.560765320293	3.977750665731
4	120517	28562.646472394683	4.663468936951
4	120526	28565.711746891826	0.920281173119
4	120539	28575.209833840943	2.912336700775
4	120567	28579.020928096376	5.500705878398
4	120574	28580.070609845433	4.82941180809
4	120581	28587.840676551673	0.096340540971
4	120591	28591.072571666994	2.972330738317
4	120595	28595.420488424081	6.786326942249
4	120629	28609.764670043011	1.228916998205
4	120660	28614.70316472034	1.834123353502
4	120671	28617.346868302045	2.21556624265
4	120689	28622.472893778191	3.228633604383
4	120715	28634.189920793731	5.48162808928
4	120740	28636.459996859468	2.024884611998
4	120778	28646.141345319842	2.675468498321
4	120789	28649.240717093125	3.448138637385
4	120806	28650.817799845228	3.282363967955
4	120841	28657.750603704717	2.478919932432
4	120846	28658.989974318943	1.485039903015
4	120861	28662.513918830788	0.755197631133
4	120869	28664.499670030935	0.285087245412
4	120901	28668.273137508387	1.862407737331
4	120908	28668.665724046453	1.935387857677
4	120987	28683.954339786653	2.559063537383
4	120997	28686.356058806263	3.625478763527
4	121002	28686.959806472442	3.468139711647
4	121009	28689.590540033311	4.752506823497
4	121018	28690.617792482771	5.521555055299
4	121040	28695.471354309764	2.72680659062
4	121080	28706.432766854013	4.077293807282
4	121108	28713.606135411297	0.384115802186
4	121150	28729.388805917757	5.865302234856
4	121157	28731.085355308363	1.23279127147
4	121253	28754.924846022806	12.886120852689
4	121301	28762.974305177055	1.047604726166
4	121324	28766.843962616623	2.518749054607
4	121329	28767.34164441415	1.87295922145
4	121333	28767.912508814703	1.633449902473
4	121372	28779.351982880767	4.831449856244
4	121403	28787.713539083248	11.995849833715
4	121433	28793.39335810236	0.777914405668
4	121445	28799.291558630173	1.061693386696
4	121457	28802.719550433164	1.411162216272
4	121487	28814.046943913917	2.231832865592
4	121497	28817.31685097116	4.658941931585
4	121516	28822.222976913016	2.274189615407
4	121524	28822.527705589657	0.13527937049
4	121558	28841.163103595941	10.418281222598
4	121603	28849.865992330673	12.940719386032
4	121663	28858.029476293524	11.391164710441
4	121667	28858.781853354285	8.169475957046
4	121707	28870.530534995487	3.111827625093
4	121712	28870.65766556171	2.225681893222
4	121717	28871.629024716023	3.169275905187
4	121733	28875.76617882291	0.190470201393
4	121740	28879.192684148272	2.760458320806
4	121771	28887.922676619032	1.020181657167
4	121826	28908.787651792111	2.792455995126
4	121839	28911.600118947193	0.422763887324
4	121855	28915.166796793693	0.920015920443
4	121883	28925.235036122387	2.041588959983
4	121899	28927.856360585144	2.337816457836
4	121942	28938.78778256621	3.160917946318
4	121947	28939.683727164373	3.579093989446
4	121955	28940.739606334451	4.191500022075
4	121967	28942.446149881963	4.894173439739
4	121997	28948.939626134502	1.66850277225
4	122019	28955.33753007036	1.508892506695
4	122036	28956.779180533206	2.575426721629
4	122047	28959.357715557603	2.067672524356
4	122056	28963.947015615322	5.084679728659
4	122119	28980.825295107389	0.450332704833
4	122127	28981.531085883259	0.043411269881
4	122175	28995.695555935883	0.447103693067
4	122191	29004.162512861149	4.471853805559
4	122198	29005.382955144455	1.196344249573
4	122272	29020.639984667188	5.034428203604
4	122300	29031.018925840826	9.692657165325
4	122315	29033.045131580295	8.85982305412
4	122353	29041.991098038682	14.219578929381
4	122358	29042.822979836727	1.700296881657
4	122381	29047.878948461252	2.784501180518
4	122421	29066.444655989598	3.264859190367
4	122430	29066.73373263081	2.235297662833
4	122455	29076.557842538758	2.659518873781
4	122496	29091.036241654406	0.516904579906
4	122523	29095.421620259322	2.460959593957
4	122543	29102.485163603052	2.019044822949
4	122557	29108.802230130944	1.833484153914
4	122584	29111.975351810803	2.117618137245
4	122588	29112.27246929157	0.37724689816
4	122596	29112.892553716908	0.244066644531
4	122620	29119.742554580678	0.565373384234
4	122627	29120.435007166811	0.411623213361
4	122637	29125.502246084245	3.565538459188
4	122650	29133.992958707243	3.576947912521
4	122657	29136.12916149099	1.549990937322
4	122672	29143.680994788474	6.331855157045
4	122778	29162.894920641854	8.852138523585
4	122790	29165.137648117938	6.913044949657
4	122795	29166.447901441262	7.002497218673
4	122799	29166.51630759429	3.887158555929
4	122839	29172.29135952366	1.072090718478
4	122870	29179.320270474614	0.217147820487
4	122885	29186.303379599278	1.089111262742
4	122905	29191.062913624331	0.162813488308
4	122930	29198.957573977161	1.575230581764
4	122953	29208.217676919506	2.84530409354
4	122968	29216.597953455021	3.822836008115
4	123089	29239.336994704174	11.615986747087
4	123165	29259.070039232564	27.705114577333
4	123186	29261.912737863465	29.490004895684
4	123246	29274.79103215348	37.697236578223
4	123289	29281.539991143102	24.862282609465
4	123298	29282.08552121213	23.436698159888
4	123311	29284.172393949928	25.189170901451
4	123320	29285.752689689883	22.387682828417
4	123342	29289.585230072331	24.374431730746
4	123367	29294.49316916404	21.090511727518
4	123389	29300.710908870998	21.085441622648
4	123398	29304.152796081548	22.540958295174
4	123500	29322.95472865572	36.849951635979
4	123521	29325.884529650305	36.987347079642
4	123537	29329.187403519983	28.468709447482
4	123542	29330.099908684707	22.340859269633
4	123553	29334.184005828751	23.610873535077
4	123570	29340.572812370094	27.722974379806
4	123587	29344.811289364253	25.048424435178
4	123607	29345.827600659043	25.905669099878
4	123641	29356.593664472383	34.357167940213
4	123714	29366.283335405206	40.509318675889
4	123719	29366.489782415963	39.176138752885
4	123725	29368.621565291965	35.691258930663
4	123734	29368.836709178232	35.528957604604
4	123739	29371.076200296197	35.989735521479
4	123748	29372.207127608144	31.860429424266
4	123753	29373.256413692831	31.565213140326
4	123760	29375.382450782797	29.745304909971
4	123772	29378.162281296253	32.443004538584
4	123797	29385.366210652384	34.719462961432
4	123803	29386.450861997438	34.463278681317
4	123813	29390.154267731538	34.085716997076
4	123832	29393.0225810869	36.908196905584
4	123846	29397.049800465889	28.286477982086
4	123857	29399.494367019088	30.724868228147
4	123862	29400.158544087605	28.874168853191
4	123873	29406.702842126962	34.614772184869
4	123890	29411.310592379509	33.085289563425
4	123919	29417.295677938878	34.541793772705
4	123931	29417.897254616091	16.047176757418
4	123938	29419.487277928226	16.99191058497
4	123944	29419.538168316679	8.808575949204
4	123948	29423.24056851241	6.534804698807
4	123975	29433.853166924518	3.109777749561
4	123984	29436.410021672533	3.299668791902
4	123993	29440.893518841038	6.662109025992
4	124008	29443.605859518483	7.99987493535
4	124026	29451.801948588173	1.170224440073
4	124040	29455.013705164262	1.278744702948
4	124096	29467.744057791717	9.676412470086
4	124116	29469.715439318781	3.279446723721
4	124143	29473.949368108211	0.673647732809
4	124164	29478.307904934937	1.516712860004
4	124214	29489.660946966503	2.049615137855
4	124218	29489.779389072666	2.045835632255
4	124229	29495.236232000885	1.048847866542
4	124245	29501.45534775989	4.337127218326
4	124273	29509.895412787699	12.267727577984
4	124399	29535.811469308576	37.136605663385
4	124411	29539.532033838237	35.923962835501
4	124513	29558.907197074928	52.384814316274
4	124520	29560.429030135956	46.676319285786
4	124526	29561.627095341593	43.574856281057
4	124531	29562.524225593873	31.717938059312
4	124536	29562.635221740763	29.917218960847
4	124541	29567.053089932569	32.226943616615
4	124546	29568.287187990406	33.451742022412
4	124551	29569.762154915737	32.096196745234
4	124558	29573.610696288332	34.261356193664
4	124565	29575.50556153835	28.775221136545
4	124572	29576.074506219812	25.966637359814
4	124587	29582.031554482459	25.629111157368
4	124599	29583.659226473553	11.284072659173
4	124613	29587.318477437899	13.624376622484
4	124707	29601.392292971528	24.780768913579
4	124712	29602.030984240125	14.016370322383
4	124717	29602.385400663959	9.614853840957
4	124724	29603.154635306191	8.772179783283
4	124731	29605.924094530906	9.80841798529
4	124735	29606.67806764055	5.584876419955
4	124771	29615.645490793953	4.267779527868
4	124780	29617.406636023417	5.901000218793
4	124802	29619.68208581082	3.123926584586
4	124807	29620.450051669953	2.734006929391
4	124831	29630.930105700072	0.007779003791
4	124909	29647.869377498132	15.687819966729
4	124963	29657.546793833624	17.284105229273
4	124973	29659.067821255939	17.327971295076
4	124988	29662.145221698179	20.023939708414
4	125001	29665.096535022793	19.354840479572
4	125011	29665.562716527511	8.630903524599
4	125018	29666.163715965825	8.283368660557
4	125046	29669.573483219248	3.200333517129
4	125051	29669.754576072677	2.209153913618
4	125061	29674.334750137529	6.044955706147
4	125096	29682.170706644991	12.756253491079
4	125137	29689.462166501733	9.609251740309
4	125147	29690.167235661339	8.850510220289
4	125159	29692.548595728071	5.096528388039
4	125200	29696.7739694745	0.380703043232
4	125207	29701.002854282776	0.844644385088
4	125214	29701.698047567869	0.437193081067
4	125221	29702.85981564986	0.642185092554
4	125231	29704.775991141855	0.82895717619
4	125247	29709.067433245588	4.741079062462
4	125313	29718.767786231054	3.699842900831
4	125348	29731.338087421254	3.807366021957
4	125389	29739.651896950769	0.29183207188
4	125419	29744.609608447603	0.078003985851
4	125426	29747.693070884747	1.577625557672
4	125447	29752.515222763177	3.600251320815
4	125461	29756.503142589697	7.431615330905
4	125466	29756.547845970674	6.921357467584
4	125471	29756.870503722406	4.522292619729
4	125475	29757.002632042354	3.297362596207
4	125487	29760.251122662235	2.827944216546
4	125511	29765.083307985429	3.85101084548
4	125523	29766.58709373805	4.002426917229
4	125528	29767.33901801172	1.148328310481
4	125538	29769.424659119608	1.308845362574
4	125549	29770.97827418856	1.20143611985
4	125587	29781.434659791724	2.740153556879
4	125592	29783.604077013577	4.135974450155
4	125601	29786.513724629245	6.999176399444
4	125614	29788.115876579332	1.644009637714
4	125624	29789.909061949039	3.073444314606
4	125685	29798.416014661928	6.057662962484
4	125692	29800.48948221141	6.276123750521
4	125699	29801.583199357147	0.635265561173
4	125775	29815.61903685246	6.973273007641
4	125780	29816.203106606183	2.693182557043
4	125833	29824.563135822178	0.888081811628
4	125869	29835.119614616508	1.290891102419
4	125890	29840.813095717023	4.483494146313
4	125917	29845.424765583712	0.209344189249
4	125933	29849.30934865993	0.411988129497
4	125945	29854.907837126028	4.851395348734
4	125965	29860.373451911802	2.626460627039
4	125998	29870.611535715256	8.01679958384
4	126110	29889.111972914389	25.510674847434
4	126117	29889.987290876013	24.249846702181
4	126130	29892.385722110324	22.113533472415
4	126135	29892.722964956013	21.80170765613
4	126140	29892.911488222141	3.884680383765
4	126148	29894.921508875814	5.862911035709
4	126194	29906.396768771702	3.484348750487
4	126203	29908.032930841773	1.66562581612
4	126225	29912.516729530195	5.513258243698
4	126240	29919.759055641163	10.594995661637
4	126267	29923.502571937616	8.560980303057
4	126290	29929.276593227789	13.575481742589
4	126300	29931.131484854164	15.050626230396
4	126327	29939.521682696339	18.15119107015
4	126340	29940.851987165973	13.732324349746
4	126346	29943.036650385484	15.397595151396
4	126353	29944.316203314166	15.844944983131
4	126370	29946.202867548002	16.369235324277
4	126387	29947.952733599729	15.75809016596
4	126395	29950.378187041104	11.748025654643
4	126417	29953.588466344108	8.90512548724
4	126430	29961.004333253685	9.760890547721
4	126466	29967.689301731022	9.733975850526
4	126481	29971.641711122717	1.269538234126
4	126509	29981.144614505797	4.347098339301
4	126521	29983.286616935436	0.940483577715
4	126528	29984.123080494976	0.119935762744
4	126540	29984.801422437654	0.626849330603
4	126576	29996.622916588661	8.156055962253
4	126599	29999.680223841386	1.177658807626

