version 2
run Second-n3-7-20191016-14:52:58-2904
attr configname Second-n3
attr datetime 20191016-14:52:58
attr experiment Second-n3
attr inifile omnetpp.ini
attr iterationvars ""
attr iterationvarsf ""
attr measurement ""
attr network org.omnetpp.queueing.Pizza
attr processid 2904
attr repetition 7
attr replication ""
attr resultdir results
attr runnumber 7
attr seedset 7
param **.PS.maxInventoriedPS 3
param **.U1.interArrivalTime exponential(3s)
param **.U2.interArrivalTime exponential(5s)
param **.PS.serviceTimeForInventoryU1 exponential(1.0s)
param **.PS.serviceTimeForInventoryU2 exponential(1.2s)
param **.PS.serviceTimeDirectU1 exponential(1.4s)
param **.PS.serviceTimeDirectU2 exponential(1.4s)
param **.PS.probabilityProducing 0.7
param **.CS.serviceTimeU1 exponential(1.1s)
param **.CS.serviceTimeU2 exponential(1.4s)

vector 0 Pizza.EntryQueueU1 queueLength:vector ETV
attr interpolationmode sample-hold
attr title "queue length, vector"
vector 1 Pizza.CS queueLength:vector ETV
attr interpolationmode sample-hold
attr title "queue length, vector"
vector 2 Pizza.EntryQueueU2 queueLength:vector ETV
attr interpolationmode sample-hold
attr title "queue length, vector"
vector 3 Pizza.sink lifeTime:vector ETV
attr interpolationmode none
attr title "lifetime of arrived jobs, vector"
attr unit s
vector 4 Pizza.sink lifeTimeU2:vector ETV
attr interpolationmode none
attr title "lifetime of arrived jobs, vector"
attr unit s
0	0	0	0
0	14	4.779406805032	1
0	18	7.09919964411	2
0	25	8.293738667358	1
0	30	8.735642724385	0
0	39	9.185371518969	1
0	41	10.205017169046	2
0	44	10.71731878631	1
0	52	13.552145425386	2
0	54	13.627788794119	3
0	56	14.25607095439	2
0	61	14.544004970507	1
0	70	17.449857264656	0
0	76	17.795838593344	1
0	80	18.440455724807	2
0	81	18.666101870032	1
0	89	20.464998013627	2
0	91	21.436023181772	3
0	92	21.989219658012	2
0	98	25.474056702641	1
0	103	25.643441004415	0
0	119	26.894981724712	1
0	122	28.214795876663	0
0	145	34.509658811638	1
0	148	35.312917520559	0
0	162	38.009890808985	1
0	164	39.393743662576	0
0	170	40.239081990652	1
0	173	42.255722642964	2
0	174	42.816453683999	1
0	180	43.222796192796	0
0	195	51.492504267835	1
0	196	52.848896489422	0
0	204	54.722176042406	1
0	205	54.874935616941	0
0	238	61.699724717446	1
0	239	62.144759122662	0
0	270	68.874108476979	1
0	273	70.35617239217	0
0	279	70.811551307924	1
0	280	70.915344590875	0
0	307	74.601045340538	1
0	310	74.728430980443	2
0	313	75.128688178886	1
0	319	75.728375274321	0
0	339	79.016225992139	1
0	340	79.052423771455	0
0	372	86.19773624043	1
0	373	86.940957252937	0
0	434	104.446510398439	1
0	438	106.634575382478	2
0	440	107.825355269287	3
0	446	111.404413378164	4
0	447	112.235570234276	3
0	455	112.678326082165	2
0	460	112.722059195571	1
0	466	113.913848066789	2
0	468	114.743492576684	3
0	469	116.834574844678	2
0	478	117.148718608103	3
0	481	118.787878488646	2
0	489	118.989528616996	3
0	491	120.28465503521	4
0	492	120.40610422645	3
0	498	123.106519063182	4
0	500	123.179099071329	5
0	501	123.378694638123	4
0	507	124.691791709334	3
0	512	125.992939047848	2
0	517	126.466607320806	1
0	522	127.062482578294	0
0	545	129.102144835174	1
0	549	130.043822914362	0
0	556	131.658067243835	1
0	561	133.546477845278	0
0	575	139.187234795501	1
0	576	140.055802570727	0
0	603	144.342619997917	1
0	605	145.359882714356	2
0	606	145.571107522863	1
0	611	146.940568166112	0
0	620	147.151782404437	1
0	625	147.62775040905	2
0	628	148.541708052823	3
0	630	148.66301355584	4
0	634	149.144557791965	5
0	636	151.52114416538	4
0	641	151.746027439648	3
0	646	152.150464776664	2
0	652	152.180505096168	3
0	653	152.303235435205	2
0	660	154.899891047582	3
0	663	156.382263766448	2
0	669	157.917071498768	1
0	677	158.152650393983	2
0	679	158.983955555441	3
0	680	159.009412483203	2
0	685	160.651835990155	1
0	691	161.054241679091	2
0	695	162.140691794276	3
0	697	162.583504465143	2
0	702	162.912625370052	1
0	710	164.300665046766	2
0	711	164.977002889369	1
0	716	165.120240675802	0
0	720	165.941338273608	1
0	724	166.233023259289	2
0	729	167.995054462399	1
0	733	169.239823123877	2
0	737	170.631674879565	1
0	748	172.017460328009	0
0	771	175.867604298887	1
0	773	176.236528681202	2
0	778	176.760625889443	1
0	784	177.270393560112	0
0	828	186.802355575946	1
0	829	186.828131172147	0
0	835	186.934743997438	1
0	838	188.217688412963	0
0	844	188.265299041454	1
0	847	189.03358502047	0
0	870	194.671750476769	1
0	871	195.513762159389	0
0	893	198.991748286475	1
0	894	199.643346240473	0
0	919	204.750677052096	1
0	922	207.620241168618	0
0	934	208.323142845912	1
0	935	209.306848489137	0
0	955	210.196883008744	1
0	960	212.13926730581	2
0	961	212.245392742579	1
0	966	212.663245608332	0
0	975	214.40722576443	1
0	979	215.023524701918	2
0	980	217.048177544498	1
0	990	218.977728577513	0
0	996	219.164079845623	1
0	998	219.632835067286	0
0	1022	228.32107634163	1
0	1024	229.321228874735	2
0	1025	231.039085638648	1
0	1030	231.070631099974	0
0	1039	231.464672619581	1
0	1042	233.819410558409	0
0	1048	234.294245863463	1
0	1050	235.10904504154	2
0	1054	236.754496463132	3
0	1060	237.214123221214	2
0	1066	237.280507236631	3
0	1067	237.867156096237	2
0	1073	238.229534107143	1
0	1079	239.082296745192	0
0	1100	247.324586999313	1
0	1102	247.581947340557	2
0	1107	251.204263803533	1
0	1112	251.918064527356	0
0	1124	255.511901380311	1
0	1128	258.129487736706	2
0	1129	258.916962063664	1
0	1135	259.409066357911	0
0	1159	266.593689104365	1
0	1160	266.652410816862	0
0	1183	270.606695489168	1
0	1184	270.813384622003	0
0	1215	286.231378579411	1
0	1221	289.438871259766	2
0	1223	290.956249744419	3
0	1226	294.64280561616	2
0	1232	298.585602082093	3
0	1233	299.441678320736	2
0	1238	302.252629102518	1
0	1243	302.39012051928	0
0	1264	307.220729723385	1
0	1269	310.07645573151	0
0	1277	311.409342479017	1
0	1280	311.853234088017	2
0	1281	311.97717462567	1
0	1287	312.072286008924	2
0	1288	312.245897060602	1
0	1295	312.524348154574	0
0	1313	314.145404681496	1
0	1314	314.655315308874	0
0	1320	316.412998495509	1
0	1326	317.282501131324	2
0	1332	319.221446671116	1
0	1338	320.043258105333	0
0	1370	323.221109768492	1
0	1373	324.632617984047	0
0	1379	324.714043551858	1
0	1384	325.850415526957	2
0	1385	326.396215579272	1
0	1393	329.447835413453	2
0	1394	329.501234609214	1
0	1399	329.618621832232	0
0	1425	333.963291701376	1
0	1428	336.020569867381	0
0	1443	339.356219887695	1
0	1445	340.155786545346	0
0	1486	356.774620351828	1
0	1487	356.860911380979	0
0	1493	358.098494263131	1
0	1494	358.700807805999	0
0	1551	380.518631925719	1
0	1555	382.73376979564	2
0	1557	383.514768093863	3
0	1558	384.645112520837	2
0	1564	385.150575281693	1
0	1569	385.507462732152	0
0	1585	388.737376788763	1
0	1589	390.532649447369	2
0	1590	390.749211286891	1
0	1600	393.362324810394	0
0	1660	405.62899855928	1
0	1664	406.611658897021	2
0	1666	406.936901980715	1
0	1671	407.122415712206	0
0	1700	415.960390291803	1
0	1702	416.805542574394	2
0	1703	417.819733778052	1
0	1709	417.834106341507	2
0	1711	419.012429426676	3
0	1712	419.141153415699	2
0	1719	420.874098002233	1
0	1724	420.912606191084	0
0	1742	424.840519484787	1
0	1743	425.187649074754	0
0	1813	446.227460505106	1
0	1815	447.212187707801	2
0	1816	447.336308470903	1
0	1821	447.506568763436	0
0	1841	451.49631318842	1
0	1842	451.856036945335	0
0	1851	452.439134557809	1
0	1854	452.90027728914	2
0	1858	454.146376274889	1
0	1867	456.055455275629	2
0	1872	458.698568180302	1
0	1878	460.180294838175	0
0	1903	464.142317928012	1
0	1910	466.473800941035	0
0	1961	478.778720867585	1
0	1963	479.149804680882	2
0	1964	479.496210391509	1
0	1969	480.090444418122	0
0	1993	484.482751031807	1
0	1994	486.410317646074	0
0	2030	502.97330026388	1
0	2037	507.104802423937	0
0	2046	507.58763624803	1
0	2048	510.642044557784	2
0	2052	511.473206731678	1
0	2058	511.647014831342	2
0	2060	512.14949427412	3
0	2062	513.072318757827	4
0	2064	514.329966189007	3
0	2069	514.369779674718	2
0	2074	514.539098453298	1
0	2079	514.835124809486	0
0	2085	515.476651544049	1
0	2087	516.088594402987	0
0	2105	518.782441096939	1
0	2107	519.605487508154	2
0	2110	520.15394196151	1
0	2116	520.222938583059	2
0	2117	520.229517353999	1
0	2122	520.877693585834	0
0	2132	522.503843594325	1
0	2136	524.047010374756	0
0	2160	528.167755560244	1
0	2161	528.452800927557	0
0	2178	533.106069342994	1
0	2179	533.322598840109	0
0	2211	541.056464954462	1
0	2212	541.790114169192	0
0	2255	552.598911737935	1
0	2257	555.184162725625	0
0	2310	566.773409115989	1
0	2313	569.455635095471	0
0	2319	569.67467887862	1
0	2322	569.877277411826	0
0	2347	577.795586444261	1
0	2349	578.563450330845	2
0	2351	578.568578335899	3
0	2352	580.330521802856	2
0	2361	580.711890872506	3
0	2363	581.12236587355	4
0	2364	581.921006159826	3
0	2370	582.242420815761	4
0	2374	583.351453795278	5
0	2375	583.38914003991	4
0	2383	583.724817764829	5
0	2384	583.855425661258	4
0	2390	585.261156120052	5
0	2394	587.878150671194	4
0	2403	590.331796400048	3
0	2407	590.760955835148	4
0	2410	592.442664795079	3
0	2418	595.072917915682	4
0	2420	595.835384040556	3
0	2425	596.217942627747	2
0	2430	597.835157589699	1
0	2437	600.736058798038	0
0	2443	601.797840594019	1
0	2446	602.865235900501	2
0	2450	605.277619892394	1
0	2455	606.028292868859	0
0	2493	611.228797857876	1
0	2494	612.175570107231	0
0	2501	613.072441082106	1
0	2502	613.279914228331	0
0	2516	616.228847727535	1
0	2517	617.304435386345	0
0	2526	617.939775627002	1
0	2528	619.070364553759	2
0	2530	620.012047177628	3
0	2535	623.503215405003	2
0	2541	624.402815548723	3
0	2543	627.537357129367	2
0	2551	628.027326191243	3
0	2555	630.242455949487	2
0	2560	630.645211204933	1
0	2566	630.984889761752	2
0	2567	631.054589105699	1
0	2572	633.639043403975	0
0	2583	634.759544248814	1
0	2584	634.877612087259	0
0	2588	636.885494993239	1
0	2590	638.352215814242	2
0	2594	639.799412393361	1
0	2599	639.97358143644	0
0	2603	640.227364293446	1
0	2605	641.123074411724	2
0	2608	641.25321013913	1
0	2613	642.786355049349	0
0	2619	646.423670473179	1
0	2623	648.273592764442	0
0	2635	649.395804484031	1
0	2640	651.223369317847	0
0	2662	654.672690253142	1
0	2663	654.922733569498	0
0	2670	657.367570925103	1
0	2671	657.397155533202	0
0	2693	661.13224812905	1
0	2698	662.920721148512	2
0	2699	664.170340029758	1
0	2704	664.517100269777	0
0	2710	665.033689958527	1
0	2711	665.636745727614	0
0	2736	669.791342023004	1
0	2737	671.527673301621	0
0	2752	673.404396901542	1
0	2755	674.384622356548	0
0	2768	680.967755931231	1
0	2772	681.52086492556	2
0	2774	681.991957708074	1
0	2780	682.101562365666	2
0	2781	682.501565561177	1
0	2787	682.775306177807	2
0	2791	683.388689430297	1
0	2799	684.576879836577	0
0	2830	692.179841723327	1
0	2833	693.144443877133	0
0	2896	708.617994720053	1
0	2898	708.789860788909	2
0	2903	712.511255831486	1
0	2913	712.862140985166	2
0	2914	712.922691128426	1
0	2921	714.285762753934	0
0	2942	719.381917271953	1
0	2945	720.697403654087	0
0	2956	721.478634008443	1
0	2958	722.015856521607	2
0	2960	722.422115978148	3
0	2962	723.128073023938	2
0	2967	723.20035656262	1
0	2978	725.604486959067	0
0	3003	728.934233249801	1
0	3007	731.709929954276	2
0	3013	733.466406463548	1
0	3018	733.657115207915	0
0	3064	743.695215791164	1
0	3068	744.172635223179	2
0	3070	746.41924226951	3
0	3072	747.498393169747	4
0	3074	747.821930475488	5
0	3075	749.760891541774	4
0	3081	749.899583886963	5
0	3082	750.379612344427	4
0	3089	750.980995430478	5
0	3091	751.192463620191	6
0	3094	752.483641958074	7
0	3095	753.432282754997	6
0	3100	753.942061624908	5
0	3112	756.636930797247	6
0	3114	757.385255357448	7
0	3115	757.599717597372	6
0	3120	757.855804586184	5
0	3125	758.398593435886	4
0	3134	761.402815616694	3
0	3140	762.593117334256	2
0	3146	763.90225633345	1
0	3151	764.496101379943	0
0	3178	768.128055481815	1
0	3181	768.583752040979	0
0	3195	771.204482566996	1
0	3196	771.21393688534	0
0	3239	783.220319387356	1
0	3240	783.516124092795	0
0	3253	784.682492855189	1
0	3256	785.095928508655	2
0	3259	786.959230636272	1
0	3264	787.095885893206	0
0	3275	789.549924858962	1
0	3277	789.568385374342	2
0	3280	790.673766869978	3
0	3282	791.422969996879	2
0	3289	792.796650936585	1
0	3295	793.75728068262	0
0	3301	794.88091522049	1
0	3302	794.983860988362	0
0	3327	798.09898344079	1
0	3328	799.66250336342	0
0	3337	800.206313098398	1
0	3338	800.366509723724	0
0	3358	805.656911709672	1
0	3359	805.905598335177	0
0	3376	812.896016123548	1
0	3377	813.410994055379	0
0	3391	820.891570028208	1
0	3392	822.753136323107	0
0	3408	825.598777570647	1
0	3410	826.01331605405	2
0	3411	826.277649499386	1
0	3417	827.198838951568	0
0	3423	827.639436067804	1
0	3426	828.731621511168	2
0	3427	829.011732903067	1
0	3432	829.804716572064	0
0	3447	831.264067927956	1
0	3449	831.741324498139	2
0	3455	831.968570827522	3
0	3457	833.929570873665	2
0	3465	834.860083029237	3
0	3466	835.954826324092	2
0	3473	837.562752897677	3
0	3476	838.487355903426	4
0	3477	838.581534768364	3
0	3483	838.694479145075	4
0	3485	839.717679834464	5
0	3486	840.594451478424	4
0	3495	841.113096438838	3
0	3501	841.382796342901	4
0	3502	841.523998187472	3
0	3517	843.621182067754	4
0	3518	843.686302520291	3
0	3525	844.901548192624	4
0	3527	845.291430156651	3
0	3532	845.719502525583	2
0	3543	850.472437662083	3
0	3544	851.153938191577	2
0	3549	851.238451690153	1
0	3554	851.277946559904	0
0	3566	852.095200469109	1
0	3570	853.622353518443	2
0	3571	853.638760408481	1
0	3576	854.354661118527	0
0	3584	856.868967125405	1
0	3585	857.065504649538	0
0	3610	863.013608065563	1
0	3611	864.348368407185	0
0	3627	867.482863550696	1
0	3629	868.102703554411	2
0	3631	868.176946913265	3
0	3632	869.132584485775	2
0	3637	869.201964535801	1
0	3642	870.234593115925	0
0	3671	874.578025070811	1
0	3673	875.468838665731	0
0	3687	876.365167198001	1
0	3692	877.810704990194	0
0	3704	880.568191184983	1
0	3713	883.006449915702	0
0	3720	884.255564287788	1
0	3722	884.94422830616	2
0	3723	885.714424743817	1
0	3729	887.944357530449	0
0	3740	888.908174234193	1
0	3742	889.254294000264	2
0	3744	889.526126435125	3
0	3746	890.837980366576	2
0	3753	891.605348671998	1
0	3760	893.291281676269	2
0	3761	893.369897827365	1
0	3766	893.563867849996	0
0	3802	905.00338054904	1
0	3803	905.003407435515	0
0	3809	905.038475680884	1
0	3812	905.435353735782	0
0	3818	905.754358746154	1
0	3819	905.867767867463	0
0	3847	913.036361369976	1
0	3848	913.798768444586	0
0	3861	916.48446671216	1
0	3862	918.640586065207	0
0	3910	937.303420864797	1
0	3912	937.754801352268	2
0	3915	939.628934841941	1
0	3921	939.712741997448	2
0	3923	939.962926368002	1
0	3930	940.430819800873	2
0	3932	940.966053690943	1
0	3939	941.29182217005	2
0	3940	941.324435674029	1
0	3948	941.486189269306	2
0	3949	942.051368915691	1
0	3954	942.406064917089	0
0	3966	943.764906601572	1
0	3967	944.82077191326	0
0	3971	945.299078518213	1
0	3973	945.826993593805	2
0	3975	946.133925650046	3
0	3980	946.896554586734	2
0	3987	949.360296390987	1
0	3996	952.901922239675	0
0	4002	953.416183282509	1
0	4003	953.573511285397	0
0	4014	955.134818427615	1
0	4016	955.388409839107	2
0	4021	956.868473679039	1
0	4026	957.3179369195	0
0	4032	957.607596076589	1
0	4033	957.866707386049	0
0	4067	967.054707112911	1
0	4071	969.211244734682	0
0	4078	969.44400782959	1
0	4079	971.675774487336	0
0	4108	975.671011054482	1
0	4110	975.785006113205	2
0	4111	975.828024234988	1
0	4117	976.468831293666	0
0	4141	985.942092542759	1
0	4144	988.454862861803	0
0	4165	992.503302289509	1
0	4166	993.603880524348	0
0	4178	998.478213030643	1
0	4182	1002.930545233619	2
0	4185	1004.650359944602	1
0	4192	1005.241824981305	0
0	4203	1007.397571645013	1
0	4205	1007.548246889073	2
0	4209	1009.117322818024	3
0	4213	1012.125792222649	4
0	4215	1012.529993493012	5
0	4217	1014.653408715035	6
0	4218	1014.893309561899	5
0	4224	1015.331917802972	4
0	4231	1015.797780889333	5
0	4232	1016.451181414861	4
0	4237	1016.780298855346	3
0	4242	1016.885783126609	2
0	4248	1017.233092439297	3
0	4250	1017.88505171656	4
0	4252	1018.262400265034	3
0	4257	1018.622763693746	2
0	4261	1019.572535024919	3
0	4266	1022.07526108447	2
0	4272	1022.355250041289	1
0	4278	1022.864001077735	0
0	4316	1033.479111044018	1
0	4322	1034.980066874452	0
0	4337	1043.18742366385	1
0	4340	1043.40896667934	0
0	4378	1049.507859681437	1
0	4382	1049.941899017469	0
0	4436	1063.448998535829	1
0	4439	1065.736620902926	2
0	4440	1066.547982799674	1
0	4445	1067.387251805555	0
0	4456	1068.1085933298	1
0	4459	1069.939600301396	0
0	4465	1070.477690425689	1
0	4468	1071.036738536604	2
0	4472	1072.331569927753	1
0	4481	1073.380034601435	0
0	4492	1075.66793839558	1
0	4496	1076.980432199553	2
0	4498	1077.177550518225	3
0	4499	1077.293202513885	2
0	4506	1078.608199026172	1
0	4513	1079.050318674564	2
0	4515	1079.265097459663	3
0	4516	1079.403797226926	2
0	4525	1082.481195157086	1
0	4530	1083.091309691472	0
0	4547	1084.024178277268	1
0	4549	1086.06339517061	0
0	4563	1090.772676629424	1
0	4564	1091.02497161535	0
0	4570	1092.338777525094	1
0	4571	1092.344311924156	0
0	4586	1094.973461262774	1
0	4587	1096.019620111305	0
0	4611	1102.289704543849	1
0	4613	1102.410317615867	2
0	4614	1102.738938851491	1
0	4618	1102.970526154939	2
0	4621	1104.126767127389	1
0	4627	1105.725909608438	2
0	4630	1105.79425899087	1
0	4634	1105.931793021794	2
0	4637	1107.237735548064	1
0	4649	1114.007990521849	2
0	4653	1115.696265297112	3
0	4656	1115.880094890505	2
0	4661	1115.899982355873	1
0	4666	1116.0760106758	0
0	4682	1118.611355073215	1
0	4685	1121.292149425034	0
0	4691	1121.770242820975	1
0	4692	1121.864246685996	0
0	4732	1127.921804510149	1
0	4734	1128.939110718665	2
0	4738	1129.288782561679	3
0	4742	1130.414210239355	2
0	4747	1130.460978458183	1
0	4752	1131.401869551787	0
0	4782	1137.625495126867	1
0	4789	1139.795203273228	2
0	4791	1141.900834886912	1
0	4797	1144.718778727514	0
0	4806	1145.410826803188	1
0	4809	1146.582218600143	0
0	4815	1146.85690801322	1
0	4817	1147.006549010692	2
0	4818	1147.102298601395	1
0	4823	1147.307257762165	0
0	4829	1147.472820780596	1
0	4831	1148.119240539763	2
0	4837	1149.321956639875	3
0	4838	1149.567964302526	2
0	4843	1150.000464074302	1
0	4851	1152.068218911461	0
0	4873	1158.019276273845	1
0	4874	1159.038375682502	0
0	4883	1161.699168465139	1
0	4886	1162.573352997822	0
0	4918	1170.383902270755	1
0	4919	1170.452867043155	0
0	4955	1180.726807759824	1
0	4956	1181.460764055318	0
0	4962	1181.725076790011	1
0	4964	1182.294233915743	2
0	4965	1184.493753341852	1
0	4970	1185.568882567253	0
0	4976	1186.671333660499	1
0	4980	1187.934269617955	0
0	5011	1198.802373555431	1
0	5012	1199.879045520208	0
0	5069	1215.701317978625	1
0	5070	1215.886154253326	0
0	5097	1221.391554722486	1
0	5098	1221.670069602243	0
0	5104	1222.151697260253	1
0	5110	1223.451295406674	2
0	5111	1224.126836507209	1
0	5118	1225.088899796941	2
0	5120	1225.606242804156	1
0	5126	1225.871636324746	0
0	5152	1227.580348448845	1
0	5153	1227.615119295964	0
0	5179	1232.870877070159	1
0	5180	1233.135198882062	0
0	5191	1233.415423576038	1
0	5196	1234.183967165668	2
0	5197	1235.640545083225	1
0	5203	1236.12443307812	0
0	5210	1237.575310659737	1
0	5211	1239.379522495524	0
0	5217	1239.519982906153	1
0	5219	1239.616963975501	2
0	5221	1240.48155543045	3
0	5222	1241.308597891884	2
0	5230	1243.864628082965	1
0	5235	1244.106058178162	0
0	5241	1244.223914051295	1
0	5243	1245.297255352997	0
0	5272	1252.720574416193	1
0	5273	1252.926690943337	0
0	5289	1255.146113507174	1
0	5290	1255.561174497324	0
0	5338	1265.749986121797	1
0	5339	1265.896431394633	0
0	5359	1270.502436980849	1
0	5360	1271.113564846229	0
0	5371	1274.402954661475	1
0	5373	1275.377193008671	2
0	5378	1280.784233736419	1
0	5383	1280.863059877119	0
0	5387	1281.153528829926	1
0	5394	1282.949721120043	0
0	5414	1289.634193559238	1
0	5415	1290.36047884108	0
0	5421	1290.601195174684	1
0	5423	1291.389225717744	0
0	5471	1302.049301503852	1
0	5472	1302.511698066985	0
0	5502	1309.31347028537	1
0	5505	1309.794732058595	2
0	5506	1310.07435512267	1
0	5512	1310.351374863801	0
0	5543	1317.842763099183	1
0	5544	1318.683649513597	0
0	5553	1320.871215609762	1
0	5555	1324.489049257423	0
0	5568	1327.840064059953	1
0	5569	1327.987371830838	0
0	5575	1327.994616028069	1
0	5576	1328.071167205416	0
0	5590	1329.166924960249	1
0	5591	1329.224765322908	0
0	5631	1339.450663815377	1
0	5633	1341.771596828484	2
0	5634	1344.311876924697	1
0	5639	1344.740750691162	0
0	5647	1346.516458532163	1
0	5649	1347.627140683279	2
0	5654	1348.36675657833	3
0	5656	1348.777969326643	4
0	5659	1350.569045301161	3
0	5665	1351.174867685765	4
0	5666	1351.470104958997	3
0	5675	1352.156329180661	2
0	5682	1354.749314086293	1
0	5693	1356.006827241031	2
0	5695	1356.525663801397	1
0	5700	1356.588681553896	0
0	5751	1364.494262466307	1
0	5752	1364.817047913864	0
0	5776	1369.235672346914	1
0	5782	1371.913520554357	0
0	5793	1372.091106093212	1
0	5798	1372.907509031651	2
0	5799	1373.233882162822	1
0	5806	1377.526162604139	0
0	5816	1377.995386693166	1
0	5817	1378.063435473256	0
0	5843	1387.747970568345	1
0	5844	1387.797084914233	0
0	5855	1390.88530458373	1
0	5859	1392.088324949174	0
0	5871	1394.252466039888	1
0	5872	1394.707143062785	0
0	5880	1396.503308481294	1
0	5881	1397.125989969164	0
0	5890	1399.75867514011	1
0	5891	1400.116971083031	0
0	5902	1403.177773170343	1
0	5903	1404.061432657683	0
0	5921	1406.516759099804	1
0	5922	1406.688965350092	0
0	5928	1406.716857605512	1
0	5930	1407.170742623133	0
0	5945	1410.851572673677	1
0	5948	1411.887875167023	2
0	5949	1412.013009600236	1
0	5954	1412.647335639214	0
0	5972	1418.32934840597	1
0	5974	1418.423762096222	2
0	5977	1421.867659863342	1
0	5981	1423.352078075663	2
0	5986	1426.07029803496	3
0	5988	1427.232794859433	4
0	5991	1428.504629982337	3
0	5997	1429.161270345723	4
0	6000	1429.346750387805	5
0	6002	1429.357589817134	4
0	6007	1429.457915635645	3
0	6013	1429.755576534882	2
0	6022	1430.318546498759	1
0	6027	1430.825695613683	0
0	6063	1435.441268299126	1
0	6066	1436.291021060571	0
0	6073	1436.975472153895	1
0	6075	1440.487832328913	2
0	6077	1440.960349863427	3
0	6080	1442.826081071376	2
0	6087	1443.198073386676	1
0	6095	1445.19899554624	0
0	6116	1448.99980405089	1
0	6120	1449.860197179851	2
0	6125	1450.951172488156	1
0	6130	1451.32208754829	0
0	6143	1453.985790982886	1
0	6146	1454.650622287058	0
0	6152	1455.275222492229	1
0	6153	1455.509677877426	0
0	6159	1455.902886705335	1
0	6162	1457.353473630501	0
0	6168	1457.384830254702	1
0	6170	1458.38708887128	0
0	6185	1462.002701866726	1
0	6189	1464.463730013399	2
0	6190	1469.705201449737	1
0	6196	1471.092301569372	0
0	6209	1472.554792487685	1
0	6211	1473.805839321601	0
0	6218	1474.607950779591	1
0	6219	1476.078119490351	0
0	6225	1476.629141829487	1
0	6226	1476.630159663026	0
0	6232	1478.010057443267	1
0	6234	1479.058405694877	0
0	6283	1490.569936503831	1
0	6285	1490.689283190312	2
0	6286	1490.892143272108	1
0	6291	1491.348279940789	0
0	6319	1496.318599575393	1
0	6320	1496.339636146614	0
0	6334	1497.990764076181	1
0	6335	1498.102136040824	0
0	6353	1503.18964081727	1
0	6354	1503.882833834649	0
0	6366	1504.996693369171	1
0	6374	1509.103529167096	2
0	6375	1512.176699158068	1
0	6383	1513.22441430028	0
0	6395	1515.736535403874	1
0	6398	1517.451528677424	0
0	6404	1517.542583090597	1
0	6405	1517.578227611963	0
0	6412	1518.453889126528	1
0	6419	1518.923521188074	2
0	6422	1521.319966843598	1
0	6429	1525.008058888471	0
0	6454	1527.078609462575	1
0	6456	1527.50566944922	0
0	6473	1532.199580216888	1
0	6476	1533.103558991596	0
0	6499	1541.218308796672	1
0	6504	1546.57369456575	0
0	6515	1548.226263970835	1
0	6516	1549.480504304779	0
0	6528	1554.542231428565	1
0	6530	1555.144108995329	2
0	6531	1555.33090197854	1
0	6536	1555.432541726131	0
0	6558	1560.821650865232	1
0	6562	1562.725459090213	2
0	6564	1565.995197782127	3
0	6565	1566.203785674378	2
0	6570	1566.407396693564	1
0	6575	1566.493088536648	0
0	6607	1570.977438831451	1
0	6609	1571.341373240009	2
0	6611	1571.552467447027	3
0	6613	1571.807252688222	4
0	6617	1572.572717423178	3
0	6622	1573.258655697078	2
0	6629	1573.66654210878	3
0	6630	1573.930310812936	2
0	6637	1574.867206109724	1
0	6643	1580.043383415612	0
0	6685	1586.390988173836	1
0	6687	1587.337484615452	2
0	6691	1588.722673735713	3
0	6694	1590.338139337814	2
0	6703	1593.643672036811	3
0	6707	1596.926756791842	4
0	6708	1597.151002746641	3
0	6713	1597.388866061104	2
0	6718	1597.511540642985	1
0	6723	1597.834527890886	0
0	6727	1597.841224062513	1
0	6729	1597.927248996872	2
0	6733	1599.003183244186	3
0	6735	1599.125389894839	4
0	6736	1599.193438101286	3
0	6743	1599.517824409603	2
0	6752	1602.583780174756	1
0	6760	1605.207142991607	0
0	6784	1606.743859146864	1
0	6785	1607.018442828882	0
0	6792	1608.367493628853	1
0	6794	1609.126448868498	0
0	6800	1609.260230287346	1
0	6802	1609.77522562635	0
0	6842	1613.912089528565	1
0	6844	1615.054279147754	2
0	6847	1615.773922550877	1
0	6852	1615.983975968434	0
0	6865	1617.929848442195	1
0	6869	1618.989984092778	2
0	6870	1619.500656319627	1
0	6875	1619.721388658083	0
0	6883	1620.627100329589	1
0	6884	1621.164201900962	0
0	6927	1632.318648529015	1
0	6928	1633.235373693918	0
0	6944	1638.362617389291	1
0	6946	1638.51796994544	2
0	6948	1638.641121500468	1
0	6954	1640.986002290051	0
0	7017	1659.977065029625	1
0	7019	1660.794789877819	2
0	7020	1661.450332129967	1
0	7026	1661.598683523808	2
0	7027	1661.968364404539	1
0	7035	1662.993739011151	0
0	7070	1667.741106048434	1
0	7072	1668.101784942777	0
0	7079	1668.703828139718	1
0	7081	1669.081471281314	2
0	7083	1669.436772947911	3
0	7084	1670.392518363974	2
0	7089	1670.718085120273	1
0	7097	1672.150217181637	0
0	7117	1674.808529381123	1
0	7118	1675.895945623443	0
0	7132	1676.998796622714	1
0	7135	1677.639398040706	2
0	7136	1677.690203348074	1
0	7145	1679.006655404499	2
0	7146	1679.073319499557	1
0	7151	1679.947203145611	0
0	7208	1692.801941350498	1
0	7211	1693.835927523272	0
0	7217	1694.021012829564	1
0	7220	1695.397760560884	2
0	7221	1697.513704039136	1
0	7227	1698.355281112475	2
0	7228	1698.499659428955	1
0	7234	1698.683013641141	0
0	7262	1703.486550840587	1
0	7267	1706.465548225129	0
0	7278	1708.587438042172	1
0	7279	1709.220533951989	0
0	7288	1710.971019319805	1
0	7289	1711.274715685483	0
0	7295	1711.900260997915	1
0	7297	1713.663971446507	0
0	7326	1724.464467210014	1
0	7329	1724.884303654497	0
0	7340	1725.249914277268	1
0	7342	1726.254072847743	0
0	7371	1734.128111596094	1
0	7375	1736.051302905754	2
0	7378	1738.705570270158	1
0	7384	1739.98168794999	2
0	7386	1742.328208648351	1
0	7391	1743.44889743635	0
0	7397	1743.536041955723	1
0	7400	1745.818718903771	0
0	7442	1759.806388676221	1
0	7443	1760.001388976391	0
0	7490	1784.410743662575	1
0	7492	1784.418101771576	2
0	7496	1787.361736025297	1
0	7503	1787.912097663326	0
0	7568	1802.93094536294	1
0	7570	1804.392761849715	0
0	7594	1818.531608774322	1
0	7595	1818.623835077976	0
0	7643	1830.599524372373	1
0	7645	1830.843375501991	2
0	7646	1831.236281958761	1
0	7652	1833.008400412519	2
0	7654	1833.156949015439	3
0	7655	1834.618469293077	2
0	7660	1834.960856577342	1
0	7665	1835.097887172689	0
0	7669	1836.60182148818	1
0	7673	1838.49860787173	0
0	7679	1839.123374516265	1
0	7680	1839.887342408157	0
0	7698	1847.896614770931	1
0	7702	1848.988461133541	2
0	7703	1849.140265189372	1
0	7708	1849.294365470649	0
0	7749	1857.191903322682	1
0	7750	1857.998698448932	0
0	7764	1859.905789976286	1
0	7766	1859.968865091081	2
0	7768	1861.759107482072	1
0	7773	1863.027330402899	0
0	7785	1865.70611520841	1
0	7789	1867.853600146659	2
0	7790	1868.031775589412	1
0	7797	1869.686164155727	0
0	7809	1870.509563081496	1
0	7810	1870.586889183976	0
0	7816	1870.902561146174	1
0	7818	1871.542688059895	0
0	7867	1889.031219890156	1
0	7873	1890.747981922817	0
0	7895	1898.200722818372	1
0	7896	1898.311276010216	0
0	7911	1901.867029971446	1
0	7914	1902.281981235895	0
0	7931	1905.513136761305	1
0	7932	1906.403819285424	0
0	7938	1906.939070197253	1
0	7939	1907.054768363769	0
0	7948	1907.433667213596	1
0	7951	1908.245968859692	2
0	7952	1908.743843486137	1
0	7958	1909.119821268211	2
0	7962	1911.165256740608	1
0	7967	1912.02980307754	0
0	7999	1917.761982092538	1
0	8003	1919.84015613078	2
0	8004	1919.990227021337	1
0	8010	1920.088439105674	2
0	8011	1920.886093031188	1
0	8016	1921.043389412844	0
0	8031	1925.062108017919	1
0	8035	1925.187252825328	2
0	8041	1927.169465996843	1
0	8051	1929.373072606987	0
0	8067	1932.79680397175	1
0	8070	1934.682282104658	0
0	8104	1939.789813914716	1
0	8105	1940.050742325046	0
0	8114	1941.738432382686	1
0	8119	1943.698434409007	2
0	8121	1944.318878832318	3
0	8122	1944.644452097535	2
0	8128	1950.757717522553	1
0	8135	1952.934016741588	0
0	8182	1959.247806618009	1
0	8184	1959.59959623186	0
0	8224	1969.843975296921	1
0	8230	1974.524169725775	0
0	8246	1977.470439370928	1
0	8249	1977.898401215705	0
0	8268	1980.633969187162	1
0	8270	1980.93317825707	2
0	8272	1982.139608427646	3
0	8273	1982.392847603513	2
0	8279	1982.942739038399	1
0	8285	1984.659202679028	0
0	8291	1985.098315788144	1
0	8299	1986.943656417477	0
0	8311	1989.204252560605	1
0	8313	1993.370112232208	2
0	8317	1995.728669882159	3
0	8318	1996.040463499475	2
0	8327	1999.172847683897	1
0	8333	1999.841811952445	2
0	8334	2000.281739653176	1
0	8339	2000.482373918511	0
0	8353	2002.465280841764	1
0	8355	2003.404466544	0
0	8382	2008.931918777525	1
0	8384	2009.014417447616	2
0	8385	2009.490906490413	1
0	8390	2009.783849826434	0
0	8414	2016.502115105379	1
0	8416	2017.668096675701	2
0	8418	2017.68243118719	3
0	8420	2018.021503239147	4
0	8422	2018.426471423372	5
0	8425	2019.289543878724	4
0	8430	2019.797675568717	3
0	8441	2025.281112286674	2
0	8446	2025.655828929817	1
0	8452	2025.713908743108	2
0	8453	2025.971344168451	1
0	8458	2026.004605241619	0
0	8485	2036.502514085199	1
0	8486	2038.38101613256	0
0	8506	2042.087156135937	1
0	8507	2042.528864338103	0
0	8522	2044.846718155156	1
0	8524	2046.443532196372	2
0	8527	2046.887733063995	1
0	8533	2047.898667352992	2
0	8534	2048.376382545689	1
0	8539	2048.800593015062	0
0	8559	2051.252271082401	1
0	8560	2051.78082115402	0
0	8574	2055.577403888507	1
0	8577	2055.805286906908	0
0	8622	2073.685780109277	1
0	8625	2074.087979581209	2
0	8629	2079.575181574642	3
0	8630	2080.034282271257	2
0	8635	2080.526043052174	1
0	8643	2082.519709260293	2
0	8644	2082.655182118755	1
0	8649	2082.911274292519	0
0	8669	2088.132658841615	1
0	8672	2090.013760291505	2
0	8673	2090.033475624674	1
0	8682	2090.855474471019	2
0	8685	2091.265643982308	1
0	8690	2091.89950023583	0
0	8712	2096.252939716173	1
0	8714	2097.505687217258	0
0	8725	2098.075167743073	1
0	8726	2098.229678298385	0
0	8761	2106.568973142488	1
0	8762	2107.021991262126	0
0	8768	2108.053881635963	1
0	8771	2109.029162259074	0
0	8798	2112.530767748604	1
0	8802	2113.722933761937	2
0	8806	2117.015802368051	1
0	8813	2118.025661602296	2
0	8814	2118.072354987707	1
0	8819	2118.838016302691	0
0	8843	2125.147180157322	1
0	8846	2127.379425141173	0
0	8856	2128.616026107176	1
0	8858	2128.916757683302	2
0	8860	2128.960892536227	3
0	8867	2132.531134803628	4
0	8868	2134.606984558256	3
0	8874	2134.622902929838	4
0	8876	2135.198903101263	3
0	8882	2135.322605904232	4
0	8884	2135.549509069056	3
0	8889	2136.19626466303	2
0	8893	2138.243574232316	3
0	8901	2141.696503670288	2
0	8906	2141.926747337914	1
0	8913	2142.391294725019	0
0	8926	2142.857468691169	1
0	8927	2144.682584535908	0
0	8931	2144.914844665757	1
0	8933	2145.185831571532	2
0	8936	2145.66860326498	1
0	8941	2147.064245876902	0
0	8947	2147.996041891351	1
0	8950	2149.246992878024	0
0	8972	2152.231025761585	1
0	8973	2152.266012989205	0
0	8981	2152.590789060033	1
0	8984	2155.218241520358	0
0	9019	2161.521720846184	1
0	9022	2162.029587887485	0
0	9042	2165.782742402162	1
0	9044	2166.431842753668	0
0	9050	2167.096934468748	1
0	9051	2167.653107338912	0
0	9076	2172.153158087524	1
0	9079	2172.625737463168	0
0	9085	2172.814992211008	1
0	9088	2174.123600174136	0
0	9112	2178.285368076793	1
0	9116	2181.580462568469	2
0	9117	2182.4911262569	1
0	9122	2184.228222335227	0
0	9149	2190.047688515877	1
0	9151	2190.400350020685	0
0	9168	2192.556482407916	1
0	9170	2195.369671213305	0
0	9197	2199.036793238312	1
0	9198	2199.167200801219	0
0	9212	2200.096230477554	1
0	9214	2200.424895063792	2
0	9216	2200.682224790977	1
0	9221	2200.829280432422	0
0	9230	2202.977686310761	1
0	9231	2203.3646558195	0
0	9250	2207.186523839335	1
0	9251	2208.806445845791	0
0	9267	2215.690909505686	1
0	9268	2216.166708990231	0
0	9306	2225.148982544703	1
0	9312	2230.098887124016	2
0	9315	2231.055792074616	1
0	9321	2231.318321825605	2
0	9323	2231.693189202794	3
0	9325	2231.864753892863	2
0	9330	2231.906532862217	1
0	9336	2233.101666357328	0
0	9360	2238.750374641701	1
0	9362	2238.830086849987	2
0	9363	2238.892689290399	1
0	9368	2239.809154076563	0
0	9392	2244.481021582562	1
0	9393	2245.171848426166	0
0	9400	2245.710165045912	1
0	9401	2247.064642394869	0
0	9503	2287.247036551613	1
0	9504	2288.950200872522	0
0	9510	2292.550423676191	1
0	9511	2295.812065054158	0
0	9543	2306.34190450256	1
0	9547	2310.258375655748	0
0	9566	2312.250620425075	1
0	9567	2313.586223269294	0
0	9594	2318.31956336247	1
0	9595	2318.517291524479	0
0	9614	2324.308830547763	1
0	9617	2325.270939680473	0
0	9623	2326.486096112962	1
0	9628	2327.918812951191	0
0	9657	2335.151448703147	1
0	9661	2336.353341890792	0
0	9670	2337.856914175123	1
0	9672	2339.27989350185	2
0	9677	2340.401191217618	1
0	9682	2340.772341919443	0
0	9700	2343.43519539847	1
0	9706	2344.104030983911	2
0	9708	2344.28545294659	3
0	9712	2345.300417645127	2
0	9720	2345.612418599103	3
0	9722	2345.622398507794	4
0	9723	2346.096987373633	3
0	9728	2346.405937500343	2
0	9733	2346.946034141037	1
0	9739	2347.235425646801	2
0	9741	2347.323797379127	3
0	9742	2347.610549337593	2
0	9750	2350.52362321345	3
0	9751	2350.807586737101	2
0	9756	2350.852768492546	1
0	9762	2351.103704024658	2
0	9763	2351.34140782671	1
0	9767	2352.011557289351	2
0	9771	2353.787282642209	1
0	9776	2353.921923430876	0
0	9799	2357.754785703049	1
0	9801	2358.362055413434	2
0	9810	2362.54307247821	1
0	9816	2364.086286395519	0
0	9845	2370.261439054951	1
0	9848	2371.974602689024	0
0	9854	2372.322713245381	1
0	9855	2373.437355862709	0
0	9879	2379.112978530398	1
0	9881	2380.298364496475	0
0	9912	2383.926134744172	1
0	9913	2384.265656323486	0
0	9927	2387.915052719326	1
0	9928	2388.388298116729	0
0	9952	2390.782652364099	1
0	9954	2391.865676261227	0
0	9960	2392.206108109828	1
0	9961	2392.841035371938	0
0	9988	2397.099889988844	1
0	9992	2398.221467769181	0
0	10006	2399.376694386333	1
0	10007	2399.841438690703	0
0	10013	2400.149592358756	1
0	10014	2400.708095507424	0
0	10020	2401.025467260461	1
0	10023	2402.663978927099	0
0	10060	2414.602933035361	1
0	10061	2416.28240208444	0
0	10099	2421.4858375495	1
0	10101	2421.565564308255	2
0	10102	2421.747136950155	1
0	10111	2423.528623550838	0
0	10117	2423.61198811666	1
0	10120	2424.950934141288	2
0	10126	2428.080798759275	3
0	10127	2428.231720166576	2
0	10135	2429.233861063465	3
0	10136	2429.393007538445	2
0	10141	2429.542712709016	1
0	10150	2431.221280940329	2
0	10153	2432.468579848705	1
0	10158	2433.307379388939	0
0	10186	2436.056003046362	1
0	10189	2436.124151397098	2
0	10191	2436.928079042266	1
0	10196	2437.256614955129	0
0	10218	2441.073747905293	1
0	10219	2441.587390411423	0
0	10242	2446.112506151972	1
0	10243	2446.557341549552	0
0	10251	2449.273848967014	1
0	10255	2451.197050105196	0
0	10267	2452.49503705689	1
0	10268	2453.126452940981	0
0	10282	2456.516604990408	1
0	10284	2457.073845041091	0
0	10298	2461.909186474493	1
0	10301	2463.878748724891	0
0	10346	2478.416729101771	1
0	10351	2481.155300493555	0
0	10375	2483.558399787151	1
0	10378	2486.192920736918	0
0	10390	2487.967889475755	1
0	10396	2491.284440579353	0
0	10409	2494.470666925112	1
0	10410	2494.679020875095	0
0	10427	2498.434570648202	1
0	10431	2503.406650374378	0
0	10471	2509.329816033975	1
0	10476	2511.030792021509	2
0	10479	2512.214690740115	1
0	10485	2513.357193178517	0
0	10545	2530.728764151975	1
0	10546	2531.151069487128	0
0	10567	2549.056367905279	1
0	10568	2549.668535664951	0
0	10580	2554.2478610447	1
0	10583	2554.402353295056	0
0	10609	2562.275910646956	1
0	10615	2565.046264187776	0
0	10622	2566.119094324676	1
0	10625	2571.546584872553	0
0	10632	2572.082005794403	1
0	10633	2572.59341997727	0
0	10644	2572.946107036481	1
0	10652	2575.318094580689	2
0	10654	2576.030882225742	3
0	10655	2576.524529696095	2
0	10661	2576.67958878913	1
0	10667	2579.334249632433	2
0	10668	2579.699844599685	1
0	10674	2580.226641939778	2
0	10675	2580.292030012744	1
0	10684	2589.179227424272	0
0	10688	2589.869053075326	1
0	10694	2591.33479533806	2
0	10695	2591.701953844891	1
0	10700	2592.172313652511	0
0	10717	2593.619107154504	1
0	10720	2595.197693468536	0
0	10757	2601.74063828994	1
0	10761	2602.907585073436	0
0	10785	2610.998260888849	1
0	10786	2612.096151368233	0
0	10793	2613.249201393257	1
0	10794	2613.900881538014	0
0	10817	2617.506869057849	1
0	10818	2618.114983282717	0
0	10841	2621.522399670712	1
0	10845	2623.521834234391	2
0	10853	2626.634016862672	3
0	10855	2626.697055199658	4
0	10858	2628.245847176889	3
0	10864	2628.750809822789	4
0	10865	2629.823826090526	3
0	10871	2630.914838338352	2
0	10878	2632.407169160863	3
0	10879	2632.761024452181	2
0	10885	2633.328467903092	3
0	10887	2633.623151252563	2
0	10895	2634.438828144712	3
0	10896	2634.573769101567	2
0	10900	2636.793270661749	3
0	10905	2639.102344868882	2
0	10910	2641.41678830413	1
0	10915	2642.068184074292	0
0	10919	2642.248715282724	1
0	10924	2644.481878950474	2
0	10925	2646.945024951711	1
0	10931	2647.771947266672	0
0	10957	2652.393714638868	1
0	10958	2652.552423701846	0
0	10968	2653.806435154056	1
0	10970	2654.046757428493	2
0	10973	2654.808797254177	1
0	10979	2654.829470517036	2
0	10982	2655.263443300123	3
0	10986	2655.977420112131	2
0	10991	2656.365673390164	1
0	10996	2656.791853488214	0
0	11003	2657.181917534499	1
0	11006	2657.527066145545	0
0	11015	2659.014486568358	1
0	11016	2659.022271771056	0
0	11040	2662.142379763458	1
0	11042	2663.369729604937	2
0	11043	2663.761912408497	1
0	11050	2664.666736402117	0
0	11069	2669.064747646411	1
0	11072	2670.059242953862	0
0	11078	2670.158750761347	1
0	11081	2670.319376359641	0
0	11087	2670.736219259589	1
0	11088	2671.263294353548	0
0	11094	2672.010879552508	1
0	11095	2672.069662161489	0
0	11122	2678.473049910554	1
0	11125	2679.808111479527	0
0	11150	2687.476990523621	1
0	11152	2688.356604257374	2
0	11153	2688.805515843487	1
0	11158	2688.844398645864	0
0	11205	2698.959406390117	1
0	11207	2698.967730179373	2
0	11214	2701.863315241335	3
0	11215	2702.591619239788	2
0	11220	2702.780933077858	1
0	11226	2703.46537739383	2
0	11227	2703.643695184482	1
0	11233	2705.891555027258	0
0	11271	2711.892984508951	1
0	11272	2711.915483542955	0
0	11278	2711.990460857429	1
0	11279	2712.224288323873	0
0	11290	2714.522003255686	1
0	11296	2719.114890329872	0
0	11309	2723.191893142864	1
0	11311	2723.505101333823	2
0	11313	2723.624067837542	1
0	11319	2723.908801624809	0
0	11330	2724.362524090198	1
0	11333	2728.377569315507	0
0	11339	2728.792291349028	1
0	11343	2729.009425563945	2
0	11344	2729.469515792241	1
0	11349	2729.530574025245	0
0	11353	2730.006326081272	1
0	11355	2730.481347297187	2
0	11357	2730.544244216648	3
0	11360	2733.768326536689	2
0	11366	2734.834735793199	1
0	11371	2735.952267230651	0
0	11375	2737.407378056028	1
0	11384	2743.278260167625	0
0	11390	2744.11727308216	1
0	11392	2744.194499326369	2
0	11393	2744.465780507843	1
0	11400	2744.831047664613	0
0	11416	2747.202072013866	1
0	11418	2747.20485970474	2
0	11420	2748.16695723552	1
0	11427	2751.18949074256	0
0	11431	2752.560348977955	1
0	11433	2752.63484053055	2
0	11435	2755.21927941696	3
0	11437	2755.970625372236	4
0	11441	2757.116528132964	3
0	11448	2758.499217378363	2
0	11454	2759.559418208149	3
0	11457	2763.421443326835	2
0	11461	2764.010827927661	3
0	11464	2764.299250860557	2
0	11471	2765.961304679866	1
0	11476	2767.245300738305	0
0	11480	2767.493548211307	1
0	11482	2769.15243341605	2
0	11486	2772.81220564243	3
0	11487	2773.157812952919	2
0	11495	2775.780229087606	1
0	11500	2775.935102086706	0
0	11536	2785.276489099125	1
0	11538	2785.883730774152	2
0	11540	2786.000271526734	3
0	11542	2787.746582921142	4
0	11543	2787.979540375676	3
0	11548	2788.567141281054	2
0	11554	2790.015144134188	3
0	11557	2791.856051409276	2
0	11565	2792.716512319657	3
0	11566	2792.752667053173	2
0	11574	2794.03479433353	1
0	11580	2794.081836448976	2
0	11581	2794.796559959009	1
0	11586	2795.231661822602	0
0	11610	2804.677730436099	1
0	11611	2804.950975661818	0
0	11620	2805.362738145106	1
0	11621	2806.059835490113	0
0	11639	2807.455981502535	1
0	11642	2809.645856537564	0
0	11672	2822.390115093362	1
0	11673	2824.120401375264	0
0	11729	2841.463202854462	1
0	11730	2841.624990273482	0
0	11736	2841.719027244461	1
0	11737	2842.121616407718	0
0	11743	2842.903384102761	1
0	11744	2843.891428594352	0
0	11800	2861.430279923221	1
0	11801	2862.189943432643	0
0	11807	2862.636832213487	1
0	11810	2865.010883484399	0
0	11824	2870.070456597283	1
0	11825	2870.973155628801	0
0	11831	2871.584653370612	1
0	11832	2871.73524005907	0
0	11862	2875.30389789522	1
0	11867	2876.169596374557	0
0	11873	2876.742885046381	1
0	11874	2876.885131212887	0
0	11883	2877.423187900425	1
0	11886	2879.006519428839	0
0	11898	2880.728883402171	1
0	11900	2881.56820308234	2
0	11901	2881.866900789057	1
0	11906	2882.374662919339	0
0	11931	2889.173848754334	1
0	11934	2889.90930177334	0
0	11966	2899.931792446894	1
0	11968	2900.389555336333	2
0	11972	2902.314869355316	3
0	11974	2904.123255060148	4
0	11976	2904.572657662709	5
0	11982	2905.510832109255	6
0	11984	2905.650449656701	5
0	11989	2907.025116459793	4
0	11998	2910.467088538461	5
0	12000	2910.660488718536	6
0	12001	2911.581926650783	5
0	12007	2911.809408393134	4
0	12012	2912.577258250078	3
0	12021	2913.617017241197	4
0	12022	2914.004192722539	3
0	12027	2915.776226510133	2
0	12033	2918.404874187372	3
0	12035	2918.730133786885	4
0	12036	2918.732846769724	3
0	12041	2919.314768794526	2
0	12046	2920.444198471916	1
0	12051	2920.967743590497	0
0	12059	2922.931232705735	1
0	12060	2923.250306938393	0
0	12064	2923.437349025239	1
0	12066	2925.121457616395	2
0	12070	2925.911087216828	3
0	12071	2926.835728144522	2
0	12075	2926.868331500119	3
0	12078	2928.219449122355	2
0	12083	2928.400547735239	1
0	12087	2929.079219398719	2
0	12092	2929.979490289705	3
0	12094	2930.873228103664	2
0	12099	2931.166370263009	1
0	12104	2931.40243900578	0
0	12111	2931.821720325383	1
0	12112	2932.445512661361	0
0	12118	2932.707072918992	1
0	12121	2933.652441690309	2
0	12123	2933.843953709743	3
0	12125	2934.063533971619	2
0	12131	2934.183289732219	3
0	12132	2935.563582511029	2
0	12138	2936.105057743495	3
0	12139	2937.159375631427	2
0	12143	2937.220977777429	3
0	12149	2938.862594916435	4
0	12152	2939.306398634367	3
0	12161	2941.790530311212	2
0	12165	2942.385513980151	3
0	12167	2942.693886861862	4
0	12171	2944.471618531422	5
0	12172	2945.435923572079	4
0	12178	2947.062401435288	3
0	12186	2947.140020821605	4
0	12187	2947.251769752089	3
0	12192	2948.447895136778	2
0	12198	2949.494845136635	3
0	12203	2950.984722874947	2
0	12209	2951.963570986362	3
0	12213	2953.993489151353	4
0	12216	2958.185267992825	3
0	12221	2958.601230924827	2
0	12228	2960.597445573213	1
0	12234	2964.030834502987	0
0	12253	2965.82767456639	1
0	12257	2969.090993070931	0
0	12263	2969.680677054274	1
0	12266	2970.021824066273	0
0	12289	2974.848208519833	1
0	12292	2975.435118709346	0
0	12310	2980.526190132241	1
0	12314	2981.516486028321	2
0	12315	2981.811109034254	1
0	12320	2981.925677123038	0
0	12362	2988.122790043499	1
0	12365	2989.07929663903	2
0	12366	2989.199398467347	1
0	12371	2989.330079871026	0
0	12390	2993.980805526656	1
0	12394	2995.207254618173	0
0	12413	2998.457292453385	1
0	12415	2999.245099927152	2
0	12417	2999.729226507179	3
0	12419	2999.840332404743	4
0	12422	3002.17659241645	3
0	12430	3004.038243919879	2
0	12435	3004.734595042211	1
0	12440	3005.523702483487	0
0	12447	3009.659011680724	1
0	12449	3010.051673252199	2
0	12453	3011.544736967368	3
0	12455	3012.325884786335	4
0	12457	3012.683322904874	5
0	12459	3013.139753258576	4
0	12468	3015.455940327198	5
0	12469	3015.685432924597	4
0	12475	3019.057327068167	3
0	12483	3020.466636404267	4
0	12484	3021.018124612282	3
0	12491	3021.240794898159	4
0	12494	3022.144980316903	5
0	12496	3022.782096903076	6
0	12497	3022.793666794736	5
0	12504	3025.560205633566	4
0	12509	3026.890912153518	3
0	12514	3027.180115115089	2
0	12521	3031.404972335866	3
0	12522	3031.843240163706	2
0	12528	3032.425243263014	1
0	12534	3033.169581047401	0
0	12560	3038.199431120526	1
0	12561	3038.949423993268	0
0	12576	3041.501014611474	1
0	12579	3043.693146551869	0
0	12596	3047.287182398025	1
0	12597	3048.03569817712	0
0	12631	3055.606322578566	1
0	12636	3056.037469186716	0
0	12673	3065.917993052122	1
0	12680	3067.972003177937	0
0	12686	3068.077259185041	1
0	12687	3068.110491709067	0
0	12711	3070.874551907666	1
0	12712	3071.174991221008	0
0	12721	3072.71099781761	1
0	12723	3073.445487133362	2
0	12726	3074.6661684806	1
0	12731	3075.134169049315	0
0	12738	3075.685826970031	1
0	12739	3075.767167373363	0
0	12743	3076.023885974914	1
0	12745	3077.212790210248	2
0	12748	3079.903476180749	1
0	12756	3080.834564448096	2
0	12758	3082.237358467674	1
0	12764	3082.637161875031	0
0	12776	3083.745333318499	1
0	12777	3084.106910207761	0
0	12783	3084.635725928782	1
0	12784	3084.840993545575	0
0	12813	3088.593801067162	1
0	12815	3088.825313961588	2
0	12817	3088.955176759084	3
0	12819	3089.128363629752	4
0	12823	3090.210996483346	5
0	12824	3091.601044449908	4
0	12832	3093.427544393663	3
0	12837	3093.729294972763	2
0	12842	3094.855362233413	1
0	12847	3095.840645955672	0
0	12869	3099.222335797143	1
0	12873	3100.019993516749	0
0	12879	3100.080716276298	1
0	12880	3100.846381107879	0
0	12897	3104.940095628773	1
0	12898	3105.299184834506	0
0	12927	3118.779708023351	1
0	12929	3119.777157677867	2
0	12930	3120.010040494958	1
0	12935	3120.633248189662	0
0	12962	3130.512106469191	1
0	12964	3131.068372333633	2
0	12965	3132.701201530851	1
0	12971	3133.023758356084	0
0	12982	3133.575949304866	1
0	12984	3133.679305093783	2
0	12987	3134.167733559634	1
0	12993	3135.881645868482	0
0	13001	3136.919963185523	1
0	13003	3139.460725073615	0
0	13022	3141.872910013556	1
0	13025	3142.708097951999	0
0	13031	3143.019634087894	1
0	13032	3145.090124309442	0
0	13043	3145.88986917764	1
0	13045	3146.338595079582	0
0	13053	3147.925721065838	1
0	13054	3149.304649523207	0
0	13082	3154.364895124595	1
0	13087	3159.306904075205	0
0	13093	3159.580664420526	1
0	13095	3160.61757135661	0
0	13101	3160.931822988939	1
0	13102	3161.026842818061	0
0	13122	3163.302177211264	1
0	13123	3166.115232301535	0
0	13149	3171.307345706879	1
0	13152	3172.067218388156	0
0	13158	3172.077045081223	1
0	13159	3172.101763577726	0
0	13166	3173.236191234758	1
0	13167	3173.416015147917	0
0	13182	3177.80674418044	1
0	13184	3178.003880713995	2
0	13185	3178.195196066955	1
0	13191	3180.872739365314	2
0	13192	3180.880582252648	1
0	13198	3182.501409573414	2
0	13199	3182.830715907724	1
0	13205	3183.253970775308	0
0	13229	3187.84402287524	1
0	13232	3188.957648113413	2
0	13233	3189.450221485017	1
0	13239	3190.711175169296	0
0	13246	3191.105905125034	1
0	13247	3191.336320746608	0
0	13264	3192.91948154141	1
0	13270	3194.368684473995	2
0	13272	3195.802520999823	3
0	13279	3200.527551178053	2
0	13287	3201.344510896903	1
0	13293	3204.048975379955	0
0	13299	3204.107074262557	1
0	13300	3204.280265036345	0
0	13319	3209.343999973974	1
0	13320	3210.136248844743	0
0	13327	3210.656887259315	1
0	13330	3212.221792137779	2
0	13331	3212.701933281518	1
0	13336	3213.304140615139	0
0	13373	3229.690728170797	1
0	13374	3230.96514880217	0
0	13397	3239.483209150322	1
0	13399	3241.093673582152	0
0	13427	3250.59313831654	1
0	13429	3250.857632147153	2
0	13430	3251.076671466595	1
0	13435	3251.48197461162	0
0	13464	3260.278528480451	1
0	13465	3260.369609056853	0
0	13481	3264.394883147748	1
0	13483	3265.432049736488	0
0	13509	3275.013767981953	1
0	13513	3276.396739334306	2
0	13518	3280.255096324802	1
0	13523	3280.417745951134	0
0	13530	3281.547274029128	1
0	13536	3283.597275220684	2
0	13538	3285.724255719903	1
0	13545	3286.359885163848	0
0	13549	3286.426410783016	1
0	13555	3289.327952337594	0
0	13578	3291.955596904263	1
0	13579	3291.979226234751	0
0	13597	3295.157930709363	1
0	13601	3298.820063793396	0
0	13610	3300.006171411774	1
0	13611	3300.416298520931	0
0	13632	3303.309317830602	1
0	13633	3303.517007672497	0
0	13665	3309.377378331572	1
0	13667	3309.393516576803	2
0	13673	3311.441994936655	3
0	13675	3311.811979046863	2
0	13680	3312.162304742004	1
0	13686	3313.117787825762	2
0	13687	3313.605025468604	1
0	13693	3313.896988065322	0
0	13699	3314.89262674372	1
0	13702	3316.346270733499	0
0	13706	3317.13462172812	1
0	13711	3318.806237665538	0
0	13728	3321.188074311082	1
0	13729	3321.82232139804	0
0	13735	3321.972509473233	1
0	13737	3322.109871132157	2
0	13739	3322.154070143932	3
0	13741	3322.384667176899	4
0	13742	3322.419297161682	3
0	13751	3324.282907487339	2
0	13757	3324.565930405555	1
0	13762	3324.911914170009	0
0	13773	3326.574397740203	1
0	13775	3327.077433695989	2
0	13781	3328.925880019236	1
0	13787	3329.523009589712	2
0	13792	3330.91280048725	1
0	13799	3331.786859308637	2
0	13800	3331.855478819782	1
0	13806	3332.023238764375	2
0	13807	3332.267259438958	1
0	13812	3332.714232486976	0
0	13825	3334.085730550233	1
0	13827	3334.301205750412	0
0	13839	3335.061301312561	1
0	13840	3335.239860949628	0
0	13869	3341.496831382731	1
0	13872	3341.706844048478	0
0	13901	3344.622650234502	1
0	13906	3345.71096799533	0
0	13913	3346.829954788866	1
0	13914	3347.327372419479	0
0	13927	3349.524630249501	1
0	13928	3349.624808180246	0
0	13955	3355.653094858143	1
0	13958	3357.427385681423	0
0	13970	3358.514937261948	1
0	13972	3358.889044148748	2
0	13973	3359.358585021336	1
0	13978	3359.782263704789	0
0	13986	3360.843642744865	1
0	13988	3361.100745277561	0
0	14031	3366.641968415041	1
0	14033	3366.808172924958	2
0	14035	3366.842657921842	3
0	14039	3369.60241783924	4
0	14041	3369.879878602793	5
0	14044	3371.557549608973	4
0	14049	3371.565649057266	3
0	14056	3373.530949398871	2
0	14061	3373.774167946191	1
0	14066	3376.145323295808	0
0	14123	3397.470170538325	1
0	14125	3399.242644856982	2
0	14128	3400.637435901864	1
0	14135	3400.906249605264	2
0	14138	3403.211178370705	1
0	14143	3404.855500107762	0
0	14149	3405.615511531344	1
0	14150	3405.66306144146	0
0	14172	3410.329602773894	1
0	14177	3411.177407885664	0
0	14222	3423.817498238558	1
0	14228	3428.278919170714	0
0	14244	3431.792394173446	1
0	14246	3433.673328792443	2
0	14247	3434.423900883185	1
0	14254	3436.044616009409	2
0	14255	3438.796829840414	1
0	14260	3438.8915598406	0
0	14291	3449.044339351412	1
0	14293	3450.675670514525	2
0	14295	3450.810834972327	3
0	14296	3450.817123404351	2
0	14302	3451.074408193894	3
0	14304	3451.825289623776	2
0	14309	3453.271980777797	1
0	14320	3454.054947673026	0
0	14348	3458.403234302148	1
0	14350	3458.710481620115	2
0	14352	3460.157713752728	3
0	14361	3462.952960642396	4
0	14362	3464.332141096721	3
0	14368	3464.903941511715	2
0	14373	3465.063058928247	1
0	14378	3465.89083126904	0
0	14391	3468.130663132217	1
0	14394	3469.674110794588	2
0	14397	3470.949236585266	3
0	14398	3471.049714963705	2
0	14409	3472.645640796342	1
0	14415	3473.089868950448	2
0	14416	3473.12888031613	1
0	14422	3473.259785379451	2
0	14425	3474.242829872304	1
0	14431	3479.18336822194	0
0	14447	3480.648483533791	1
0	14449	3481.189969092479	0
0	14465	3483.8414695756	1
0	14467	3485.961866591914	0
0	14482	3490.231283902171	1
0	14484	3490.876171249285	2
0	14485	3491.307809442584	1
0	14493	3492.866736869054	0
0	14515	3495.99110946334	1
0	14519	3497.553415621395	2
0	14523	3504.00388432451	1
0	14528	3504.249553606476	0
0	14534	3504.384290474476	1
0	14537	3504.630999636992	2
0	14538	3504.89987946214	1
0	14546	3505.80845022279	2
0	14547	3505.815107472512	1
0	14552	3505.890054679535	0
0	14582	3512.797037334693	1
0	14587	3513.845435381052	2
0	14589	3513.868069145723	3
0	14591	3514.114559652565	4
0	14595	3516.942124884062	5
0	14596	3517.327170255042	4
0	14604	3517.778470499186	3
0	14610	3517.853237433315	4
0	14613	3518.518412306554	3
0	14618	3518.967738281267	2
0	14623	3519.041344520961	1
0	14629	3519.767767074074	2
0	14635	3520.849458573139	1
0	14640	3521.447187594362	0
0	14659	3524.609234012865	1
0	14660	3526.023927949516	0
0	14678	3529.482883803629	1
0	14679	3530.069671533395	0
0	14695	3532.485804348841	1
0	14698	3535.990357446792	0
0	14739	3543.727794219375	1
0	14742	3544.734767134716	0
0	14820	3578.338899367791	1
0	14822	3578.755502530875	2
0	14825	3579.950753475477	1
0	14830	3580.024543049032	0
0	14836	3580.400400554433	1
0	14837	3582.046716307812	0
0	14844	3585.843196985683	1
0	14845	3585.865169030195	0
0	14874	3593.139300960538	1
0	14875	3593.204759281015	0
0	14891	3596.790600397154	1
0	14892	3596.888396822478	0
0	14925	3614.192544581037	1
0	14926	3614.648427967346	0
0	15047	3643.515152623209	1
0	15051	3645.81457675712	0
0	15100	3656.519496934607	1
0	15108	3658.830735649459	2
0	15110	3658.958523488834	3
0	15111	3659.496211968664	2
0	15117	3659.967032112487	1
0	15125	3660.353392317176	2
0	15127	3660.584711491612	3
0	15128	3660.915896546597	2
0	15133	3661.13855916102	1
0	15138	3661.513319077486	0
0	15153	3664.215691183952	1
0	15154	3664.845546659127	0
0	15158	3666.190780314348	1
0	15164	3668.396929182068	0
0	15178	3671.769792739385	1
0	15185	3673.443159133356	2
0	15187	3673.862807387208	1
0	15194	3674.025771993816	2
0	15195	3675.694857144025	1
0	15201	3676.323379263439	2
0	15207	3679.083218009824	1
0	15215	3680.723561240098	2
0	15216	3681.208079800473	1
0	15221	3682.031784204674	0
0	15239	3684.532262485549	1
0	15243	3686.907915976209	0
0	15286	3694.383796737422	1
0	15287	3694.414722923645	0
0	15367	3709.410595824207	1
0	15368	3712.369724573071	0
0	15388	3713.128180978021	1
0	15390	3713.838354694915	2
0	15391	3714.010732033032	1
0	15400	3716.686581504737	0
0	15480	3737.271044671805	1
0	15481	3739.452617578426	0
0	15487	3739.643857450658	1
0	15490	3740.911623588234	0
0	15515	3745.282183974971	1
0	15522	3747.892210140192	0
0	15552	3752.934490147473	1
0	15553	3754.213661513375	0
0	15563	3756.71438967559	1
0	15565	3757.303777540211	2
0	15567	3757.399878902252	3
0	15572	3759.119933630707	2
0	15578	3760.708817499225	1
0	15586	3761.528498360644	0
0	15595	3762.151762742159	1
0	15596	3763.136271517867	0
0	15637	3770.888320551758	1
0	15638	3773.099017614451	0
0	15650	3776.24767665659	1
0	15651	3776.594642863329	0
0	15676	3783.20282598063	1
0	15679	3783.502720636505	0
0	15711	3792.966261406698	1
0	15717	3793.912696253716	2
0	15719	3795.982541425041	3
0	15721	3796.36087654279	4
0	15725	3797.107801142396	5
0	15726	3799.144856996126	4
0	15731	3799.204988509614	3
0	15736	3799.870090562264	2
0	15742	3800.468331234825	1
0	15748	3801.291987066993	0
0	15765	3804.197612534845	1
0	15767	3804.945705974035	0
0	15801	3811.627412156356	1
0	15802	3811.791091387038	0
0	15864	3833.198612223661	1
0	15867	3833.616575385185	0
0	15880	3835.053215404962	1
0	15884	3836.90004156905	0
0	15904	3838.426326107698	1
0	15905	3839.80498890484	0
0	15914	3840.883397292833	1
0	15919	3842.157562248731	2
0	15920	3842.158767344288	1
0	15926	3843.98670129957	0
0	15933	3845.193535609751	1
0	15934	3845.248303967165	0
0	15962	3850.855714518133	1
0	15966	3851.300412411406	2
0	15970	3852.87082199967	3
0	15975	3856.848573075015	2
0	15982	3857.35217663039	3
0	15985	3858.378532017419	4
0	15989	3859.613959730359	5
0	15990	3860.059328885033	4
0	15997	3861.080648985385	5
0	16000	3862.431503986283	4
0	16007	3862.823836610821	3
0	16013	3863.612893220261	2
0	16019	3865.216786688788	1
0	16028	3868.078783727012	0
0	16046	3868.988963705129	1
0	16049	3870.379475950482	2
0	16050	3871.269026492755	1
0	16056	3872.256419732302	0
0	16078	3875.229729724267	1
0	16079	3875.248187319993	0
0	16086	3875.586267215993	1
0	16088	3875.660183015573	2
0	16091	3877.628027571918	1
0	16098	3880.560579181653	0
0	16131	3888.642468625263	1
0	16133	3889.253905247435	2
0	16136	3891.04925369727	1
0	16141	3891.215998047769	0
0	16160	3893.401126068503	1
0	16164	3893.887767344749	0
0	16189	3901.350714893359	1
0	16190	3901.743954226134	0
0	16206	3905.872677687628	1
0	16207	3907.499160972227	0
0	16218	3909.19159411197	1
0	16221	3909.945423751235	2
0	16224	3911.021959626425	3
0	16225	3911.785290357566	2
0	16230	3912.404939545802	1
0	16236	3912.830613806141	2
0	16237	3913.306543788237	1
0	16242	3915.105866580708	0
0	16259	3922.393695026604	1
0	16262	3922.880049956099	0
0	16268	3922.987290242234	1
0	16271	3923.204910922043	2
0	16276	3924.91151205229	3
0	16278	3928.04251803582	2
0	16283	3930.001567361523	1
0	16288	3930.795631127884	0
0	16309	3933.692689508311	1
0	16311	3934.372901421136	2
0	16313	3934.628056967757	3
0	16314	3934.76398514486	2
0	16321	3936.503858087633	3
0	16323	3937.137852848234	4
0	16324	3937.691896017146	3
0	16329	3937.936766038775	2
0	16334	3939.597282693583	1
0	16339	3939.801223474143	0
0	16345	3942.228975911246	1
0	16347	3942.433324390724	2
0	16349	3943.45681729214	3
0	16351	3943.468691765543	4
0	16356	3947.288631761613	3
0	16361	3947.596479092013	2
0	16368	3948.036397840068	3
0	16370	3948.055417163567	4
0	16371	3948.453641299431	3
0	16377	3949.39406777227	2
0	16383	3951.524113901317	1
0	16389	3952.361570493186	0
0	16407	3954.459155830217	1
0	16409	3955.200432809367	2
0	16410	3955.827011562569	1
0	16420	3957.556768032472	2
0	16421	3957.949573943949	1
0	16426	3958.23481801486	0
0	16474	3973.828906689249	1
0	16475	3973.860736125867	0
0	16484	3977.120101075649	1
0	16486	3977.297098850782	2
0	16487	3977.479551310386	1
0	16492	3978.050014314267	0
0	16500	3978.363619115501	1
0	16503	3979.6793558317	0
0	16514	3980.717963190933	1
0	16515	3981.142672164509	0
0	16551	3985.777794724771	1
0	16555	3986.753945154466	2
0	16556	3987.353483517544	1
0	16561	3987.419896325696	0
0	16591	4003.021309698686	1
0	16593	4003.420627993574	2
0	16595	4003.98694308988	3
0	16596	4004.062855275501	2
0	16601	4004.446871649085	1
0	16610	4006.581954044536	2
0	16612	4007.000273593753	3
0	16613	4007.417752321434	2
0	16622	4009.215656013443	3
0	16623	4009.708632471972	2
0	16628	4009.945616574361	1
0	16634	4010.339476302735	0
0	16651	4011.18770530823	1
0	16654	4013.373632217433	0
0	16701	4025.389550967201	1
0	16702	4025.789523578268	0
0	16713	4031.662926770508	1
0	16718	4034.361879971411	0
0	16727	4037.005271335586	1
0	16730	4037.570623766059	2
0	16732	4037.643728834245	3
0	16733	4038.193145277906	2
0	16741	4040.399106864425	3
0	16742	4040.506197368063	2
0	16748	4042.147700018392	3
0	16749	4042.389812911707	2
0	16755	4042.484481446206	1
0	16760	4042.491728770236	0
0	16766	4042.845124596551	1
0	16767	4042.847959967695	0
0	16784	4046.827348226866	1
0	16786	4048.083005598486	2
0	16787	4048.146315445497	1
0	16793	4049.325066498121	2
0	16795	4049.462811822841	3
0	16797	4049.962429793151	2
0	16802	4050.729072214351	1
0	16807	4050.828589692339	0
0	16852	4067.437234483323	1
0	16855	4068.316269649013	2
0	16856	4068.514393108763	1
0	16862	4070.336187934869	0
0	16868	4070.384197574747	1
0	16875	4075.751866107401	0
0	16881	4076.228085102141	1
0	16884	4076.825422424274	2
0	16885	4076.952227169797	1
0	16890	4077.257079411307	0
0	16908	4078.365114787421	1
0	16909	4078.403802140515	0
0	16917	4079.459769375636	1
0	16918	4079.529850430766	0
0	16932	4083.719365617979	1
0	16934	4084.129945392861	0
0	16954	4087.312434154074	1
0	16959	4088.494368700348	2
0	16961	4089.313105944339	1
0	16966	4090.426698973688	0
0	16973	4091.757980115525	1
0	16976	4094.640966434701	0
0	16995	4097.672402722851	1
0	16996	4097.675063832201	0
0	17037	4110.241364041309	1
0	17038	4111.067497324012	0
0	17045	4112.167431165929	1
0	17047	4112.396852647786	2
0	17049	4112.565004869853	3
0	17050	4112.588818077037	2
0	17056	4112.923636080418	3
0	17059	4113.161493026377	2
0	17067	4113.932102966626	3
0	17068	4114.126471168878	2
0	17074	4114.65686456209	1
0	17079	4114.726419292028	0
0	17112	4125.564947153912	1
0	17115	4126.958994035622	0
0	17129	4127.76419359714	1
0	17131	4127.769820878744	2
0	17133	4128.534495612686	1
0	17138	4128.627038602011	0
0	17145	4128.792990629818	1
0	17148	4130.408340475587	0
0	17162	4133.539212972156	1
0	17163	4133.807929762963	0
0	17169	4134.136161896128	1
0	17171	4134.199526721531	0
0	17184	4136.459878671572	1
0	17185	4136.648190629612	0
0	17191	4137.571396967272	1
0	17192	4138.703275415793	0
0	17204	4140.052700954814	1
0	17208	4140.66138604761	0
0	17217	4142.993241341441	1
0	17219	4143.804189678511	2
0	17221	4144.030859301529	3
0	17222	4146.937983390809	2
0	17228	4147.946511632502	1
0	17233	4147.983160717665	0
0	17246	4150.325529121981	1
0	17247	4150.36585185853	0
0	17268	4152.594939751981	1
0	17269	4152.851026554195	0
0	17289	4154.314266561118	1
0	17291	4156.853781430933	0
0	17323	4164.090462407059	1
0	17326	4165.364232727819	0
0	17333	4166.549815638266	1
0	17334	4166.842583872716	0
0	17363	4174.814711377842	1
0	17364	4174.818053446192	0
0	17388	4183.886581537842	1
0	17390	4184.826616648671	2
0	17391	4187.052714627227	1
0	17397	4187.626180526189	2
0	17400	4188.343251138234	1
0	17406	4188.378531795356	2
0	17408	4188.97354773221	1
0	17415	4190.198773853172	0
0	17422	4190.406654104807	1
0	17423	4190.563202443218	0
0	17429	4190.755337140739	1
0	17430	4190.75986668622	0
0	17456	4196.405291808563	1
0	17457	4196.547062583259	0
0	17489	4203.948637502814	1
0	17491	4204.462094096965	0
0	17513	4216.664207532515	1
0	17514	4218.568769038168	0
0	17567	4231.060983463148	1
0	17568	4231.095290729708	0
0	17584	4236.819064262334	1
0	17585	4238.207896888236	0
0	17607	4244.345562972564	1
0	17608	4244.368941282059	0
0	17621	4245.91781920581	1
0	17625	4246.201412198807	0
0	17638	4246.849552115536	1
0	17639	4246.973509900712	0
0	17648	4248.73476921103	1
0	17649	4251.374939866392	0
0	17658	4252.01062567802	1
0	17660	4252.08466723868	2
0	17663	4252.981751875455	1
0	17668	4253.014290845242	0
0	17714	4266.09376067014	1
0	17715	4266.302741529776	0
0	17741	4269.258439211587	1
0	17742	4270.668530606841	0
0	17754	4276.286057461497	1
0	17760	4280.323164008578	0
0	17776	4282.640984693349	1
0	17781	4284.551851180913	0
0	17790	4286.253520347512	1
0	17793	4287.175911744058	0
0	17836	4295.723957203775	1
0	17837	4295.905589538823	0
0	17843	4296.141474689916	1
0	17846	4299.032087781149	2
0	17847	4299.311725655711	1
0	17852	4299.552545820956	0
0	17890	4313.845072036602	1
0	17893	4315.360726226818	0
0	17930	4319.716839955368	1
0	17931	4319.760841081239	0
0	17937	4320.263622227112	1
0	17938	4320.36622761759	0
0	17945	4320.642284852303	1
0	17947	4320.765265587929	2
0	17948	4321.286525176395	1
0	17952	4321.635231196284	2
0	17956	4323.610331320547	1
0	17962	4323.999482383087	2
0	17963	4324.406041497217	1
0	17972	4328.353930689932	0
0	17991	4332.097544108349	1
0	17996	4333.067096984658	0
0	18000	4333.264205397233	1
0	18002	4334.045749233784	2
0	18005	4336.008778169201	1
0	18014	4338.906156096607	0
0	18058	4347.201929306731	1
0	18059	4347.452467101686	0
0	18080	4352.284120018223	1
0	18082	4354.122489915614	0
0	18090	4355.584680035774	1
0	18091	4356.191792778741	0
0	18098	4356.654438630445	1
0	18101	4358.853303207538	2
0	18104	4359.340779662194	1
0	18112	4360.521980258011	2
0	18113	4360.55033643338	1
0	18118	4361.76573492101	0
0	18146	4373.268613660083	1
0	18148	4373.690840861489	2
0	18149	4375.620643029951	1
0	18154	4375.732635574347	0
0	18183	4381.450377869785	1
0	18184	4381.976635991139	0
0	18218	4397.099295738247	1
0	18223	4398.51253496983	0
0	18230	4398.961008931843	1
0	18231	4399.244779546387	0
0	18256	4405.507649828429	1
0	18260	4406.265479395993	2
0	18261	4407.023535033845	1
0	18267	4407.190986802709	2
0	18269	4409.215927714194	1
0	18274	4409.355989784467	0
0	18280	4409.879129817527	1
0	18281	4410.394449875121	0
0	18298	4412.992244949579	1
0	18299	4413.112112628455	0
0	18310	4413.877098095969	1
0	18314	4415.785922363052	2
0	18317	4416.434980655564	3
0	18318	4417.005837809317	2
0	18323	4417.31170238872	1
0	18327	4417.641797984619	2
0	18334	4420.53622575695	3
0	18337	4421.239674753372	2
0	18342	4421.922164908934	1
0	18350	4426.184793478234	0
0	18364	4430.936672952972	1
0	18366	4431.994115011326	2
0	18367	4432.825195291358	1
0	18372	4433.387014181361	0
0	18385	4435.549859404554	1
0	18388	4436.032972502924	0
0	18410	4440.511491255011	1
0	18411	4440.834611399821	0
0	18437	4445.662747085341	1
0	18438	4446.934158187753	0
0	18445	4447.543439933167	1
0	18446	4448.318740815994	0
0	18471	4452.425785256485	1
0	18473	4454.511631027333	0
0	18479	4454.934191305868	1
0	18481	4456.532916773781	0
0	18487	4456.64863338824	1
0	18490	4456.805416543745	2
0	18491	4457.013479520759	1
0	18495	4457.522036599612	2
0	18501	4460.075310520345	3
0	18509	4463.679590154476	2
0	18515	4464.522493092964	3
0	18516	4465.388846403701	2
0	18522	4467.291252443536	3
0	18525	4469.112714158616	2
0	18531	4470.395849634165	3
0	18532	4470.666795518337	2
0	18540	4473.989347771869	1
0	18545	4474.663095337373	0
0	18566	4478.297055163511	1
0	18567	4479.553619356247	0
0	18602	4486.646826902546	1
0	18608	4490.616255160694	2
0	18609	4491.459198272998	1
0	18616	4493.102487718402	0
0	18630	4496.27663544006	1
0	18634	4497.498660929355	0
0	18641	4498.744393858186	1
0	18642	4498.955673364455	0
0	18664	4505.867605518345	1
0	18666	4507.592786483194	2
0	18668	4507.642555529015	3
0	18670	4508.450387680713	4
0	18674	4509.736255676382	3
0	18680	4509.773882986887	4
0	18681	4510.166034335436	3
0	18687	4511.756801760128	2
0	18695	4514.805263431731	1
0	18700	4515.264273413107	0
0	18718	4515.705961466617	1
0	18722	4516.699392548475	0
0	18749	4519.376831753796	1
0	18752	4520.728118506339	2
0	18754	4520.761767805487	3
0	18756	4521.430220347595	4
0	18758	4522.655028313774	5
0	18760	4523.028207369222	6
0	18762	4524.283617215819	7
0	18763	4524.434907446671	6
0	18771	4525.281678782199	7
0	18772	4525.921303237583	6
0	18778	4526.311006658438	5
0	18784	4527.671627822022	6
0	18788	4528.894194532066	7
0	18789	4531.082874818372	6
0	18795	4531.336897427455	7
0	18796	4533.020131344036	6
0	18801	4533.073260404052	5
0	18806	4533.542233970384	4
0	18810	4535.147063094318	5
0	18812	4536.650382238823	6
0	18817	4539.671041701538	5
0	18822	4541.429381523441	4
0	18826	4542.635750285816	5
0	18828	4543.024885668434	6
0	18831	4544.394222002012	5
0	18837	4545.841400353448	6
0	18841	4547.363490584408	5
0	18847	4549.064560928972	4
0	18853	4549.796415188195	5
0	18856	4550.433822618751	4
0	18861	4551.602221741306	3
0	18867	4553.433287368344	4
0	18869	4553.723891247892	5
0	18872	4554.203833873003	4
0	18876	4555.241260146395	5
0	18881	4558.93908692616	6
0	18882	4559.06637166338	5
0	18889	4560.092184581381	6
0	18890	4561.175987005823	5
0	18897	4561.597062557616	4
0	18904	4563.258528762422	5
0	18906	4563.474899653427	6
0	18907	4563.888905991388	5
0	18912	4563.967225140906	4
0	18917	4564.417379578009	3
0	18923	4565.982611219299	4
0	18927	4567.959863754627	3
0	18932	4567.986327503032	2
0	18936	4568.631478439209	3
0	18940	4569.748785437063	2
0	18946	4570.684523712937	3
0	18947	4571.644585207217	2
0	18954	4573.01319643545	3
0	18957	4574.190433810496	2
0	18964	4574.395774873224	1
0	18970	4574.448892511796	2
0	18971	4574.527193673004	1
0	18976	4575.150263322011	0
0	18980	4575.397069607471	1
0	18989	4578.177691460758	0
0	18995	4578.487284414046	1
0	18996	4578.657027393588	0
0	19019	4581.033049838073	1
0	19020	4581.228593061338	0
0	19026	4581.913433753199	1
0	19028	4582.951304332814	0
0	19040	4583.710463146614	1
0	19042	4584.491817939332	2
0	19043	4584.801795311231	1
0	19049	4585.677044977902	0
0	19067	4591.754392481684	1
0	19069	4591.874200460415	2
0	19071	4592.405149439006	3
0	19073	4593.020727290182	4
0	19076	4595.537081747309	3
0	19082	4596.074528296084	4
0	19088	4599.786892006068	3
0	19094	4600.099529385073	2
0	19099	4600.208192434599	1
0	19104	4600.4238941691	0
0	19117	4601.184722875466	1
0	19119	4601.496912904207	2
0	19123	4601.897683057715	3
0	19125	4601.993118986961	4
0	19127	4603.115821042235	5
0	19130	4604.902889127532	6
0	19131	4606.351999867251	5
0	19136	4606.784506008246	4
0	19144	4609.037051603799	3
0	19154	4611.710321999691	2
0	19160	4612.247524768263	1
0	19165	4612.764597522352	0
0	19171	4612.828355252263	1
0	19172	4613.471715470489	0
0	19188	4614.495147712713	1
0	19190	4615.060217241399	0
0	19196	4615.332819487913	1
0	19197	4615.524527623625	0
0	19207	4615.970932251486	1
0	19208	4616.216944815399	0
0	19249	4621.847715231073	1
0	19251	4621.848788822941	2
0	19252	4622.281018972758	1
0	19257	4622.374769136176	0
0	19263	4622.835669277095	1
0	19265	4623.549104384638	0
0	19315	4635.132312607576	1
0	19317	4635.275250721793	2
0	19319	4637.159320738492	3
0	19323	4637.985179744719	2
0	19333	4641.058507731786	1
0	19344	4644.24958590714	0
0	19390	4652.61477024231	1
0	19392	4653.822449897139	2
0	19393	4653.943053631108	1
0	19402	4656.426216974146	0
0	19433	4665.256389061276	1
0	19435	4665.770647933194	2
0	19436	4667.32872589914	1
0	19441	4667.625439158493	0
0	19475	4674.576746338986	1
0	19479	4675.041843249361	2
0	19481	4675.910332773819	1
0	19489	4677.53918992942	0
0	19504	4681.316456124515	1
0	19507	4684.056114433559	2
0	19508	4684.498125139989	1
0	19514	4687.736898491656	0
0	19552	4694.928222466803	1
0	19555	4695.906033581407	0
0	19594	4704.680590415203	1
0	19595	4705.134602237339	0
0	19611	4707.354120386923	1
0	19614	4708.788038911081	0
0	19643	4711.837723338119	1
0	19644	4712.740726045483	0
0	19691	4725.420272944099	1
0	19692	4725.593922540027	0
0	19698	4725.609409661464	1
0	19699	4725.661997720491	0
0	19728	4730.839559874827	1
0	19729	4731.727741558715	0
0	19741	4732.055967202759	1
0	19742	4734.898895800555	0
0	19760	4735.794014585363	1
0	19761	4735.899088892983	0
0	19830	4769.207946304371	1
0	19831	4769.292920371705	0
0	19859	4777.151606178219	1
0	19863	4778.026739252803	2
0	19864	4778.38455816384	1
0	19871	4778.754496785087	2
0	19875	4780.275144471447	1
0	19880	4780.638966651138	0
0	19892	4783.748587294404	1
0	19896	4785.894050611345	0
0	19929	4794.552678396027	1
0	19931	4795.071043413894	2
0	19933	4795.874764557352	3
0	19934	4796.503091425726	2
0	19939	4796.52623627482	1
0	19947	4797.536460722025	2
0	19950	4798.763309522439	3
0	19954	4800.425862416849	4
0	19956	4801.279156591318	5
0	19957	4801.344849560287	4
0	19965	4804.104353412717	3
0	19970	4804.222879656824	2
0	19975	4804.33998743866	1
0	19980	4804.39147786357	0
0	19986	4804.865544136805	1
0	19987	4805.371499402233	0
0	19991	4807.612424902236	1
0	19993	4808.144484595616	2
0	19999	4810.290838501188	1
0	20004	4810.639230011297	0
0	20008	4810.672597880841	1
0	20014	4814.660711195891	0
0	20020	4815.868341950481	1
0	20021	4816.242455595603	0
0	20027	4816.802517809286	1
0	20029	4817.224943441621	2
0	20031	4817.289090448306	3
0	20032	4818.127392717416	2
0	20038	4818.750587120485	3
0	20041	4819.153596502707	2
0	20051	4822.035870688163	3
0	20059	4825.232092819856	2
0	20065	4825.372235163692	3
0	20067	4825.893652666959	2
0	20073	4826.148035989944	3
0	20076	4826.612434942676	4
0	20078	4826.977423652374	5
0	20081	4828.293873194737	4
0	20090	4833.292195424339	5
0	20091	4833.3346234609	4
0	20097	4835.435506895875	3
0	20102	4835.510636175247	2
0	20108	4836.428902602608	3
0	20111	4836.985366735056	2
0	20118	4837.163445117827	3
0	20123	4838.467283792746	4
0	20124	4838.966395721799	3
0	20130	4840.710688175999	2
0	20138	4843.149275052081	1
0	20143	4846.576729910699	0
0	20186	4851.742235197786	1
0	20187	4851.833772288319	0
0	20209	4856.594691445826	1
0	20211	4856.615945724286	2
0	20215	4859.408544741869	3
0	20219	4860.538802538365	4
0	20220	4861.038145427822	3
0	20227	4861.207008025437	2
0	20236	4862.1302480312	1
0	20241	4863.070619548151	0
0	20249	4864.457710825255	1
0	20250	4865.172084789877	0
0	20277	4870.365763247465	1
0	20278	4870.603795060322	0
0	20308	4877.990424488036	1
0	20310	4878.601233009946	0
0	20333	4882.42549987029	1
0	20334	4883.053273644672	0
0	20340	4883.126813880375	1
0	20342	4883.366801016451	0
0	20353	4884.045260376788	1
0	20355	4884.663501318628	0
0	20368	4887.735182748355	1
0	20370	4887.98680867021	2
0	20371	4888.460047732136	1
0	20377	4888.623398467185	0
0	20383	4889.779141416938	1
0	20386	4890.365322438421	2
0	20387	4890.77544635452	1
0	20393	4891.885999853512	2
0	20394	4892.221025187635	1
0	20398	4892.365162701868	2
0	20400	4892.563994400227	3
0	20406	4894.11361326175	4
0	20409	4894.70451620323	3
0	20413	4895.680787100581	4
0	20417	4896.11706599142	3
0	20426	4897.753974282767	4
0	20427	4898.365823845144	3
0	20433	4898.683233113973	4
0	20434	4899.718855514959	3
0	20440	4900.8051398649	4
0	20442	4901.654563214555	3
0	20447	4901.688267877719	2
0	20456	4903.12253918354	3
0	20458	4903.23086314982	4
0	20459	4903.410033857334	3
0	20466	4903.559211833201	2
0	20474	4905.060851682681	1
0	20480	4905.671124971186	2
0	20482	4905.728653839953	3
0	20483	4906.098261204709	2
0	20491	4908.98996607262	1
0	20496	4909.342253406956	0
0	20516	4911.16820941705	1
0	20518	4911.188718587396	2
0	20519	4911.484383640915	1
0	20524	4912.298752808006	0
0	20530	4914.057197448039	1
0	20536	4915.687407583042	0
0	20547	4918.274906994657	1
0	20548	4918.566610143178	0
0	20573	4922.412182364957	1
0	20576	4923.755475467529	0
0	20585	4924.024105939991	1
0	20596	4927.031590076224	2
0	20599	4929.179643883112	1
0	20605	4932.602407740764	2
0	20607	4933.483921238692	3
0	20609	4933.867222397948	4
0	20610	4934.183568525264	3
0	20615	4938.768919667349	2
0	20621	4939.050676381218	3
0	20624	4939.860688623106	2
0	20630	4940.657715556753	3
0	20632	4941.304514057939	4
0	20635	4943.111415353569	3
0	20644	4946.007439352273	2
0	20651	4948.264202242896	3
0	20652	4948.378533716029	2
0	20657	4948.772778738466	1
0	20662	4949.012109564538	0
0	20709	4956.159022885068	1
0	20711	4957.198777198058	0
0	20723	4959.467577319646	1
0	20724	4959.847030229349	0
0	20736	4962.427639692722	1
0	20737	4962.879662565541	0
0	20756	4969.958950139406	1
0	20757	4970.038722257407	0
0	20768	4972.238264877919	1
0	20769	4972.284946102543	0
0	20789	4976.655723464548	1
0	20793	4977.786850189963	2
0	20794	4977.963728652837	1
0	20799	4978.165956844659	0
0	20816	4981.334234500989	1
0	20817	4982.496202913414	0
0	20830	4984.225236596564	1
0	20831	4984.677056137518	0
0	20860	5001.220366186745	1
0	20864	5002.33250024681	2
0	20866	5002.564173481565	3
0	20867	5003.602562224254	2
0	20872	5003.726551686856	1
0	20877	5003.988575024798	0
0	20883	5004.730443997338	1
0	20890	5007.383725555815	2
0	20891	5007.716694837647	1
0	20897	5008.259320041273	0
0	20920	5013.160773453725	1
0	20923	5014.622073400885	0
0	20955	5021.034517111759	1
0	20958	5023.734700419952	0
0	20964	5024.211893767554	1
0	20966	5024.926428177228	0
0	20997	5033.250457481936	1
0	21000	5034.328538718989	0
0	21009	5035.321887122871	1
0	21015	5036.777226944436	2
0	21016	5037.114493126988	1
0	21023	5038.422587123022	0
0	21030	5039.114325014038	1
0	21035	5040.413658321361	2
0	21037	5040.641617347813	3
0	21038	5041.044337649015	2
0	21044	5041.182646005516	1
0	21049	5041.365477382253	0
0	21109	5054.747861281026	1
0	21111	5054.888546984544	2
0	21112	5056.10148032864	1
0	21117	5056.557184414131	0
0	21124	5056.693357967192	1
0	21128	5057.2043461759	2
0	21130	5057.772017633831	3
0	21131	5058.268152372404	2
0	21136	5060.174948165512	1
0	21141	5060.513150028197	0
0	21147	5061.705763003457	1
0	21150	5062.66510729008	0
0	21171	5068.034206326897	1
0	21172	5068.242465109054	0
0	21187	5074.350389883471	1
0	21192	5075.018191499959	0
0	21204	5076.158354648859	1
0	21209	5077.549119548728	2
0	21210	5077.804016654492	1
0	21217	5079.169998096668	2
0	21220	5079.924703998057	1
0	21226	5080.416015301287	2
0	21227	5081.712532972179	1
0	21233	5083.261315859153	2
0	21235	5083.455795739159	3
0	21236	5083.714135102539	2
0	21242	5083.769887636302	3
0	21248	5085.716579106257	4
0	21249	5086.041189155778	3
0	21253	5087.149572413515	4
0	21255	5087.169715348149	5
0	21259	5089.681684590725	4
0	21264	5090.951737556479	3
0	21272	5093.324577069813	2
0	21278	5093.42906434079	3
0	21279	5093.670093958314	2
0	21285	5094.321150513875	3
0	21286	5095.069600339596	2
0	21295	5096.711897172159	3
0	21296	5097.804688785762	2
0	21301	5098.795739387234	1
0	21306	5099.340009231142	0
0	21310	5099.540824299057	1
0	21314	5101.34445376974	2
0	21318	5102.153560912982	3
0	21322	5105.119569329316	2
0	21327	5105.130490161408	1
0	21332	5107.201512076846	0
0	21340	5112.273573102534	1
0	21344	5112.715652986864	2
0	21346	5112.846715842726	3
0	21348	5114.01045719059	4
0	21350	5114.424670627549	5
0	21351	5114.569901080679	4
0	21356	5117.335003948923	3
0	21362	5117.743079937591	2
0	21367	5119.023106253658	1
0	21373	5119.409106977724	2
0	21376	5121.120396259211	1
0	21380	5121.526959246334	2
0	21384	5121.546716225554	3
0	21386	5122.040873028072	4
0	21388	5122.942701536532	5
0	21392	5124.613609070386	6
0	21394	5124.814144854843	7
0	21396	5124.958455628525	8
0	21398	5125.49697519447	9
0	21399	5126.021154077459	8
0	21405	5128.312444173991	9
0	21406	5128.514808969622	8
0	21410	5129.609082326454	9
0	21416	5132.307867381802	8
0	21421	5132.548042310226	7
0	21429	5136.285717219641	6
0	21435	5136.759837450416	7
0	21437	5137.231741168232	6
0	21442	5137.704188453184	5
0	21448	5139.027992034289	6
0	21452	5139.878844973824	5
0	21457	5140.847455833427	4
0	21461	5141.688848350454	5
0	21468	5143.739813113936	4
0	21473	5144.6762449817	3
0	21478	5145.414943002051	2
0	21484	5147.132651508144	3
0	21488	5148.341959086518	2
0	21494	5148.771453000447	1
0	21500	5148.875702510373	0
0	21513	5150.724152967141	1
0	21515	5152.051887667048	0
0	21534	5155.03841038978	1
0	21536	5155.53438258486	2
0	21538	5156.326786559875	3
0	21544	5158.382855239448	4
0	21545	5160.638751060929	3
0	21550	5161.413635251475	2
0	21558	5162.184049997785	1
0	21564	5163.389734463254	0
0	21580	5164.615487948272	1
0	21581	5164.738702866045	0
0	21603	5167.052519932513	1
0	21604	5167.416918472857	0
0	21610	5167.583584289538	1
0	21614	5169.610023125716	2
0	21615	5170.490065830521	1
0	21620	5171.07152346826	0
0	21637	5174.537743913673	1
0	21639	5174.936142388144	0
0	21645	5175.436634079783	1
0	21648	5176.699104768208	2
0	21650	5177.140285113186	3
0	21653	5178.340387084164	4
0	21656	5179.15653761773	3
0	21661	5179.386244850073	2
0	21669	5182.510175988627	1
0	21674	5182.809185657953	0
0	21681	5183.19947980939	1
0	21684	5183.393175164255	0
0	21722	5187.916163073024	1
0	21727	5189.835145369064	2
0	21728	5189.859712989536	1
0	21733	5190.27095847812	0
0	21745	5193.146700610449	1
0	21749	5193.53405545907	0
0	21761	5194.288567551341	1
0	21764	5196.812809659973	0
0	21770	5197.582379863794	1
0	21774	5198.789083371275	2
0	21775	5198.892047004203	1
0	21785	5200.367581750039	0
0	21801	5203.592798230979	1
0	21802	5203.789147275609	0
0	21809	5204.533697960434	1
0	21810	5204.706183133274	0
0	21823	5206.92370402363	1
0	21824	5210.040230687717	0
0	21857	5216.297306901987	1
0	21862	5219.958876339622	0
0	21872	5220.446688313576	1
0	21877	5222.257858576308	0
0	21889	5223.337009092472	1
0	21890	5223.393104138382	0
0	21904	5227.654528793046	1
0	21906	5230.011368627322	2
0	21907	5230.272147906479	1
0	21913	5230.465707579877	0
0	21925	5231.873109978351	1
0	21927	5232.011041750008	2
0	21929	5232.414583785514	3
0	21931	5233.119380563109	2
0	21940	5235.183143860845	1
0	21946	5237.158070111569	0
0	21952	5238.003410027391	1
0	21954	5238.12366228774	2
0	21955	5239.527366658236	1
0	21960	5240.306248111138	0
0	21972	5241.820444603418	1
0	21974	5242.316638957054	0
0	21992	5243.835756156282	1
0	21994	5243.966018319527	2
0	21998	5244.314438858179	1
0	22005	5244.4545463807	2
0	22008	5245.211480518544	1
0	22013	5245.3354977305	0
0	22019	5248.913235974623	1
0	22022	5250.022311595594	0
0	22026	5251.586354078414	1
0	22028	5254.005061817702	2
0	22031	5255.184357718076	1
0	22037	5256.157348053075	0
0	22057	5258.183485849251	1
0	22059	5258.446444281105	2
0	22061	5259.526636677841	1
0	22066	5259.858643256469	0
0	22077	5260.091351047732	1
0	22079	5261.656337996536	2
0	22081	5262.434735249829	3
0	22084	5263.050922118592	4
0	22088	5263.516237331055	5
0	22090	5263.909638051298	6
0	22091	5263.931294643975	5
0	22097	5263.997960554413	6
0	22099	5264.29527860845	7
0	22100	5266.578644635297	6
0	22107	5268.631670599669	5
0	22113	5269.893218682557	6
0	22117	5270.330568467129	5
0	22122	5270.593087705647	4
0	22127	5271.185866869767	3
0	22131	5271.948725532252	4
0	22136	5273.75137026391	5
0	22137	5274.887275484292	4
0	22144	5276.89064932053	3
0	22152	5278.18250909814	2
0	22157	5280.120827365473	1
0	22162	5281.443308645473	0
0	22166	5282.035400362373	1
0	22169	5284.188943469798	0
[...]
4	115141	27632.323831559187	14.614912888351
4	115146	27632.413980067601	9.219190960409
4	115153	27635.927174841137	11.557907132443
4	115169	27642.39396478774	14.279998500158
4	115183	27645.083244395444	12.772534163398
4	115195	27646.648459078889	7.504724506596
4	115210	27648.771194935681	5.213617774037
4	115239	27652.625531988738	7.380398637659
4	115251	27656.606229667016	9.957202856998
4	115256	27656.732804084317	9.242372005269
4	115261	27657.754178127209	9.200949622946
4	115278	27666.039002191911	0.012953394658
4	115309	27673.809622104224	6.612008057158
4	115355	27687.867451358708	7.990101153477
4	115388	27695.529520911341	13.506423493427
4	115566	27728.446501836642	42.565324344108
4	115572	27729.357838878783	34.458446786499
4	115579	27729.607899349701	30.396940493923
4	115584	27730.63759871246	14.21712525596
4	115593	27734.298310843363	17.451969689384
4	115657	27743.485034578936	20.57152182409
4	115676	27748.911093425512	25.876587011155
4	115691	27754.102375546057	24.671841529142
4	115696	27754.471380280457	18.702750142295
4	115703	27754.78409725263	18.959616848851
4	115719	27759.383558037018	21.55027196984
4	115736	27763.24012489056	24.682124087041
4	115745	27765.377680136485	26.09866424858
4	115780	27773.579078096961	33.790333788914
4	115816	27784.267414936858	31.115826600451
4	115826	27786.5889854041	19.73152851675
4	115837	27789.539945113365	16.633060687373
4	115851	27799.271894048243	21.99334803693
4	115876	27807.463177471583	24.529687212484
4	115904	27811.410389046992	19.115119505456
4	115919	27816.104558348083	22.531624182191
4	115931	27817.496054090469	15.855592865253
4	115990	27836.164344939584	33.064439793175
4	116006	27839.243782367148	27.85488864189
4	116011	27839.267933704043	26.948807032703
4	116016	27839.295553236754	21.38231393796
4	116026	27842.104019086697	24.151367292924
4	116050	27848.769128641432	13.792960784239
4	116075	27851.994319651504	8.500037362077
4	116160	27879.288092224251	28.637972827457
4	116178	27882.079769566648	31.016335511836
4	116274	27899.356999267006	45.884471426349
4	116295	27903.729221684421	48.602740725624
4	116307	27904.381316498792	33.183478512878
4	116319	27909.355703748368	28.934618653001
4	116329	27910.349925115139	27.862740324963
4	116340	27917.379316938448	32.14361259239
4	116390	27928.659491863768	37.383878616199
4	116647	27995.541450131481	91.244715132069
4	116691	28003.742164018141	98.930550410322
4	116696	28005.718650926614	100.29614396518
4	116703	28007.472093211565	95.295215486236
4	116709	28007.640251715144	71.273767672985
4	116714	28007.788027740325	66.287054359544
4	116719	28007.987607477125	50.420687962828
4	116724	28008.767152612129	29.429295146235
4	116735	28017.018936662271	29.915585959284
4	116753	28020.51741354976	22.797172796671
4	116758	28023.238237260913	24.431435666057
4	116765	28024.413500749153	18.191598170748
4	116776	28027.880563033899	16.788870684638
4	116784	28028.834213777154	8.942936596662
4	116813	28041.501262563337	0.176980891344
4	116829	28047.903038005795	1.453823594558
4	116852	28061.128326770073	1.284783858558
4	116876	28068.939072137059	2.383044191506
4	116919	28083.551492419406	15.633469934572
4	116957	28089.23469536885	21.194495762335
4	116972	28094.374894799917	15.033132097752
4	117039	28108.086057913093	26.537054484313
4	117067	28113.870106529853	28.700082540473
4	117072	28114.462587371716	27.870285826426
4	117077	28114.740701733705	24.803785868409
4	117086	28117.622503963891	15.957648727124
4	117113	28126.817633266109	19.675519893168
4	117119	28127.238873964969	18.570434950221
4	117123	28130.451036049929	13.133139622974
4	117165	28142.283038119568	1.238216037483
4	117172	28143.163483629479	1.437809011417
4	117187	28148.45752147385	2.701499113489
4	117226	28155.462928591076	1.930205036221
4	117233	28157.712082901778	3.158249918987
4	117246	28159.651255008142	1.163720880793
4	117253	28160.606083700481	0.857996866753
4	117264	28166.862798592444	4.35999666628
4	117295	28173.501098733714	3.166675922962
4	117332	28180.484447435612	9.380161972523
4	117337	28183.173372725982	11.154036623892
4	117348	28186.603332973231	12.237250885884
4	117359	28188.472578561084	13.568465737744
4	117380	28193.450935863392	16.289252142321
4	117406	28194.613561498097	10.208839952078
4	117420	28203.234147741666	17.749158138967
4	117440	28206.700432878796	13.692338922078
4	117452	28208.098605239516	14.733859578107
4	117456	28209.163038888974	1.86720561355
4	117465	28212.535564308905	0.454877637127
4	117472	28216.018351256005	0.818322407545
4	117524	28233.664855653134	1.251164362213
4	117538	28240.453054839643	0.915990089178
4	117601	28263.268859545098	1.241004925214
4	117609	28264.904864598234	0.909422212225
4	117625	28274.525651724099	1.133651562114
4	117692	28287.833256715828	1.803686139581
4	117776	28305.722082653403	11.878679251529
4	117787	28307.641065397796	9.212365633722
4	117792	28308.253070597923	7.155382575548
4	117798	28309.727064976583	7.860204508452
4	117811	28315.283776575659	10.774764038572
4	117828	28317.564457714577	12.831030419727
4	117836	28319.302002324807	6.415859223251
4	117855	28322.878387229626	9.857758838842
4	117862	28324.725984310363	11.659798757792
4	117873	28330.132533605272	14.494681393878
4	117884	28338.408050888838	22.564851549075
4	117922	28346.936952977105	6.07668886949
4	117938	28353.866695931764	6.394836287654
4	117942	28354.851970285937	1.80392706598
4	117949	28355.381991719878	0.190217695583
4	118007	28367.183550621804	1.822213181139
4	118023	28370.963521558156	2.428949238793
4	118080	28382.047032270554	2.525824029627
4	118085	28382.240108031529	2.140791144949
4	118089	28382.412585248211	0.818456080923
4	118105	28389.642927230121	6.158125053135
4	118139	28398.258917277325	11.942036413443
4	118181	28405.577546669451	15.644142259009
4	118199	28409.807994442925	16.832077883317
4	118245	28419.68605524908	24.236042530274
4	118254	28421.801360007711	24.768547548103
4	118269	28425.821211961749	15.298773732424
4	118276	28426.12228908901	10.995214897845
4	118286	28426.329254807342	5.872153054235
4	118295	28428.979640686494	6.414499710443
4	118362	28438.787483662783	9.251073556605
4	118390	28448.80107623996	18.412694980802
4	118405	28452.356474214877	18.154201723529
4	118423	28454.962032453787	18.118407654499
4	118428	28456.410805484836	11.683525814594
4	118440	28463.407235623102	18.470920064249
4	118456	28465.080650445653	2.810620231965
4	118466	28466.025453282862	0.769297789847
4	118470	28466.723561805877	1.219909805631
4	118497	28479.780552956719	2.58434723699
4	118511	28481.467975695993	0.743465861497
4	118521	28483.693173883524	2.151773848101
4	118551	28497.870697582969	0.21413660816
4	118561	28499.388491299466	0.516335206423
4	118565	28499.437017898326	0.561046786836
4	118577	28502.519254716031	2.055884813516
4	118587	28505.47764634597	4.188419870789
4	118613	28510.125807809201	0.489904098273
4	118637	28516.706436254436	0.748652894902
4	118656	28521.754217050982	1.649629660048
4	118676	28530.917270397944	7.61869294473
4	118915	28589.613435636025	59.383518385787
4	118925	28591.835195247983	55.157716941524
4	118934	28597.193070299333	57.122551941419
4	118949	28601.28702535539	56.142218581729
4	118964	28604.311309368787	55.220441199781
4	118979	28605.09852420624	53.470977463394
4	118986	28607.259700989218	54.37835908573
4	119000	28609.067800926703	51.083125268016
4	119057	28619.911257940047	59.546053471435
4	119067	28621.859236783719	60.24906618725
4	119076	28623.678441591673	60.666594675837
4	119141	28635.713621865704	71.16601223519
4	119150	28639.448472473526	74.274754019631
4	119168	28640.463091701419	69.181012166821
4	119190	28643.415343500593	71.999840136881
4	119197	28644.822402504009	72.165919029499
4	119202	28645.464251734703	69.137461276201
4	119211	28647.092747451203	62.316945626339
4	119221	28651.325502044275	63.816705647052
4	119294	28668.893331422362	68.282517691772
4	119301	28670.101134205945	61.882534491284
4	119313	28671.982484630441	57.850843883196
4	119343	28681.047738729938	64.967486828581
4	119377	28689.301984163016	59.131414747977
4	119382	28690.72217255027	59.05896577945
4	119389	28691.182893778624	50.142964949311
4	119415	28694.821220799214	50.431436028118
4	119430	28696.841565126837	50.929677311321
4	119443	28698.438048818927	51.741444311666
4	119455	28701.03291457625	50.143148202774
4	119465	28703.411393113581	48.502754104902
4	119490	28705.344423618948	39.124147166817
4	119495	28706.817135167977	40.495103269861
4	119503	28708.153508383599	39.300720632917
4	119514	28709.605047780988	38.431538406998
4	119537	28713.229035389308	34.071835936747
4	119543	28714.477891641751	34.182311330819
4	119556	28719.874735913083	37.539358767466
4	119571	28722.719430687357	38.671552229766
4	119593	28728.310522820325	36.815262348242
4	119605	28730.739418311171	38.16418644558
4	119610	28733.116464770606	33.480915923578
4	119616	28734.808391403864	27.719126969035
4	119621	28735.149664522904	26.890625859904
4	119628	28737.400762997719	26.790824241366
4	119649	28747.517691720102	34.666365080839
4	119670	28750.687125149674	34.958488991497
4	119676	28751.313539213712	34.818682319157
4	119684	28752.599001849281	32.802940151096
4	119689	28753.181224714857	27.245488844364
4	119698	28754.227946243968	15.276867131048
4	119718	28759.996747298646	15.513633523401
4	119737	28762.542593483508	2.168275113822
4	119769	28766.700490568487	0.434967285946
4	119839	28791.029933827629	15.497336245751
4	119849	28798.392915136801	20.009944167685
4	119856	28798.641364530958	6.485820268663
4	119861	28799.994640976765	7.68755108896
4	119876	28806.325518380706	7.761522791624
4	119901	28813.152294551615	11.366690730288
4	119917	28814.916422478019	10.895853827425
4	119927	28815.678470705708	1.352755568284
4	119936	28819.111865446131	1.817815787244
4	119948	28821.13840527095	1.916209890942
4	119955	28822.545711929973	2.246636347406
4	119976	28828.878610743445	0.405249907248
4	119999	28833.554665210792	0.437598031949
4	120026	28837.990152576892	1.682348319652
4	120041	28843.865411269398	2.339174141145
4	120048	28845.797405951322	4.154370370306
4	120052	28846.739358067783	2.653126306459
4	120084	28860.895747524821	0.46165330059
4	120104	28869.846955572438	5.259692349303
4	120133	28879.937645265845	3.129364913873
4	120178	28888.610405233857	5.162057263192
4	120259	28905.086578688964	18.629031201096
4	120264	28905.300989665523	13.140584057688
4	120273	28908.603231905518	12.20330714179
4	120291	28912.342057774876	9.202570157979
4	120297	28914.746675025541	2.793081860622
4	120304	28922.319413036483	1.334225755506
4	120318	28932.584584104801	2.287550927144
4	120338	28934.444732576144	1.678565910283
4	120396	28944.303432876417	10.750994959071
4	120418	28951.458078394421	17.62504118533
4	120513	28970.553967903353	34.415599744079
4	120523	28972.861608988681	35.979354752143
4	120583	28988.677166223549	32.965988204999
4	120601	28992.470013036914	33.145609695419
4	120606	28992.760170422528	30.238723408949
4	120612	28996.091757458857	14.83421310582
4	120617	28996.205899117902	10.446992601301
4	120627	29001.312489450216	15.46471380211
4	120646	29004.131282698233	11.982022364819
4	120662	29009.885862431349	2.864818903289
4	120669	29011.775637349981	0.55880206883
4	120690	29023.052615600898	0.27896291624
4	120695	29023.170346570895	0.175403222175
4	120703	29026.013671683339	3.009189326895
4	120725	29032.067651991958	1.829126001099
4	120762	29040.276683848481	1.275147207268
4	120786	29042.267879074144	1.037402667971
4	120800	29046.846839655029	1.197521777459
4	120823	29051.963053181562	0.658520560031
4	120865	29068.478735377033	2.162843143911
4	120875	29070.032909694597	0.6136103714
4	120879	29070.159979221839	0.283680384423
4	120886	29071.605077094514	0.54118690768
4	120943	29086.939312221606	3.654243455404
4	121008	29099.609050232352	1.752145081247
4	121086	29123.368807853371	1.423553909767
4	121100	29126.039467299115	1.038130292799
4	121107	29127.08726227497	0.544879646422
4	121124	29138.783814648105	3.479479223946
4	121134	29139.660043363044	0.345894561433
4	121150	29151.378184981245	1.223906639749
4	121154	29152.076940333611	1.771116798597
4	121167	29155.585522608742	2.551910564475
4	121195	29163.106509372321	5.844390090178
4	121218	29165.351418511952	2.510860637256
4	121227	29166.931110528652	2.3783256412
4	121373	29198.897913341899	23.127327815333
4	121422	29205.288206512162	28.571981289401
4	121427	29205.478101261948	27.464688954424
4	121437	29207.057324162605	25.029071391569
4	121448	29207.624169857822	22.101134642351
4	121459	29212.980585043363	26.461654517554
4	121483	29216.807111706173	20.172162539487
4	121510	29220.529841465447	21.399541261974
4	121517	29223.183002508527	22.52613418336
4	121522	29223.380459739378	14.968740740082
4	121530	29229.702334345425	18.132835379882
4	121541	29232.300195833161	4.632246851801
4	121554	29233.236122056683	2.767779175042
4	121562	29234.841177887094	3.474591378935
4	121567	29235.050463972275	1.953832649934
4	121576	29236.653749115802	2.607222425751
4	121585	29238.078030162132	1.627575657186
4	121611	29246.527479228345	0.547886711677
4	121635	29253.379645751153	0.828465458865
4	121676	29261.135625112022	2.213021564696
4	121723	29275.505755284141	0.96947136115
4	121734	29279.666883906159	2.238193830715
4	121743	29282.531285557444	3.525285597399
4	121760	29288.444595746308	7.508847661705
4	121799	29298.102951914764	10.806685683295
4	121814	29306.253829139282	18.478611500396
4	121824	29306.887511466781	18.277314697074
4	121831	29308.291815563342	18.743530100071
4	121836	29309.613188715975	19.680235151659
4	121841	29309.91025602729	16.389569561185
4	121861	29318.263318341182	22.478108042131
4	121942	29341.269070129469	42.233346209505
4	121947	29341.525563409645	23.218994805624
4	121952	29342.494556568397	12.375575629238
4	121956	29342.850217988292	6.274657048896
4	121974	29344.955049909852	1.503669422122
4	121978	29345.43551718207	1.58246906445
4	121996	29348.906872216274	1.154763066918
4	122023	29366.069332318829	1.749931743629
4	122049	29370.829027718472	0.887449786917
4	122056	29371.88125715583	0.913149990212
4	122073	29378.634960368208	6.299423338916
4	122093	29384.906119572826	10.066409774017
4	122106	29389.29823184974	14.149248996037
4	122116	29390.640525656116	1.467000533525
4	122160	29401.249187442686	10.897369109222
4	122214	29416.375911807789	2.38142026108
4	122259	29428.22375539384	12.320267470035
4	122280	29434.768188244978	8.111333746625
4	122284	29434.920254326397	4.697091652058
4	122292	29436.779080109026	0.210610588215
4	122302	29438.956811537868	1.543159618934
4	122324	29448.498053757944	1.685049043287
4	122340	29453.946245533083	0.111669843455
4	122359	29456.585482975293	1.020733874386
4	122363	29456.794764575523	0.691158053636
4	122373	29460.248497362224	1.277959270553
4	122423	29468.421655622541	5.701493158361
4	122508	29488.172841584875	6.81931274799
4	122530	29497.817247116194	1.909615044607
4	122535	29499.087007758284	2.722794889168
4	122560	29506.531304735319	0.273205030373
4	122564	29507.750636064425	1.27831335964
4	122583	29513.634383694883	1.623837382377
4	122592	29515.196696447049	1.617285336955
4	122613	29519.50251039028	2.517116712829
4	122621	29522.507462207835	0.618591856941
4	122635	29526.530693019265	1.269055415614
4	122655	29530.028761202332	3.641895478173
4	122668	29541.436993721568	0.074409352859
4	122683	29547.924956796848	0.920079029177
4	122709	29555.313944176103	2.05474743328
4	122746	29558.686408453277	1.508028915801
4	122773	29563.775180566067	1.810563965443
4	122782	29564.875783720546	2.10404405649
4	122801	29568.115599067513	3.541206680435
4	122834	29574.939257341425	0.424504180177
4	122856	29579.788798620068	1.055257611089
4	122867	29580.797240540663	1.533417968316
4	122891	29593.647742720299	7.505036884346
4	122909	29595.565147203677	8.124490972481
4	122934	29598.94143229954	1.431124049062
4	122938	29599.211937990428	0.613090625274
4	122947	29600.816100261884	1.427450582475
4	122954	29603.228631968752	1.486504014099
4	122969	29609.715286702094	0.39473845099
4	122997	29618.776362679484	2.527263375018
4	123023	29620.6401389299	1.751077879454
4	123032	29630.164866616332	9.903228977901
4	123051	29631.472087591982	11.204471564703
4	123088	29637.554838348834	17.057543145207
4	123094	29639.055101913591	1.79568183474
4	123122	29647.42733558493	0.787360069866
4	123126	29647.541471123687	0.257964134195
4	123154	29655.39892920126	3.649120428023
4	123163	29659.407583940941	5.294765439378
4	123274	29681.112953093543	25.812422617333
4	123279	29681.463537648037	24.191388905597
4	123284	29681.922795177965	19.110249140204
4	123290	29682.968863487866	13.246636724605
4	123298	29685.036880149105	14.300196141269
4	123305	29688.58260232663	13.307303222284
4	123318	29689.932194795392	14.632872382541
4	123331	29695.948968600242	18.236873174891
4	123368	29708.306768363318	30.129347623835
4	123427	29722.107720737487	33.445347524084
4	123457	29727.326299736923	37.169359493373
4	123467	29728.193863881037	22.463677649566
4	123473	29728.918013563778	14.909405060929
4	123480	29729.772945037704	12.174283887752
4	123504	29737.327655749733	14.332397172685
4	123586	29753.953123615256	19.533965066963
4	123592	29755.235135318653	19.706299218431
4	123597	29756.397137565896	20.089562401589
4	123604	29758.230287439408	19.537207344807
4	123611	29758.97357934201	18.790781187366
4	123620	29761.486469751942	15.107373087582
4	123636	29764.266379683718	17.141005876907
4	123656	29767.755303809412	18.649988735121
4	123675	29770.230730201364	13.810459571519
4	123682	29770.559388848572	12.169183172127
4	123697	29773.460558980974	13.220753703403
4	123704	29776.196198402249	12.56968268182
4	123721	29781.05173284833	16.745293460331
4	123733	29781.368398314495	14.300253123098
4	123738	29781.983605801337	12.289207888793
4	123752	29786.843994171297	13.866895330265
4	123770	29789.309890897722	16.304450156827
4	123776	29789.630970630235	13.355822083445
4	123791	29792.885766703836	11.560562672666
4	123818	29797.943466400774	15.555386172041
4	123844	29800.811954534558	16.579337913945
4	123856	29806.117534125879	16.449273646634
4	123913	29818.886111511854	28.939199106432
4	123944	29825.920456579603	27.360613508129
4	123950	29826.629576780075	26.421648788467
4	123957	29828.494542281212	19.579560159835
4	123970	29830.783401479064	20.992715391914
4	123983	29834.613949967909	20.735755424063
4	124001	29838.310154618121	2.896028672628
4	124022	29841.452312051592	3.922876222738
4	124029	29841.673284596757	0.948776849482
4	124044	29844.53427584665	0.934600538517
4	124062	29846.098978064061	0.203029031437
4	124087	29851.043026089477	3.770992888052
4	124109	29853.530457417581	3.57904209094
4	124120	29855.822825967643	4.637772139465
4	124139	29861.660926213842	10.11828381889
4	124195	29871.480564585519	19.619191275566
4	124202	29874.082138662736	20.642043301009
4	124216	29876.475811608752	17.909223768805
4	124227	29878.451124743695	15.393685866096
4	124239	29883.41329311511	16.58126491957
4	124254	29888.329591490702	19.992471132256
4	124259	29888.555550102409	17.972678142182
4	124264	29891.236153607875	16.328538479692
4	124269	29891.800996816279	14.596656387507
4	124280	29895.379324491767	17.245962477108
4	124295	29905.7517569861	21.198833647746
4	124381	29922.761673912745	30.339604519601
4	124392	29924.564746227249	29.21198192097
4	124397	29925.495676886312	29.476259700016
4	124406	29930.469275919323	15.215983992966
4	124516	29960.517635047759	43.070893539101
4	124527	29962.517996866159	40.256689125628
4	124539	29963.867951766448	32.529528786824
4	124544	29963.940582220467	31.469096722494
4	124555	29966.863009745576	29.774219794574
4	124571	29968.107700674738	29.287678370545
4	124584	29972.718413429385	25.032287616443
4	124642	29986.345418338549	38.170696248334
4	124652	29986.453941233012	35.710386652198
4	124657	29986.538248177332	24.617902429943
4	124662	29987.141601499541	20.530909756762
4	124669	29988.591930720043	17.953291763406
4	124678	29992.1763962276	18.820177963142
4	124698	29995.095432083861	21.454272590401
4	124714	29999.43020953485	17.584979042082
4	124724	29999.792918732391	12.645928658826

