version 2
run Second-n3-8-20191016-17:03:56-11752
attr configname Second-n3
attr datetime 20191016-17:03:56
attr experiment Second-n3
attr inifile omnetpp.ini
attr iterationvars ""
attr iterationvarsf ""
attr measurement ""
attr network org.omnetpp.queueing.Pizza
attr processid 11752
attr repetition 8
attr replication ""
attr resultdir results
attr runnumber 8
attr seedset 8
param **.PS.maxInventoriedPS 3
param **.U1.interArrivalTime exponential(3s)
param **.U2.interArrivalTime exponential(5s)
param **.PS.serviceTimeForInventoryU1 exponential(1.0s)
param **.PS.serviceTimeForInventoryU2 exponential(1.2s)
param **.PS.serviceTimeDirectU1 exponential(1.4s)
param **.PS.serviceTimeDirectU2 exponential(1.4s)
param **.PS.probabilityProducing 0.7
param **.CS.serviceTimeU1 exponential(1.1s)
param **.CS.serviceTimeU2 exponential(1.4s)

vector 0 Pizza.EntryQueueU1 queueLength:vector ETV
attr interpolationmode sample-hold
attr title "queue length, vector"
vector 1 Pizza.CS queueLength:vector ETV
attr interpolationmode sample-hold
attr title "queue length, vector"
vector 2 Pizza.EntryQueueU2 queueLength:vector ETV
attr interpolationmode sample-hold
attr title "queue length, vector"
vector 3 Pizza.sink lifeTime:vector ETV
attr interpolationmode none
attr title "lifetime of arrived jobs, vector"
attr unit s
vector 4 Pizza.sink lifeTimeU2:vector ETV
attr interpolationmode none
attr title "lifetime of arrived jobs, vector"
attr unit s
vector 5 Pizza.sink lifeTimeU1:vector ETV
attr interpolationmode none
attr title "lifetime of arrived jobs, vector"
attr unit s
0	0	0	0
0	27	8.628696714091	1
0	29	9.727321125765	0
0	35	10.174590397189	1
0	37	10.239123504879	2
0	38	10.790743694833	1
0	44	11.51456524912	0
0	50	11.904980843317	1
0	51	11.961304285623	0
0	55	12.070918998277	1
0	61	13.00367749584	2
0	64	13.60893493195	3
0	66	15.349614271456	4
0	68	16.113400603584	5
0	69	16.780651126043	4
0	77	18.38479242826	5
0	78	19.271886733258	4
0	83	19.414640022062	3
0	89	19.656267555429	4
0	91	19.891356031963	3
0	97	20.618762960614	4
0	100	21.078437249214	3
0	105	21.750632918563	2
0	110	22.263973317392	1
0	117	24.70544073662	0
0	146	28.999778983897	1
0	148	29.628738815922	0
0	157	30.405985945836	1
0	159	30.896968589955	2
0	162	32.637392284633	1
0	169	36.503627228312	2
0	170	36.542576357354	1
0	175	37.871003886584	0
0	179	38.58148431867	1
0	182	40.089745621899	0
0	194	41.458740624777	1
0	197	42.075696697018	2
0	200	42.449836763885	3
0	201	43.120067089728	2
0	209	44.630703333514	1
0	214	44.667121907502	0
0	222	46.278655173353	1
0	223	46.616673480416	0
0	255	54.249210077223	1
0	256	54.315546638957	0
0	287	68.481209060734	1
0	288	68.585576981791	0
0	305	76.047136319651	1
0	306	76.965307334916	0
0	351	86.531722849554	1
0	355	87.493336985732	0
0	381	91.910885885985	1
0	382	92.204864356771	0
0	388	93.586849644748	1
0	389	93.605501875218	0
0	424	102.091486019278	1
0	427	102.243065439723	0
0	448	106.68295969361	1
0	449	106.767301693881	0
0	461	108.993498706148	1
0	466	111.39051065513	0
0	472	111.443778739258	1
0	474	112.425198091345	0
0	494	114.948617947771	1
0	497	118.627529024214	0
0	513	126.076686249158	1
0	514	126.854241764563	0
0	528	129.187693227275	1
0	529	129.896023266232	0
0	536	130.653956038176	1
0	537	132.086147604406	0
0	551	134.112252191142	1
0	552	135.137748204838	0
0	575	140.673896124821	1
0	576	140.902413748488	0
0	599	146.175426324366	1
0	601	146.983362103509	2
0	603	148.685523816638	3
0	605	149.426685769781	4
0	606	150.639400627375	3
0	611	150.970662221513	2
0	617	151.592681526961	1
0	624	153.09630389743	2
0	625	153.358834994668	1
0	632	156.285258968349	0
0	643	157.616196684026	1
0	644	157.789382609395	0
0	650	160.288254844569	1
0	651	160.456616477998	0
0	724	184.646214340354	1
0	726	184.809986175458	2
0	728	185.764648920388	3
0	730	186.04187954672	2
0	737	187.441210351945	3
0	738	187.491478022735	2
0	744	188.719244414941	1
0	749	188.95947102061	0
0	755	188.969528149906	1
0	760	190.84958316781	0
0	824	207.432893172136	1
0	826	208.17614700784	2
0	827	208.241537618424	1
0	833	208.809804637724	0
0	866	215.653822331368	1
0	868	220.75376638655	0
0	906	236.683364599061	1
0	909	237.868708657298	2
0	910	238.075059045433	1
0	916	238.713408191602	0
0	931	241.660083995628	1
0	932	243.632790304159	0
0	947	249.203492702841	1
0	950	250.766412065517	2
0	951	251.23418533279	1
0	956	251.646994038106	0
0	962	251.948740993199	1
0	963	252.228838838661	0
0	969	252.427542721078	1
0	970	252.636662117473	0
0	974	252.961165015427	1
0	976	253.944021585011	2
0	978	255.247282344692	3
0	982	255.975719236715	2
0	987	256.206019027181	1
0	992	258.808734888706	0
0	1010	267.372739218446	1
0	1011	268.388309731158	0
0	1065	286.112100749379	1
0	1068	287.388298180585	0
0	1084	289.970187362186	1
0	1085	292.868678834314	0
0	1096	293.52436976938	1
0	1098	293.538048143051	2
0	1099	294.166010602082	1
0	1105	294.335304062499	0
0	1138	300.592421058752	1
0	1139	300.71055724807	0
0	1158	306.687820239406	1
0	1161	307.871327555013	0
0	1168	308.533704785722	1
0	1169	309.017665174536	0
0	1203	318.65934614613	1
0	1205	318.716556669647	2
0	1206	318.724796402089	1
0	1212	319.693223594221	0
0	1244	325.137997043055	1
0	1245	325.184199136234	0
0	1270	335.108478366167	1
0	1279	338.456246861318	0
0	1288	339.478037265995	1
0	1291	340.945765939085	0
0	1320	346.518665201906	1
0	1321	346.651610641383	0
0	1336	348.489451728762	1
0	1338	350.47816753141	0
0	1351	353.138245752893	1
0	1353	356.058437809681	2
0	1355	356.113928081481	3
0	1357	356.562912902888	4
0	1358	357.351525193095	3
0	1363	357.431833776428	2
0	1368	358.569172303771	1
0	1376	359.718324872275	0
0	1395	362.944468719116	1
0	1396	363.135882209767	0
0	1424	370.174255636353	1
0	1427	375.137402763625	0
0	1434	376.219462242558	1
0	1435	376.513511906019	0
0	1441	376.72516286317	1
0	1445	378.410827308321	0
0	1451	378.974839549009	1
0	1453	379.674858707983	0
0	1479	382.895891045269	1
0	1482	384.807208431473	0
0	1528	398.566473572877	1
0	1530	399.353030299408	2
0	1531	399.429592315324	1
0	1537	399.531098664274	2
0	1539	400.626668609028	1
0	1545	401.063735506466	0
0	1576	407.025028186279	1
0	1579	407.178582066561	2
0	1582	407.525911748572	3
0	1584	407.962791068981	2
0	1590	408.83501611432	1
0	1595	408.993967474098	0
0	1601	409.50296179994	1
0	1603	409.685472143045	2
0	1606	410.510919047522	3
0	1607	411.42510571502	2
0	1613	412.607414872867	1
0	1619	412.660019165615	2
0	1620	414.025580326446	1
0	1625	415.782091423228	0
0	1671	426.972156223845	1
0	1672	427.20304972621	0
0	1773	454.81230558931	1
0	1774	456.1636002785	0
0	1789	463.332069525537	1
0	1791	463.88136025191	2
0	1792	465.823626679488	1
0	1797	465.963621370568	0
0	1803	466.098815514118	1
0	1806	466.372566845012	2
0	1809	466.861519693337	1
0	1814	467.551625014073	0
0	1822	468.081888369231	1
0	1823	468.417593445481	0
0	1852	472.423239590388	1
0	1855	474.997248294525	0
0	1869	476.673105947183	1
0	1871	477.33806761215	0
0	1933	490.935481319501	1
0	1935	491.244660377306	0
0	1957	494.20937060235	1
0	1959	494.542540501838	2
0	1960	495.705880349938	1
0	1967	496.295929428707	0
0	1979	498.155888947039	1
0	1980	498.244150487811	0
0	2021	505.983030982232	1
0	2026	507.705110816022	0
0	2038	508.173641525764	1
0	2040	510.625849585637	2
0	2042	511.116472689531	3
0	2043	512.311814717027	2
0	2050	513.585704127165	3
0	2053	514.933930505856	4
0	2054	515.836220472616	3
0	2059	515.887172391665	2
0	2066	519.361565649142	1
0	2071	520.483606252329	0
0	2111	533.315811595091	1
0	2112	533.901194180927	0
0	2136	537.121882483527	1
0	2139	538.417317973996	0
0	2163	543.113232159902	1
0	2165	543.215337729695	2
0	2167	543.566033928728	3
0	2171	544.778284256253	4
0	2173	547.049078813299	5
0	2174	550.175867721061	4
0	2180	550.195740575465	5
0	2182	550.38750506943	6
0	2186	550.897288395862	7
0	2188	550.913902758869	8
0	2189	551.359424433345	7
0	2195	551.438570702924	8
0	2196	551.95640207474	7
0	2202	552.321092683032	6
0	2207	553.776365267771	5
0	2213	554.394669573663	6
0	2215	554.810108240492	7
0	2216	554.861225580597	6
0	2221	557.214198785126	5
0	2228	559.219754729805	4
0	2233	559.974687895695	3
0	2237	561.823626516202	4
0	2241	562.761988620747	3
0	2246	563.062448865378	2
0	2250	563.110851554681	3
0	2252	565.244755979481	4
0	2255	567.343240769497	3
0	2260	567.945092553168	2
0	2264	568.459858881199	3
0	2268	570.704644901193	2
0	2274	570.761021426017	3
0	2280	572.768554992748	2
0	2285	573.464361010051	1
0	2291	574.602704328008	2
0	2292	574.822568186933	1
0	2298	576.167688764265	2
0	2300	576.277079797244	3
0	2301	577.516394409849	2
0	2305	578.420295714472	3
0	2309	578.75240585452	2
0	2316	579.446199730766	1
0	2320	580.91763704434	2
0	2322	581.138718540996	3
0	2325	581.767461200693	2
0	2332	585.737868502323	1
0	2340	587.082582722442	2
0	2342	587.49055620585	1
0	2348	588.446139354181	0
0	2355	589.704297857682	1
0	2356	590.672062755902	0
0	2368	591.999040019377	1
0	2370	592.776309709643	2
0	2373	593.635548377606	1
0	2378	593.881090028034	0
0	2407	601.147109984881	1
0	2415	602.856627941683	2
0	2417	603.053803758566	3
0	2418	603.105319591588	2
0	2425	604.291478012992	1
0	2432	605.958532307421	0
0	2444	606.577556332317	1
0	2447	607.101564452496	0
0	2453	607.568766256937	1
0	2454	609.096942438652	0
0	2470	609.742484061175	1
0	2472	610.43126795621	0
0	2481	611.683665526452	1
0	2489	614.571330789222	0
0	2498	616.035872217059	1
0	2501	619.840674893602	0
0	2517	622.967580040496	1
0	2520	623.661338895483	0
0	2543	631.210489075246	1
0	2544	631.305048463183	0
0	2560	633.244883390924	1
0	2566	634.207635421773	0
0	2634	657.198841119145	1
0	2637	657.460809599331	0
0	2650	659.132922259755	1
0	2652	660.185647406616	0
0	2666	666.104282995443	1
0	2670	666.645613823702	2
0	2671	667.149770124194	1
0	2680	669.701429694457	0
0	2707	672.010978782353	1
0	2709	672.171201879927	2
0	2711	673.859277837031	3
0	2712	677.331974699475	2
0	2717	677.638629534614	1
0	2722	677.772072961274	0
0	2746	683.45324483863	1
0	2747	683.614959438492	0
0	2763	687.694527712391	1
0	2765	687.852691730469	0
0	2771	688.331102012934	1
0	2772	689.738931485787	0
0	2812	702.198421898163	1
0	2815	702.399443152696	2
0	2816	704.490744511136	1
0	2822	704.928543357577	0
0	2892	729.230846208099	1
0	2893	729.371081717083	0
0	2914	731.252950731714	1
0	2919	734.385172540891	0
0	2961	743.026920109231	1
0	2962	743.400799175597	0
0	3019	759.366269205591	1
0	3021	759.814807763227	2
0	3024	760.140843476776	1
0	3030	760.595996553234	0
0	3042	764.652154048148	1
0	3045	765.358021766277	2
0	3046	765.579715496935	1
0	3051	766.209956508733	0
0	3065	766.770248109252	1
0	3067	767.913750714022	2
0	3068	768.178609248008	1
0	3074	768.279729179554	2
0	3075	768.351046341579	1
0	3081	768.99864651865	0
0	3088	771.240305190416	1
0	3089	771.599238379718	0
0	3122	778.835016423434	1
0	3123	779.819333036817	0
0	3167	794.669437950935	1
0	3173	796.799429661523	2
0	3175	797.758439655322	1
0	3180	798.591242602298	0
0	3193	799.262714411568	1
0	3194	800.057405970395	0
0	3201	800.398497986778	1
0	3210	803.679810799877	0
0	3237	808.839310555712	1
0	3239	809.008605580806	2
0	3242	810.077234076634	1
0	3250	811.607666048131	0
0	3266	815.453955327457	1
0	3268	816.108474267978	0
0	3280	816.893337872926	1
0	3282	817.286850909766	2
0	3283	818.894028537645	1
0	3291	820.267521973773	2
0	3295	822.738522405184	3
0	3299	823.386836777608	4
0	3300	823.96396543882	3
0	3305	824.539422383777	2
0	3309	824.877902538427	3
0	3314	826.131363318861	2
0	3323	829.482875933739	1
0	3329	830.741023471095	0
0	3344	832.192525686809	1
0	3345	833.23921801596	0
0	3359	834.406674854071	1
0	3361	835.223933346473	0
0	3373	836.363196947057	1
0	3374	836.426434749618	0
0	3390	837.595473180079	1
0	3392	837.599777896061	2
0	3395	839.673670539672	1
0	3401	839.815105724554	2
0	3402	839.827851077528	1
0	3407	840.352191667296	0
0	3423	850.929641610096	1
0	3424	851.887829866929	0
0	3433	852.281136158001	1
0	3437	854.431643851833	2
0	3440	857.104861745401	1
0	3445	857.127971900727	0
0	3457	857.545842857935	1
0	3459	857.613645588169	2
0	3460	857.650113086268	1
0	3465	858.062952966792	0
0	3476	860.318238949867	1
0	3477	860.600844390784	0
0	3494	863.738175341629	1
0	3496	864.222601128168	0
0	3512	864.504942050421	1
0	3514	865.169151689819	0
0	3538	869.399565765295	1
0	3539	869.641336382454	0
0	3572	874.550592981807	1
0	3574	875.154453154758	2
0	3578	876.808154546136	3
0	3579	877.596167449126	2
0	3586	878.354070423983	3
0	3589	879.263116899256	2
0	3595	879.954066754534	3
0	3596	881.083681630232	2
0	3604	883.467336066634	1
0	3612	884.617071329001	0
0	3650	895.068173901798	1
0	3651	895.159317772469	0
0	3666	905.081752947296	1
0	3669	905.590845035927	0
0	3695	913.322458512925	1
0	3697	913.385643831167	2
0	3700	914.857186592212	1
0	3707	915.087411115445	2
0	3711	915.612417971426	3
0	3712	915.629112092623	2
0	3717	916.35385749989	1
0	3726	917.690381811399	0
0	3760	927.268176411701	1
0	3769	928.506958870883	0
0	3787	932.043403392969	1
0	3790	934.183418966003	0
0	3796	934.277708369784	1
0	3798	934.381898289976	2
0	3799	934.543397209594	1
0	3804	934.928460719841	0
0	3810	935.316187238768	1
0	3814	936.18889623069	0
0	3829	940.094110094674	1
0	3830	940.809781820347	0
0	3836	940.921552324804	1
0	3838	941.612834894522	0
0	3847	942.334916219681	1
0	3850	945.252317412692	0
0	3858	946.507846564116	1
0	3861	947.704827618412	0
0	3867	948.102820699667	1
0	3869	949.129750204225	0
0	3882	950.565572896304	1
0	3883	951.072777416442	0
0	3896	953.464795059206	1
0	3898	954.463865706982	2
0	3901	955.142691456643	1
0	3909	956.796768426016	0
0	3932	962.769095597361	1
0	3934	964.090990037008	0
0	3940	964.480575734424	1
0	3941	965.002871980302	0
0	3958	968.607213472309	1
0	3959	970.459556467658	0
0	3997	983.910167680305	1
0	3999	983.935678824796	2
0	4001	985.474330971437	1
0	4007	987.411113624341	0
0	4028	990.616715406548	1
0	4030	991.112728816627	2
0	4031	991.217111277508	1
0	4038	992.543482608678	2
0	4042	993.186115281116	3
0	4043	993.781473670275	2
0	4050	993.936967688314	3
0	4052	993.93841891178	4
0	4054	993.943433707529	5
0	4057	996.017447812857	4
0	4067	997.85177645502	3
0	4073	998.101716115044	2
0	4078	998.510981597511	1
0	4084	998.81077259297	2
0	4085	998.915033867026	1
0	4090	999.33389433854	0
0	4096	1000.024885770608	1
0	4101	1001.58968156592	2
0	4103	1001.674246862377	3
0	4105	1003.636883030756	4
0	4107	1003.721842490283	5
0	4109	1004.34737510986	6
0	4110	1006.110975153718	5
0	4122	1008.847008117021	6
0	4123	1009.733119898522	5
0	4129	1009.849073264614	6
0	4131	1010.687780686403	7
0	4133	1010.86552624266	8
0	4134	1011.446479909472	7
0	4140	1012.148885887981	8
0	4141	1012.340950007915	7
0	4147	1012.738875954335	6
0	4153	1013.136597529521	5
0	4159	1013.206972620412	4
0	4164	1013.837060681369	3
0	4170	1015.549638791683	4
0	4172	1015.879901812045	3
0	4177	1016.329483547183	2
0	4184	1017.011530071356	3
0	4186	1017.513435655704	4
0	4191	1019.295430050014	3
0	4196	1019.614975954822	2
0	4204	1020.351018832285	1
0	4209	1021.102407215372	0
0	4229	1022.527360013148	1
0	4234	1023.221714478437	0
0	4245	1023.904023084647	1
0	4249	1024.431967409585	0
0	4258	1025.145323547041	1
0	4263	1026.405173967757	0
0	4272	1028.278339406333	1
0	4279	1031.010116827515	0
0	4289	1032.606596668751	1
0	4291	1032.808390969059	2
0	4294	1034.355910193335	1
0	4299	1034.698576938365	0
0	4319	1037.227553241627	1
0	4325	1039.929801298102	2
0	4326	1040.406735545495	1
0	4331	1040.872338463569	0
0	4349	1043.629289772891	1
0	4354	1045.970479476385	0
0	4375	1048.575462467119	1
0	4378	1050.424427091403	0
0	4389	1052.735182759575	1
0	4393	1054.104459146298	2
0	4394	1055.681670570974	1
0	4400	1056.405955546452	2
0	4402	1056.633789190029	3
0	4405	1057.225404265268	2
0	4410	1057.4508700599	1
0	4415	1059.383813061993	0
0	4437	1060.981602096679	1
0	4442	1063.211751674798	0
0	4465	1068.805038729831	1
0	4468	1069.531673595313	0
0	4506	1078.832248553712	1
0	4507	1080.14864038896	0
0	4521	1085.694385324662	1
0	4524	1087.126149857247	0
0	4531	1088.671577674463	1
0	4532	1088.861296386529	0
0	4538	1088.931048312601	1
0	4540	1089.336760100498	2
0	4541	1089.350192652775	1
0	4548	1090.039190350917	2
0	4552	1090.523327805747	1
0	4559	1091.434532910461	0
0	4565	1092.033895782599	1
0	4567	1092.173551757928	2
0	4568	1092.263949638371	1
0	4575	1092.97466293471	0
0	4584	1094.596444706736	1
0	4586	1094.939600618993	2
0	4593	1098.041554799648	3
0	4597	1098.857301483126	4
0	4600	1101.02029352601	5
0	4601	1104.102408127827	4
0	4607	1104.737222693379	5
0	4609	1104.970463961534	6
0	4611	1105.303052868673	5
0	4616	1105.599777208766	4
0	4622	1105.89886203991	5
0	4624	1106.773259706299	4
0	4629	1107.214056533391	3
0	4635	1107.842386555166	2
0	4643	1109.548472309876	1
0	4648	1109.565492238072	0
0	4652	1111.598509808884	1
0	4654	1112.751449329436	2
0	4659	1121.680350461129	1
0	4665	1121.871038672038	2
0	4668	1122.261786052178	1
0	4674	1124.210513078673	0
0	4686	1124.93877229642	1
0	4687	1125.627505400076	0
0	4691	1125.869807717211	1
0	4695	1128.154402603953	2
0	4696	1128.660220296006	1
0	4701	1130.79805808113	0
0	4723	1134.629650961333	1
0	4725	1134.636562158551	2
0	4726	1135.055988309733	1
0	4732	1135.454912950113	2
0	4734	1135.896903600497	1
0	4740	1137.142419996727	0
0	4765	1147.423861307534	1
0	4766	1149.284384745825	0
0	4779	1151.364717435425	1
0	4783	1152.880357317039	0
0	4890	1180.580581788059	1
0	4892	1181.153386151537	0
0	4929	1191.87311692989	1
0	4933	1192.159167752164	2
0	4936	1195.062461274552	1
0	4941	1196.169367476215	0
0	4952	1197.41343383554	1
0	4955	1197.751844749311	0
0	4962	1198.783665189598	1
0	4966	1200.902924695042	0
0	5003	1212.373939732522	1
0	5005	1213.477539711532	2
0	5006	1214.614587382886	1
0	5011	1214.716696719006	0
0	5018	1215.416203004924	1
0	5021	1215.87702600755	2
0	5023	1216.484607941362	3
0	5024	1216.897896007251	2
0	5030	1217.055833425954	3
0	5033	1218.860735157592	4
0	5034	1219.251763620862	3
0	5040	1219.474351724747	4
0	5041	1219.554713275976	3
0	5049	1221.348415533588	4
0	5050	1222.425297870485	3
0	5054	1223.494963049586	4
0	5058	1224.803502754796	3
0	5063	1227.087447641145	2
0	5067	1227.263388949192	3
0	5075	1229.948042028742	2
0	5080	1229.969582178427	1
0	5087	1230.418192149767	0
0	5121	1234.395887948837	1
0	5125	1235.126700539969	0
0	5139	1237.320510482736	1
0	5140	1237.709020176033	0
0	5154	1242.603291139635	1
0	5157	1244.97040889562	0
0	5171	1246.527538724399	1
0	5172	1247.161349299645	0
0	5182	1250.569631179571	1
0	5185	1251.418861796244	0
0	5191	1252.059916799237	1
0	5192	1252.263219070374	0
0	5203	1255.133033668436	1
0	5204	1255.761996929766	0
0	5229	1266.284419351374	1
0	5230	1267.239881132749	0
0	5237	1268.104310706343	1
0	5242	1268.811303606956	2
0	5243	1269.481429919994	1
0	5252	1273.884866836405	0
0	5269	1276.653853192551	1
0	5273	1277.9773662671	2
0	5275	1280.173670178217	3
0	5276	1281.18876178069	2
0	5284	1281.957512271881	1
0	5290	1282.455337628446	0
0	5299	1282.639582576943	1
0	5301	1285.282456612204	2
0	5303	1286.018971486414	3
0	5307	1288.408180621057	2
0	5313	1288.634484584661	1
0	5319	1289.907998544748	2
0	5321	1290.441988584535	3
0	5323	1291.919134647325	2
0	5330	1293.064734834378	1
0	5337	1294.761717811912	2
0	5338	1294.888256738559	1
0	5344	1294.890892123462	2
0	5346	1294.983817120998	3
0	5350	1296.9604228616	2
0	5355	1297.535516528743	1
0	5361	1299.074552890652	2
0	5362	1299.694816596199	1
0	5369	1301.938488473801	0
0	5406	1309.338521573747	1
0	5407	1309.513398034924	0
0	5430	1314.992620973251	1
0	5431	1315.337230450635	0
0	5469	1324.612302357761	1
0	5473	1324.841691922052	2
0	5476	1325.607882391438	1
0	5482	1326.209224784742	2
0	5487	1327.365702447683	3
0	5488	1327.923944481576	2
0	5493	1328.089413432838	1
0	5498	1328.239507499578	0
0	5517	1332.899437405281	1
0	5519	1334.206830738239	2
0	5520	1334.226660433987	1
0	5525	1334.259436745186	0
0	5532	1334.972449961514	1
0	5533	1335.202765277793	0
0	5539	1335.938476112431	1
0	5540	1336.212672747048	0
0	5544	1336.595615196078	1
0	5546	1337.409391458901	2
0	5548	1338.737421491886	3
0	5550	1338.806061597573	4
0	5553	1339.594749262528	3
0	5560	1340.02320523497	2
0	5567	1342.264700215719	3
0	5569	1342.920845744503	4
0	5570	1343.749894122197	3
0	5579	1345.231024706829	2
0	5588	1348.691457008096	1
0	5595	1350.752588740211	2
0	5596	1351.173696643372	1
0	5603	1353.454499326844	0
0	5607	1353.951804690107	1
0	5613	1357.944731769045	2
0	5617	1358.293749019278	1
0	5622	1359.299961264565	0
0	5626	1359.609835730083	1
0	5628	1360.288104925649	2
0	5630	1361.174528340108	3
0	5634	1361.542560869085	4
0	5636	1361.857855156287	5
0	5637	1362.291421524277	4
0	5644	1364.52395839902	5
0	5647	1366.374085134494	4
0	5652	1366.930690755583	3
0	5661	1367.557813821377	2
0	5666	1368.250084612289	1
0	5671	1369.310467944677	0
0	5678	1369.770854369474	1
0	5681	1370.973982104897	0
0	5688	1372.530843441801	1
0	5690	1373.412994908932	2
0	5691	1373.451594452531	1
0	5696	1373.917544893997	0
0	5719	1379.830497819029	1
0	5720	1380.122295664088	0
0	5733	1381.409542549385	1
0	5735	1381.908645352187	0
0	5741	1383.394338044761	1
0	5743	1384.045533517226	2
0	5744	1384.369151395058	1
0	5750	1385.712258545796	0
0	5770	1389.272139566643	1
0	5771	1389.669836966241	0
0	5820	1405.402992210572	1
0	5822	1405.896988797725	2
0	5824	1407.083367928567	3
0	5827	1407.874660167283	2
0	5834	1408.263749692232	1
0	5842	1408.943248929023	2
0	5843	1409.437919094023	1
0	5848	1409.698239351046	0
0	5908	1426.342589734257	1
0	5911	1427.392564803348	0
0	5939	1433.408393725611	1
0	5942	1434.390821616401	0
0	5946	1434.669049139042	1
0	5950	1435.457174948852	2
0	5958	1437.484518749371	3
0	5961	1439.05253396239	4
0	5963	1439.461451329549	5
0	5967	1441.647185307321	6
0	5968	1441.65745297651	5
0	5973	1442.058444313247	4
0	5982	1443.962847832466	5
0	5983	1444.172619369793	4
0	5989	1445.525785138415	3
0	5996	1445.750216051812	4
0	5997	1447.047269165949	3
0	6002	1447.416325055883	2
0	6007	1447.720442251821	1
0	6013	1447.906519452101	2
0	6016	1448.197024757251	1
0	6022	1448.21431461042	2
0	6025	1448.900169233628	3
0	6026	1448.906662257901	2
0	6034	1451.184685693878	1
0	6043	1452.691120680014	2
0	6047	1454.335429132659	1
0	6053	1455.804432535055	0
0	6060	1456.065595684908	1
0	6066	1457.952998508576	2
0	6068	1458.6700550298	3
0	6071	1462.744692111572	2
0	6076	1462.965696041087	1
0	6084	1464.150269917173	2
0	6087	1466.195109730073	1
0	6093	1466.636378277731	0
0	6100	1467.430615605614	1
0	6101	1468.231220324611	0
0	6128	1473.171615066807	1
0	6130	1473.385263601766	2
0	6133	1475.690316917075	1
0	6138	1475.691047047035	0
0	6144	1476.974116851349	1
0	6146	1477.280247825853	2
0	6148	1477.785391637357	3
0	6149	1478.751361648776	2
0	6154	1479.080690833663	1
0	6160	1480.650077356322	0
0	6189	1486.201826018449	1
0	6192	1486.769375301201	2
0	6194	1486.936902582579	3
0	6195	1487.175586957087	2
0	6200	1487.357534206262	1
0	6206	1487.696908804652	2
0	6209	1491.123300047401	1
0	6214	1491.128863468428	0
0	6218	1493.009633572888	1
0	6223	1493.645218394946	2
0	6224	1493.751861994472	1
0	6230	1494.254593733594	2
0	6233	1494.972366195959	3
0	6234	1495.151597894535	2
0	6240	1496.48572772084	1
0	6244	1497.679017176011	2
0	6247	1498.902200814806	1
0	6253	1499.8120960651	2
0	6255	1499.845022122267	3
0	6256	1500.031022136431	2
0	6262	1501.037777599712	3
0	6266	1502.630329490288	4
0	6267	1503.103805809432	3
0	6274	1503.619303336057	2
0	6280	1505.122900489922	1
0	6286	1505.405596396118	2
0	6292	1505.892396957301	1
0	6297	1506.494377375865	0
0	6335	1511.728856820171	1
0	6336	1511.793544469487	0
0	6352	1514.965408190047	1
0	6354	1515.652591342193	0
0	6365	1517.100339508301	1
0	6370	1518.162108366421	2
0	6374	1520.638787084063	3
0	6375	1521.681009427332	2
0	6380	1522.339063338897	1
0	6385	1522.629500535661	0
0	6393	1524.169466121698	1
0	6395	1524.854769989872	0
0	6414	1528.071016230042	1
0	6415	1528.414779296854	0
0	6424	1528.531383801381	1
0	6428	1532.273194649383	2
0	6431	1533.737006146349	1
0	6442	1534.973872951403	2
0	6443	1535.30598204872	1
0	6448	1535.437135998899	0
0	6456	1536.062253571081	1
0	6457	1536.175467184442	0
0	6472	1539.842744706304	1
0	6473	1540.226943256609	0
0	6484	1542.601662774921	1
0	6486	1542.756676986798	2
0	6489	1543.431396306257	3
0	6490	1543.459884631167	2
0	6497	1546.867581801647	3
0	6499	1547.482416934239	4
0	6501	1548.481822079054	5
0	6503	1548.780460702835	6
0	6504	1548.908841501916	5
0	6510	1550.694103098613	6
0	6512	1551.255501509445	7
0	6515	1551.686729418936	6
0	6524	1552.71765011729	7
0	6526	1553.576247884548	8
0	6527	1554.698949137181	7
0	6534	1555.142177366891	8
0	6536	1555.974257590512	7
0	6541	1557.662874573012	6
0	6547	1557.881500207215	7
0	6550	1559.717671823361	6
0	6555	1560.203864327767	5
0	6560	1560.598000081377	4
0	6566	1560.686882148017	5
0	6568	1561.174432723719	6
0	6572	1562.697775045658	5
0	6578	1562.873064885836	6
0	6580	1564.476887408336	5
0	6586	1564.69481652702	4
0	6591	1564.75812939679	3
0	6596	1565.093816920953	2
0	6601	1565.547450366659	1
0	6605	1566.068087815043	2
0	6608	1567.263111469831	1
0	6613	1567.514046430945	0
0	6617	1568.180928106078	1
0	6619	1569.721774894212	2
0	6621	1569.793330206713	3
0	6625	1569.89794046593	4
0	6626	1569.946923482485	3
0	6630	1570.096123861898	4
0	6636	1572.312114422218	5
0	6637	1573.076144012762	4
0	6642	1575.562553798778	3
0	6648	1575.721774463921	4
0	6650	1576.208256914241	3
0	6655	1577.799326725148	2
0	6659	1579.481380694112	3
0	6665	1581.932328373883	2
0	6671	1583.09283288503	1
0	6676	1583.13402843632	0
0	6680	1584.142751537427	1
0	6683	1586.011077361749	0
0	6687	1586.137281814808	1
0	6691	1586.44358674318	2
0	6694	1587.022993129975	3
0	6695	1588.841353098401	2
0	6700	1588.872308373811	1
0	6707	1590.752346229961	0
0	6711	1591.149410811588	1
0	6713	1593.435874904889	2
0	6718	1594.556169996108	1
0	6724	1595.461276188463	0
0	6750	1598.053145143501	1
0	6752	1599.064664485039	0
0	6788	1603.89514263209	1
0	6791	1606.182198667819	0
0	6827	1613.786064751415	1
0	6830	1614.205708484838	2
0	6831	1614.363630942024	1
0	6836	1614.475104902071	0
0	6917	1635.825513669686	1
0	6918	1636.522908106515	0
0	6924	1637.647460188585	1
0	6925	1638.124980051788	0
0	6956	1648.975624281697	1
0	6957	1649.692760803252	0
0	7004	1658.367583489346	1
0	7005	1658.722773743111	0
0	7044	1673.167708924651	1
0	7045	1674.809394979503	0
0	7100	1687.177343852436	1
0	7101	1688.072536159712	0
0	7107	1689.120867408761	1
0	7109	1690.244132345388	0
0	7122	1690.6297214212	1
0	7125	1691.063225471159	0
0	7134	1693.137046196213	1
0	7135	1693.388346835546	0
0	7143	1694.299065774464	1
0	7145	1695.082765476555	2
0	7146	1695.529680231761	1
0	7152	1695.725272385226	0
0	7211	1706.486426136933	1
0	7212	1706.969175724292	0
0	7226	1708.689133125548	1
0	7227	1709.189143417885	0
0	7252	1713.435781883776	1
0	7253	1713.743961215411	0
0	7269	1718.589206127442	1
0	7271	1720.365243616061	2
0	7275	1722.588183377838	3
0	7276	1723.753255195719	2
0	7282	1723.7687194304	3
0	7284	1724.932797303491	2
0	7289	1725.592106107068	1
0	7294	1727.072774949917	0
0	7298	1727.399138415537	1
0	7302	1728.307847642303	2
0	7304	1728.423675791852	3
0	7307	1730.471097503281	2
0	7315	1732.239128343168	3
0	7317	1733.684378372593	4
0	7318	1734.322689022418	3
0	7325	1734.54680346582	4
0	7330	1738.909700025986	3
0	7335	1739.032315355254	2
0	7341	1739.770971775211	3
0	7342	1740.076754161475	2
0	7348	1740.195831758208	3
0	7352	1741.598450084355	2
0	7357	1741.856011523772	1
0	7363	1742.849023070858	0
0	7369	1743.18174721734	1
0	7374	1744.340572828456	0
0	7386	1749.283496047083	1
0	7388	1750.561774876467	2
0	7389	1751.589578293224	1
0	7394	1753.916206977108	0
0	7411	1755.013603396514	1
0	7413	1755.261900822773	2
0	7414	1755.450078044974	1
0	7419	1755.706578291614	0
0	7431	1757.150527133551	1
0	7432	1757.855322337718	0
0	7470	1766.34813925609	1
0	7479	1770.715061733731	0
0	7485	1771.814179872196	1
0	7486	1772.174412951975	0
0	7505	1774.979982083066	1
0	7514	1781.104166078628	0
0	7522	1783.053524779633	1
0	7524	1783.412456940812	0
0	7530	1783.686180258319	1
0	7532	1784.275550951265	2
0	7534	1785.381881216588	1
0	7540	1785.809940870392	0
0	7546	1785.991276026805	1
0	7549	1786.57514573404	0
0	7597	1797.982630474432	1
0	7599	1799.038168726618	0
0	7605	1799.262784061745	1
0	7607	1800.585362686917	0
0	7620	1802.265049318528	1
0	7623	1803.722282581637	0
0	7665	1808.703015793872	1
0	7666	1808.82754676347	0
0	7683	1812.044535933707	1
0	7686	1812.128548020427	0
0	7692	1812.129208967549	1
0	7694	1812.256457394026	2
0	7696	1812.328180449927	3
0	7699	1813.019334131003	4
0	7700	1813.664296640377	3
0	7705	1814.938382271978	2
0	7711	1817.982549821059	3
0	7713	1818.056754010299	4
0	7715	1820.110610192894	5
0	7722	1822.211758421063	4
0	7726	1822.91767841538	5
0	7732	1824.016969432392	6
0	7733	1824.316706799259	5
0	7737	1824.348459840634	6
0	7743	1825.45442922181	7
0	7744	1826.111614247692	6
0	7749	1826.204102283437	5
0	7758	1828.159703665926	4
0	7764	1828.598272796319	5
0	7768	1830.467799252494	6
0	7770	1832.876178547699	5
0	7775	1833.872035430564	4
0	7780	1834.414417486921	3
0	7786	1836.553909953276	2
0	7790	1836.704130937507	3
0	7796	1839.229230790453	2
0	7801	1839.668271223522	1
0	7809	1840.450215262884	2
0	7811	1840.476311713988	3
0	7812	1841.175860221926	2
0	7817	1843.753346208467	1
0	7822	1844.140505176632	0
0	7826	1844.756997269608	1
0	7830	1845.995807271642	0
0	7841	1846.209724278422	1
0	7842	1846.452718884403	0
0	7882	1855.76044729708	1
0	7885	1856.8946326458	0
0	7891	1856.945305491629	1
0	7893	1857.226090893297	2
0	7898	1858.92798608545	1
0	7905	1861.565917634964	0
0	7939	1870.10809633751	1
0	7940	1871.084365079183	0
0	7962	1877.615053344682	1
0	7966	1880.10265918297	2
0	7968	1880.631163681559	3
0	7969	1881.053784095401	2
0	7974	1882.126090365749	1
0	7979	1882.862457608005	0
0	7991	1885.467380170472	1
0	7994	1885.926716616618	0
0	8003	1886.80161051736	1
0	8011	1888.469649785836	0
0	8024	1891.290680308179	1
0	8026	1894.844081792043	2
0	8027	1895.088071272631	1
0	8033	1895.605611651198	2
0	8036	1896.700041351807	1
0	8044	1898.518149917378	2
0	8045	1899.721625080922	1
0	8051	1899.878239608969	2
0	8052	1900.556152068461	1
0	8057	1900.73621277734	0
0	8063	1901.281338539318	1
0	8064	1901.501371671838	0
0	8070	1901.715588982474	1
0	8071	1901.86250813685	0
0	8077	1905.107030653362	1
0	8082	1907.381626991	0
0	8105	1909.933860738845	1
0	8106	1910.865584934073	0
0	8110	1910.917343189217	1
0	8119	1915.27410943092	0
0	8125	1916.235693331194	1
0	8126	1917.003780533478	0
0	8134	1919.955819716202	1
0	8135	1920.174229681765	0
0	8141	1920.251126878941	1
0	8142	1920.254628188835	0
0	8166	1924.647913983359	1
0	8167	1925.827913911023	0
0	8180	1927.318110319968	1
0	8181	1929.620346395044	0
0	8190	1929.932328626426	1
0	8194	1932.584493977744	2
0	8197	1933.941337024589	1
0	8204	1935.068902291793	0
0	8210	1935.268171487709	1
0	8212	1936.357522210435	2
0	8215	1936.610649975096	3
0	8218	1937.196530165582	4
0	8220	1940.438524700594	5
0	8221	1940.704102088684	4
0	8227	1940.706691620749	5
0	8229	1941.067710782478	6
0	8230	1941.126751249787	5
0	8236	1941.163544251899	4
0	8241	1941.309011171333	3
0	8245	1943.46466864838	4
0	8247	1944.102498097205	5
0	8251	1944.82704921032	4
0	8258	1945.288674243244	5
0	8259	1945.562204669123	4
0	8264	1945.765030220773	3
0	8270	1947.529993996034	4
0	8272	1949.204049624085	3
0	8280	1951.442574002065	2
0	8284	1951.645670651814	3
0	8289	1953.394535600581	2
0	8293	1954.500894295812	3
0	8295	1954.82134052287	4
0	8297	1955.150663563319	5
0	8301	1955.95863828782	4
0	8308	1956.317123644334	5
0	8309	1956.760031951277	4
0	8314	1958.478535986963	3
0	8319	1959.440390904635	2
0	8323	1959.774550931419	3
0	8325	1959.84180256562	4
0	8327	1960.811433985126	5
0	8330	1962.546587469259	4
0	8334	1963.140554757055	5
0	8339	1966.190984897274	4
0	8344	1967.348362738293	3
0	8348	1967.894604780626	4
0	8351	1968.144363354963	3
0	8355	1971.480569570228	4
0	8357	1971.894126132236	5
0	8359	1972.712448702841	6
0	8362	1975.117392661954	5
0	8366	1975.808377048229	6
0	8371	1977.304146540165	5
0	8375	1978.733340069217	6
0	8378	1980.321615041871	5
0	8382	1980.973771144999	6
0	8384	1981.667777306062	7
0	8386	1982.750682571774	8
0	8390	1983.338847902121	7
0	8398	1985.175938747026	6
0	8406	1986.700558578264	5
0	8412	1987.058981453359	6
0	8413	1989.256163147247	5
0	8418	1989.906198072735	4
0	8423	1990.001735082324	3
0	8428	1991.64284404979	2
0	8434	1993.289770875561	3
0	8435	1993.935517784176	2
0	8441	1995.318974232934	3
0	8443	1995.570959025943	4
0	8444	1995.614629568436	3
0	8449	1996.124624623681	2
0	8453	1997.269835894953	3
0	8455	1997.301024242196	4
0	8459	1997.969991581379	3
0	8466	1999.458950340274	2
0	8473	2001.558882248131	3
0	8476	2001.77733380924	4
0	8479	2002.675214712786	3
0	8484	2003.868360887212	2
0	8490	2004.175395385077	3
0	8494	2005.802246583173	4
0	8497	2007.692370187853	3
0	8504	2008.368313340808	2
0	8511	2008.922057321344	1
0	8516	2009.685128450086	0
0	8522	2013.087243481609	1
0	8523	2014.789865835162	0
0	8529	2016.267265190878	1
0	8533	2018.460790073169	2
0	8534	2018.593985242358	1
0	8539	2019.159617861427	0
0	8553	2020.316920462373	1
0	8554	2020.558398074384	0
0	8574	2025.283579386585	1
0	8575	2025.415814005353	0
0	8581	2025.761464150103	1
0	8583	2027.598321571881	0
0	8594	2028.922517135287	1
0	8596	2029.927991220519	0
0	8606	2032.454078190317	1
0	8609	2033.564579918688	0
0	8615	2034.546096297246	1
0	8618	2034.947286957116	2
0	8619	2034.994386154255	1
0	8625	2036.959255739026	0
0	8645	2041.431791256473	1
0	8646	2044.704863497014	0
0	8668	2047.945103818102	1
0	8669	2048.909701258227	0
0	8675	2049.171417401017	1
0	8677	2049.567982310316	2
0	8679	2050.453185310975	1
0	8685	2051.321436009964	0
0	8723	2060.217589910333	1
0	8726	2061.359273856236	2
0	8727	2061.38220409918	1
0	8732	2061.852306341451	0
0	8739	2061.997651485425	1
0	8741	2062.50632890273	0
0	8750	2063.204990202455	1
0	8752	2064.478711349078	2
0	8753	2064.990783193198	1
0	8758	2065.792079783982	0
0	8764	2065.897737084714	1
0	8768	2067.437807524768	2
0	8769	2068.266325766297	1
0	8775	2068.830245090759	2
0	8777	2069.433001184237	1
0	8782	2069.492166584071	0
0	8809	2073.081682674572	1
0	8811	2073.158024178232	2
0	8812	2074.70312630897	1
0	8819	2076.790819083013	0
0	8849	2081.043406335493	1
0	8852	2083.805792616659	0
0	8864	2086.08619963568	1
0	8868	2086.459645399151	2
0	8869	2086.848471251515	1
0	8874	2087.194847429574	0
0	8883	2087.775923974197	1
0	8886	2088.678241755336	0
0	8897	2094.123892653286	1
0	8899	2095.992118698883	2
0	8901	2096.452449672322	3
0	8913	2099.580961254113	4
0	8915	2099.728282546698	3
0	8922	2100.170385779853	4
0	8925	2100.599803986385	5
0	8929	2102.108382740053	4
0	8935	2102.229536099657	5
0	8936	2102.385710883001	4
0	8941	2102.668321344794	3
0	8948	2103.520918420509	2
0	8953	2103.721074357673	1
0	8962	2104.450754000986	0
0	8975	2106.307195377197	1
0	8976	2107.330469137646	0
0	8982	2107.606230770229	1
0	8983	2107.657652437302	0
0	9021	2116.268363805351	1
0	9023	2116.292590326995	2
0	9024	2117.24960541898	1
0	9029	2117.821387991866	0
0	9048	2120.390308622201	1
0	9050	2121.642436917567	0
0	9060	2123.473113174563	1
0	9062	2124.277983143316	2
0	9065	2124.952224815138	1
0	9070	2125.336866631754	0
0	9080	2125.817360473905	1
0	9084	2127.410553135288	0
0	9093	2129.250287952436	1
0	9099	2131.452867144237	2
0	9101	2131.500170929129	3
0	9103	2132.262542298162	4
0	9105	2133.044641239333	3
0	9113	2133.653063547015	2
0	9120	2134.134429589677	1
0	9125	2134.173074250813	0
0	9133	2136.608975034262	1
0	9135	2137.091330898805	0
0	9158	2142.687681952324	1
0	9160	2143.446611011538	2
0	9164	2143.732291847893	3
0	9165	2144.548258456461	2
0	9170	2145.05665817758	1
0	9176	2145.852588776453	0
0	9189	2147.146612102364	1
0	9190	2147.478635790831	0
0	9232	2157.836669492872	1
0	9233	2159.451333729443	0
0	9251	2162.811711375362	1
0	9252	2162.875304108339	0
0	9370	2203.472347927388	1
0	9371	2203.704978350884	0
0	9402	2211.476996872703	1
0	9403	2213.189841456636	0
0	9416	2215.262006699562	1
0	9419	2216.974122434844	2
0	9421	2217.184427765811	3
0	9422	2219.023138513085	2
0	9427	2219.436419338121	1
0	9432	2220.374449493077	0
0	9436	2220.56386226935	1
0	9438	2221.530128510613	2
0	9442	2222.134864761661	1
0	9448	2223.857364800746	2
0	9449	2225.952988623489	1
0	9456	2227.083397949759	0
0	9476	2229.263880973478	1
0	9477	2229.800618261227	0
0	9500	2232.463641813543	1
0	9501	2233.082215388682	0
0	9549	2257.764250083286	1
0	9551	2259.027387088213	2
0	9553	2260.085576508669	3
0	9555	2260.884030409252	4
0	9556	2261.401303908498	3
0	9562	2262.176331245685	2
0	9569	2263.903147652973	1
0	9575	2264.510275363897	2
0	9576	2265.779470741835	1
0	9583	2267.081708467663	0
0	9628	2275.829530966427	1
0	9631	2276.547159005566	0
0	9638	2276.992441214035	1
0	9640	2277.557624981191	0
0	9671	2287.868485697026	1
0	9675	2289.805222120229	0
0	9706	2295.548851539398	1
0	9708	2295.8960358088	0
0	9724	2301.957120779097	1
0	9725	2302.384306673145	0
0	9742	2306.267005974729	1
0	9743	2306.975516798687	0
0	9749	2307.100500790268	1
0	9753	2309.610043556508	2
0	9755	2310.366515987732	3
0	9758	2311.783265186046	2
0	9763	2311.8059023126	1
0	9770	2313.452974717913	2
0	9774	2315.80532555546	1
0	9782	2317.136247776803	2
0	9783	2318.0892546882	1
0	9788	2318.444222165518	0
0	9799	2319.765175182271	1
0	9801	2320.776754209958	2
0	9803	2321.67663335694	3
0	9807	2326.32662875325	2
0	9817	2330.396449271797	1
0	9822	2330.80815123442	0
0	9828	2331.598319720879	1
0	9830	2331.668790493981	2
0	9831	2331.871535882511	1
0	9837	2332.068760654574	2
0	9840	2332.813172727486	1
0	9846	2334.863494564035	2
0	9848	2336.104723656247	3
0	9852	2336.706964771047	4
0	9856	2337.17951217208	3
0	9862	2337.56035062583	4
0	9863	2337.842643026345	3
0	9868	2338.227252980158	2
0	9876	2340.69959331843	1
0	9882	2340.790114016988	0
0	9904	2344.586042398184	1
0	9905	2344.804421669721	0
0	9909	2345.496190223386	1
0	9913	2346.174329216149	2
0	9921	2349.469769355879	1
0	9926	2349.530392564636	0
0	9944	2353.406203711105	1
0	9954	2356.460591147437	2
0	9957	2356.80973965088	3
0	9959	2359.489529108454	4
0	9962	2360.699758342859	3
0	9967	2360.907227803279	2
0	9973	2361.216474615485	1
0	9979	2361.46118128933	2
0	9980	2363.119684691683	1
0	9986	2364.578165074742	0
0	9990	2365.369286467738	1
0	9993	2366.045625106409	0
0	9999	2368.172610166599	1
0	10001	2368.248538389499	2
0	10002	2369.384671458198	1
0	10008	2372.626836533754	0
0	10031	2378.379240257893	1
0	10032	2378.745995314128	0
0	10081	2388.79487073153	1
0	10083	2389.761227028738	2
0	10086	2391.147385420978	1
0	10091	2391.94336658041	0
0	10102	2393.442327669237	1
0	10107	2395.011525354805	0
0	10116	2396.039191499288	1
0	10117	2396.047984382459	0
0	10132	2397.623474909284	1
0	10134	2398.05672259697	0
0	10156	2402.430124860026	1
0	10160	2406.09976321726	2
0	10161	2408.371988938399	1
0	10166	2408.629615369693	0
0	10191	2415.34048398494	1
0	10194	2417.307191018783	0
0	10204	2419.8814821141	1
0	10209	2421.180420011038	0
0	10221	2421.67594170254	1
0	10222	2421.679974721178	0
0	10230	2422.798960225251	1
0	10232	2422.940492232318	2
0	10234	2425.261213308365	1
0	10240	2425.630008678864	0
0	10271	2435.123847050985	1
0	10275	2439.37848124019	0
0	10281	2439.409712040873	1
0	10282	2441.198225277481	0
0	10312	2452.419253359615	1
0	10316	2452.630098786541	0
0	10328	2454.466154774433	1
0	10329	2455.335441729161	0
0	10385	2466.304796850948	1
0	10386	2467.135746960146	0
0	10409	2470.652802656152	1
0	10410	2470.734805888973	0
0	10418	2471.040661956129	1
0	10420	2471.277566520627	2
0	10423	2471.505147772959	3
0	10426	2473.039159973446	2
0	10432	2473.405234226509	1
0	10437	2473.469939377939	0
0	10443	2473.784356774905	1
0	10444	2474.172617480294	0
0	10524	2494.929933259163	1
0	10525	2495.177423534449	0
0	10546	2497.336987562283	1
0	10549	2497.919785784424	0
0	10556	2499.155059308891	1
0	10558	2499.958526198651	2
0	10560	2500.857790771824	1
0	10565	2501.002684968438	0
0	10572	2502.514768345395	1
0	10574	2502.81703510866	2
0	10578	2504.3164030327	1
0	10583	2504.451218616728	0
0	10594	2505.937207384851	1
0	10596	2507.525173254799	0
0	10621	2511.144234201444	1
0	10623	2513.079772150534	2
0	10631	2515.086444443386	1
0	10639	2517.54447196751	0
0	10645	2517.630799779899	1
0	10649	2518.467343826249	0
0	10658	2519.024091991372	1
0	10662	2520.90185461939	0
0	10696	2526.32774201632	1
0	10697	2526.511212282159	0
0	10711	2528.265553965052	1
0	10713	2528.532612250593	2
0	10714	2528.840178058599	1
0	10721	2530.161494166738	2
0	10724	2530.385854782094	3
0	10725	2530.668779708469	2
0	10730	2530.868200867391	1
0	10737	2531.227432279207	0
0	10765	2537.939028635974	1
0	10768	2540.256720986045	0
0	10775	2540.722913164894	1
0	10776	2541.712975249368	0
0	10804	2553.603638308401	1
0	10807	2554.337034661951	0
0	10821	2558.250501109095	1
0	10823	2558.344340485654	0
0	10837	2561.036136655298	1
0	10839	2563.132219177287	0
0	10876	2572.430716207858	1
0	10879	2573.287880060847	2
0	10884	2574.90568970826	3
0	10886	2575.129139961266	4
0	10888	2575.245427214072	5
0	10889	2576.552098459197	4
0	10894	2576.60104638502	3
0	10899	2577.091134479158	2
0	10908	2578.341367566642	1
0	10914	2578.363192831889	2
0	10918	2579.272450432984	3
0	10924	2579.727957260284	4
0	10926	2579.765074986361	5
0	10928	2579.892581109814	4
0	10936	2580.63367448226	5
0	10938	2581.549511406022	4
0	10944	2581.884820233376	5
0	10946	2582.003863175871	6
0	10947	2582.120755301641	5
0	10952	2582.164975313421	4
0	10957	2582.178192353947	3
0	10961	2582.926030612468	4
0	10967	2585.299070105352	3
0	10974	2587.781765780386	4
0	10976	2587.854589848475	5
0	10978	2588.089532080771	6
0	10979	2588.693603972677	5
0	10984	2588.836680670028	4
0	10991	2592.0356764505	3
0	10998	2592.756982234299	4
0	11001	2593.889138437879	5
0	11004	2594.650220805374	4
0	11013	2595.581361654862	3
0	11021	2596.30928483729	2
0	11026	2596.45566387093	1
0	11033	2600.106974037396	0
0	11081	2608.133078315859	1
0	11083	2610.402597739775	2
0	11085	2611.871251969903	3
0	11086	2614.366326492929	2
0	11091	2614.873777776643	1
0	11099	2616.704991908451	2
0	11100	2616.914158860069	1
0	11105	2617.389273679616	0
0	11128	2626.115719741597	1
0	11131	2626.774386607859	0
0	11177	2640.891762059528	1
0	11182	2641.191281643183	0
0	11194	2642.8501771496	1
0	11197	2644.456353282007	0
0	11209	2645.707546773556	1
0	11210	2645.874016212975	0
0	11218	2647.919646755562	1
0	11219	2648.201972491233	0
0	11227	2650.023109508267	1
0	11228	2650.770736940681	0
0	11247	2655.35373792942	1
0	11250	2658.094515940332	0
0	11261	2659.977838383748	1
0	11262	2660.067355222314	0
0	11311	2673.926957259653	1
0	11316	2675.536137537573	0
0	11323	2676.580830123221	1
0	11324	2676.890919087686	0
0	11339	2679.440061030423	1
0	11344	2681.59252732446	2
0	11348	2685.63010773518	3
0	11350	2685.668923211275	4
0	11351	2686.060938143142	3
0	11356	2686.141986704093	2
0	11361	2686.875135182068	1
0	11366	2687.636892850039	0
0	11384	2690.788397596594	1
0	11389	2692.972407721053	2
0	11390	2693.058565592413	1
0	11399	2694.778795738451	0
0	11410	2695.214567934049	1
0	11411	2695.269612208206	0
0	11417	2695.688801699553	1
0	11419	2696.962457695197	0
0	11439	2702.541518112592	1
0	11441	2703.226795105107	2
0	11442	2703.810912157752	1
0	11447	2704.264586592085	0
0	11456	2706.247600812448	1
0	11460	2707.786246166506	2
0	11461	2707.892235616125	1
0	11470	2709.017173056317	2
0	11472	2709.570218426341	1
0	11478	2710.043113558832	2
0	11485	2712.104704606751	1
0	11490	2712.215986463526	0
0	11518	2717.385284727603	1
0	11523	2719.980013470298	2
0	11525	2720.708259688966	3
0	11526	2720.862429219606	2
0	11531	2721.024645675015	1
0	11537	2722.121430633202	2
0	11538	2722.185176062564	1
0	11545	2724.407912725461	2
0	11546	2724.509166413407	1
0	11556	2725.54840849693	0
0	11575	2726.089468914894	1
0	11578	2726.69007443041	2
0	11581	2727.706164957519	1
0	11587	2728.25127369325	0
0	11596	2729.972823025826	1
0	11597	2730.891655441712	0
0	11611	2735.765980945464	1
0	11612	2736.479643826999	0
0	11621	2736.74112169595	1
0	11625	2738.134754800259	0
0	11631	2738.245657282297	1
0	11632	2739.670063816254	0
0	11640	2740.775202034872	1
0	11641	2741.859597612776	0
0	11689	2751.721947827051	1
0	11690	2752.321007821002	0
0	11712	2760.354034794934	1
0	11713	2760.832124126328	0
0	11727	2762.38888857258	1
0	11728	2763.359206161803	0
0	11740	2765.809340226038	1
0	11742	2766.105559413602	2
0	11746	2766.781026088049	3
0	11748	2766.971152752424	4
0	11749	2767.033930326642	3
0	11754	2767.92275227734	2
0	11760	2767.977566739704	3
0	11762	2770.241148034765	4
0	11764	2770.323686819359	5
0	11766	2771.198276205889	6
0	11767	2772.002229384321	5
0	11772	2772.016329073408	4
0	11779	2775.289549609026	3
0	11785	2776.343747537189	2
0	11790	2776.850104013585	1
0	11797	2779.412291125336	0
0	11801	2779.742379216435	1
0	11803	2781.65454576382	2
0	11807	2785.658717219264	1
0	11812	2786.571667748557	0
0	11816	2787.745133295411	1
0	11818	2788.651413148479	2
0	11824	2790.055823542075	1
0	11829	2790.38497614685	0
0	11835	2791.789239337122	1
0	11836	2793.006875890824	0
0	11855	2795.53124476595	1
0	11857	2795.692681414771	2
0	11862	2797.049889167402	3
0	11863	2797.310110964677	2
0	11868	2797.436090321168	1
0	11875	2797.951689767397	0
0	11881	2798.519642330345	1
0	11888	2802.799294122459	0
0	11934	2813.984679032209	1
0	11938	2814.168409385849	2
0	11940	2814.351839939485	3
0	11942	2815.462847371811	4
0	11946	2816.041578306413	3
0	11952	2816.203583924349	4
0	11954	2817.169958904949	5
0	11957	2817.718333162551	4
0	11963	2818.282466802641	3
0	11968	2819.016316593675	2
0	11973	2819.429775884514	1
0	11978	2819.47082192166	0
0	11998	2825.413253393711	1
0	11999	2825.521012624196	0
0	12014	2830.570648790273	1
0	12017	2832.867812262424	2
0	12019	2833.285457032391	3
0	12020	2833.541692977687	2
0	12025	2833.543941086092	1
0	12033	2834.669181748155	2
0	12035	2834.724311746691	3
0	12041	2835.876264066006	4
0	12042	2836.462118688086	3
0	12049	2836.753483486767	4
0	12051	2837.060264889793	5
0	12052	2837.566890911149	4
0	12057	2837.879105262529	3
0	12062	2838.000128326918	2
0	12067	2838.424176331696	1
0	12072	2839.488091246011	0
0	12107	2845.856371763337	1
0	12108	2846.589742524957	0
0	12132	2852.311771582912	1
0	12136	2853.032670438117	2
0	12137	2853.145615996003	1
0	12143	2854.192380789442	0
0	12149	2854.375976918563	1
0	12150	2855.129655937733	0
0	12168	2856.823992180251	1
0	12171	2857.163195891554	2
0	12172	2858.55809092416	1
0	12178	2859.441236045605	0
0	12218	2868.06258192346	1
0	12219	2868.269165542208	0
0	12230	2868.784656736167	1
0	12232	2869.141565865475	2
0	12234	2869.322733326574	3
0	12238	2869.880912715535	4
0	12240	2871.710347322501	3
0	12248	2872.631198043562	2
0	12254	2872.954187907717	1
0	12259	2873.099786580975	0
0	12263	2873.862886837724	1
0	12266	2876.285198596826	0
0	12303	2889.612981484549	1
0	12307	2892.344607672025	2
0	12308	2892.865529716499	1
0	12313	2893.416881843102	0
0	12354	2905.367041455975	1
0	12359	2909.314882126268	0
0	12370	2913.149047246837	1
0	12372	2913.223506448334	2
0	12374	2913.386453195162	3
0	12376	2913.663937527116	4
0	12380	2915.087902995337	3
0	12386	2915.213280155918	4
0	12388	2916.939804238656	3
0	12393	2917.131062340349	2
0	12400	2917.355494517004	3
0	12402	2917.363381778659	4
0	12403	2918.058448452067	3
0	12408	2918.161024038766	2
0	12414	2918.459239362577	3
0	12417	2919.219885849121	2
0	12421	2919.538416847457	3
0	12425	2920.2111786384	4
0	12431	2921.787782538973	3
0	12437	2922.57031446925	2
0	12445	2923.693396455555	1
0	12450	2923.768289361155	0
0	12459	2926.62657116959	1
0	12461	2926.823850217033	2
0	12464	2928.926176991267	1
0	12473	2932.126354643911	0
0	12481	2933.303251008472	1
0	12482	2935.0961034972	0
0	12515	2940.149763372512	1
0	12517	2945.249511789823	2
0	12521	2946.503538232963	1
0	12526	2946.62990858044	0
0	12546	2948.87822785582	1
0	12548	2949.505901084926	2
0	12549	2951.214748247028	1
0	12555	2951.545628134595	2
0	12556	2951.884990543219	1
0	12563	2954.482349156426	2
0	12566	2954.79238607069	3
0	12569	2956.753243725964	4
0	12571	2957.034884158881	5
0	12572	2957.064645298908	4
0	12578	2957.506956197714	5
0	12583	2958.631604407172	6
0	12584	2958.915759744332	5
0	12592	2960.493651538233	4
0	12597	2962.235963442066	3
0	12602	2962.330958012498	2
0	12607	2962.967264554658	1
0	12611	2964.700473100646	2
0	12613	2965.331972880616	3
0	12620	2968.115308741928	4
0	12622	2969.081073927257	5
0	12623	2969.107852932915	4
0	12628	2969.173862745838	3
0	12634	2969.623255050276	4
0	12635	2970.828993956696	3
0	12640	2973.387290773996	2
0	12645	2974.675838925473	1
0	12649	2976.765625445263	2
0	12655	2979.101625344007	1
0	12660	2979.156817447719	0
0	12664	2979.963467170537	1
0	12667	2982.372393506402	0
0	12697	2985.415622015762	1
0	12702	2989.366207359224	2
0	12703	2989.832987014378	1
0	12708	2990.033657132183	0
0	12714	2991.13559757088	1
0	12716	2991.884976260739	0
0	12735	2997.048326300393	1
0	12739	2999.183367180413	0
0	12768	3008.063319235447	1
0	12769	3008.240112033527	0
0	12793	3014.719386630403	1
0	12797	3018.196451930495	2
0	12798	3018.766927247064	1
0	12803	3019.189016225949	0
0	12809	3019.531721745671	1
0	12812	3021.001313147121	0
0	12822	3022.881764640359	1
0	12826	3024.796334795599	0
0	12844	3026.991656264861	1
0	12847	3028.163059341581	0
0	12908	3052.197633108163	1
0	12909	3053.001478309417	0
0	12915	3053.247336758997	1
0	12918	3054.429393458359	2
0	12920	3054.79568958693	3
0	12921	3055.468056485421	2
0	12926	3055.823226837419	1
0	12932	3056.096019235722	2
0	12937	3060.750409041382	1
0	12946	3062.847114211125	0
0	12966	3067.432174281776	1
0	12968	3067.844083633028	0
0	12984	3069.034083295435	1
0	12986	3070.336221960462	0
0	13021	3079.900172934632	1
0	13023	3079.974503353859	2
0	13025	3081.211600510427	3
0	13026	3081.986508684901	2
0	13031	3082.020126762734	1
0	13041	3083.948701885312	2
0	13047	3085.07880793027	3
0	13049	3085.651158566726	4
0	13051	3086.039660264709	5
0	13052	3087.23552155736	4
0	13064	3090.959845342793	3
0	13069	3092.513986219498	2
0	13075	3092.881144744927	1
0	13082	3093.380594952007	2
0	13085	3094.844248627302	3
0	13087	3094.966501322409	4
0	13089	3095.106949191383	5
0	13090	3096.217957333367	4
0	13100	3098.29491587944	3
0	13106	3098.460377014563	4
0	13107	3098.769720528839	3
0	13112	3100.907209669844	2
0	13117	3101.484376388796	1
0	13124	3102.266415139176	0
0	13130	3106.410114288042	1
0	13132	3106.565241479137	2
0	13135	3108.105536754017	1
0	13139	3111.644758644444	2
0	13143	3114.679136026548	1
0	13148	3114.794866461485	0
0	13166	3119.455847342839	1
0	13168	3120.081292902596	2
0	13169	3120.090111503256	1
0	13174	3122.442913570761	0
0	13184	3127.20242279205	1
0	13186	3128.11700141576	0
0	13220	3133.402901347146	1
0	13222	3133.549838306909	2
0	13223	3133.632489547858	1
0	13228	3133.662459895348	0
0	13238	3135.745325085013	1
0	13242	3136.416120454467	2
0	13244	3136.493789149612	3
0	13245	3136.684191543368	2
0	13250	3137.684039308377	1
0	13256	3137.782661793902	2
0	13259	3138.16700369531	1
0	13267	3140.830517602881	0
0	13279	3141.552320638869	1
0	13281	3142.216987304903	2
0	13284	3143.515010423749	1
0	13289	3144.920680278223	0
0	13308	3147.101682104995	1
0	13310	3148.58699282481	0
0	13317	3149.883887621155	1
0	13325	3152.073871427606	0
0	13331	3152.287284497675	1
0	13332	3152.570956369209	0
0	13344	3156.105442948048	1
0	13347	3157.15521795762	2
0	13349	3157.204956551234	3
0	13351	3157.779444022775	4
0	13354	3158.308986874	3
0	13360	3159.48800971703	4
0	13365	3159.641189830542	5
0	13366	3161.695968091929	4
0	13373	3162.821831545086	5
0	13376	3163.691136778217	4
0	13382	3165.524688456254	3
0	13388	3165.680770593051	4
0	13389	3165.923579312186	3
0	13394	3166.301347912656	2
0	13399	3167.661682622477	1
0	13406	3170.779105349077	2
0	13407	3171.68082380084	1
0	13414	3172.720004246533	2
0	13415	3174.878659088614	1
0	13419	3175.665852547338	2
0	13421	3176.628013929895	3
0	13425	3176.852255673763	4
0	13427	3178.534087442698	3
0	13433	3179.236423462722	2
0	13439	3179.366961254424	3
0	13444	3180.381154873283	4
0	13445	3181.210065874404	3
0	13451	3181.275782074869	4
0	13452	3181.340178103909	3
0	13462	3184.227630002927	2
0	13468	3184.405496002764	1
0	13473	3184.725202557224	0
0	13479	3185.001273174393	1
0	13481	3185.450161179745	0
0	13516	3188.683198113089	1
0	13517	3190.992296534182	0
0	13540	3196.795911218157	1
0	13543	3197.408422703939	0
0	13560	3201.794142493255	1
0	13564	3204.768495290076	2
0	13565	3206.411563521163	1
0	13571	3208.213310449239	0
0	13577	3208.430581190179	1
0	13578	3208.975902293795	0
0	13595	3216.473287952423	1
0	13598	3217.728363295058	0
0	13612	3222.456022277688	1
0	13613	3222.458501769102	0
0	13633	3228.218775595563	1
0	13635	3229.619405987298	2
0	13637	3230.930677801826	3
0	13639	3231.784674323995	4
0	13640	3232.673505081109	3
0	13645	3232.748420392805	2
0	13650	3232.984515519304	1
0	13656	3233.175022192683	0
0	13689	3238.028116702993	1
0	13690	3238.88907211382	0
0	13697	3239.548945052099	1
0	13699	3240.128812440523	2
0	13700	3240.623930752365	1
0	13706	3241.600417093468	0
0	13723	3244.812272285565	1
0	13724	3246.465658431403	0
0	13737	3247.207223213638	1
0	13740	3249.049920425941	2
0	13743	3249.963640275872	1
0	13748	3250.032889738389	0
0	13764	3252.472402371564	1
0	13766	3253.463462970992	2
0	13769	3256.362926323738	1
0	13777	3260.336425617048	0
0	13800	3262.899829928604	1
0	13801	3263.734225193757	0
0	13808	3264.394972341015	1
0	13809	3265.633809066788	0
0	13831	3271.109690643277	1
0	13832	3271.298096124029	0
0	13843	3272.799300963264	1
0	13846	3273.502719122361	2
0	13849	3276.710589199	1
0	13856	3277.957794925189	0
0	13867	3278.248374934848	1
0	13868	3278.626614310313	0
0	13885	3282.793127575346	1
0	13887	3285.134305318897	0
0	13894	3285.562424012951	1
0	13895	3285.596159864753	0
0	13908	3286.320066331707	1
0	13911	3287.590668898246	0
0	13924	3289.017534470597	1
0	13926	3289.636358397148	0
0	13944	3294.35547380681	1
0	13945	3296.588404691091	0
0	13984	3307.669659588347	1
0	13985	3308.627614783615	0
0	13991	3309.078946021795	1
0	13992	3309.318478062135	0
0	14047	3316.304566073625	1
0	14048	3316.871214478622	0
0	14084	3328.079354150022	1
0	14086	3328.34126680233	2
0	14089	3329.143421854668	1
0	14095	3329.191138299265	2
0	14097	3329.404256545435	1
0	14103	3329.563723997285	0
0	14119	3335.407501890597	1
0	14122	3337.052431722722	0
0	14139	3341.636036195469	1
0	14143	3345.11975723807	2
0	14145	3346.248692501003	3
0	14147	3346.347658766318	4
0	14150	3346.707555052276	3
0	14156	3347.59618469768	2
0	14165	3349.934925579962	1
0	14171	3350.119304218906	2
0	14173	3350.408206583281	3
0	14174	3350.908652685263	2
0	14183	3353.219001864913	3
0	14184	3353.930168189223	2
0	14190	3354.509809121874	1
0	14195	3354.893471203284	0
0	14201	3355.509193534264	1
0	14203	3355.643629141943	2
0	14205	3357.865755845371	1
0	14210	3358.597818796593	0
0	14218	3359.941578904464	1
0	14220	3360.098818280583	2
0	14222	3360.804290927252	3
0	14226	3361.143121867892	2
0	14232	3361.570417972642	1
0	14238	3361.578685514927	2
0	14239	3362.833189232866	1
0	14244	3364.670502681896	0
0	14248	3364.821671394804	1
0	14251	3366.142994255517	0
0	14280	3369.873910947737	1
0	14286	3372.584997722055	0
0	14303	3378.046260530926	1
0	14304	3378.113881883476	0
0	14315	3381.416588733278	1
0	14316	3381.931979896001	0
0	14341	3385.234208510531	1
0	14342	3385.931032191098	0
0	14370	3387.396805322282	1
0	14372	3389.81461228154	2
0	14373	3391.736104380372	1
0	14381	3393.611257186258	0
0	14387	3393.844647253904	1
0	14388	3394.704777563068	0
0	14399	3395.396742612152	1
0	14401	3395.508029710689	2
0	14402	3395.750512104382	1
0	14407	3396.151982947257	0
0	14413	3397.326424347989	1
0	14416	3398.090316350048	0
0	14422	3398.546064893064	1
0	14423	3399.578847537656	0
0	14430	3400.495410220797	1
0	14432	3400.535034717125	2
0	14433	3401.192551399098	1
0	14439	3401.970053503381	0
0	14464	3407.033638373733	1
0	14466	3407.680563738343	2
0	14467	3407.806595791767	1
0	14472	3408.255551095401	0
0	14484	3409.551608888784	1
0	14490	3412.661218628475	2
0	14491	3413.529662571835	1
0	14498	3414.363567802797	0
0	14519	3418.017375744705	1
0	14520	3419.007017849123	0
0	14544	3424.466140402426	1
0	14545	3424.478397830755	0
0	14563	3429.071660631631	1
0	14564	3430.364162160356	0
0	14570	3430.38235800708	1
0	14572	3431.600842857132	2
0	14573	3432.096430137931	1
0	14578	3433.802753781133	0
0	14589	3435.306070427095	1
0	14593	3440.633243340138	0
0	14607	3441.655484633464	1
0	14608	3441.84211554828	0
0	14623	3446.728316523598	1
0	14624	3447.867266584694	0
0	14638	3450.776598114939	1
0	14642	3451.701677180674	0
0	14743	3471.505665112348	1
0	14745	3471.609091364023	2
0	14747	3473.691803263823	3
0	14749	3474.549722320426	4
0	14750	3474.904907827123	3
0	14756	3475.211972585086	4
0	14760	3475.443148275799	3
0	14766	3476.612307532767	2
0	14771	3476.771218136644	1
0	14777	3477.039613247796	2
0	14778	3477.561711866432	1
0	14783	3478.130302897083	0
0	14798	3479.542651741223	1
0	14803	3482.077814154913	0
0	14842	3490.33177044801	1
0	14843	3490.38500221139	0
0	14858	3494.16178659838	1
0	14859	3494.58203793826	0
0	14873	3496.53936070467	1
0	14875	3498.417223643993	0
0	14898	3507.209701612702	1
0	14899	3507.860824362164	0
0	14916	3511.082541192057	1
0	14919	3513.060133949117	0
0	14930	3514.540993418038	1
0	14931	3516.146819916469	0
0	14957	3519.003409390747	1
0	14959	3519.429662643578	2
0	14961	3522.221750880249	3
0	14962	3524.096175003839	2
0	14969	3525.85580909989	1
0	14974	3525.863725089408	0
0	14994	3533.481365232777	1
0	14996	3534.049489777613	2
0	15002	3535.657321298369	3
0	15003	3535.900197517471	2
0	15008	3536.74130410426	1
0	15015	3538.011932163844	0
0	15019	3539.21022815525	1
0	15026	3542.691210043616	0
0	15049	3548.573580730173	1
0	15052	3551.81970412652	0
0	15076	3556.246283158166	1
0	15077	3558.712261044389	0
0	15102	3562.604735728483	1
0	15107	3563.75752619831	0
0	15113	3564.03634536105	1
0	15114	3564.229371190965	0
0	15120	3564.62041281184	1
0	15121	3566.061652031709	0
0	15130	3567.3207365066	1
0	15134	3569.642365900918	0
0	15157	3575.331681660769	1
0	15159	3576.081266060721	2
0	15163	3576.296633159747	3
0	15166	3577.911745253372	4
0	15167	3579.208991205899	3
0	15173	3580.133808932459	2
0	15179	3581.055764228566	3
0	15182	3581.351714449207	4
0	15183	3581.439480978211	3
0	15192	3583.222628929671	4
0	15193	3584.2548291751	3
0	15198	3584.384505563927	2
0	15204	3585.047205257448	3
0	15205	3585.188370567915	2
0	15210	3585.231354154157	1
0	15216	3585.524463322194	2
0	15218	3585.595459394926	3
0	15221	3586.852159797712	2
0	15225	3587.366907725503	3
0	15228	3588.984158857688	2
0	15233	3591.684656276795	1
0	15238	3592.020795714777	0
0	15242	3592.514418955659	1
0	15245	3592.763634936466	0
0	15249	3593.932688347995	1
0	15252	3594.230668794512	0
0	15280	3598.839958631289	1
0	15282	3600.743495749127	2
0	15286	3602.065131693028	3
0	15288	3603.269292873396	4
0	15290	3603.6742403878	3
0	15296	3604.489959378005	4
0	15297	3604.696489196444	3
0	15302	3606.932457386529	2
0	15306	3608.53424292601	3
0	15313	3612.190174295932	4
0	15314	3612.627347886415	3
0	15321	3613.798431753629	4
0	15323	3614.374596755402	3
0	15331	3615.222922157798	4
0	15333	3615.857069155484	3
0	15338	3617.212256664545	2
0	15344	3617.272283770027	3
0	15345	3617.597871170985	2
0	15353	3618.505286686013	1
0	15362	3620.067497513144	0
0	15395	3622.959898469869	1
0	15396	3624.037011578102	0
0	15404	3625.634764175874	1
0	15409	3625.907871009954	0
0	15447	3636.344263895134	1
0	15450	3637.090529682446	0
0	15473	3645.068632051646	1
0	15476	3646.252291534576	0
0	15491	3648.776136629108	1
0	15492	3648.839384743165	0
0	15504	3649.618249694375	1
0	15506	3650.575117662137	2
0	15507	3650.94291414468	1
0	15514	3651.177621212975	0
0	15545	3659.754099103328	1
0	15549	3661.200266389456	2
0	15551	3661.287038001257	3
0	15554	3661.710652201301	2
0	15559	3662.008278379146	1
0	15567	3663.127879252106	0
0	15582	3664.732113495548	1
0	15585	3665.56493423099	2
0	15586	3665.979718905317	1
0	15591	3666.267447829208	0
0	15603	3668.336322217622	1
0	15605	3668.600095380134	2
0	15607	3669.188117209762	3
0	15609	3669.319294858492	2
0	15617	3672.30408402348	1
0	15623	3672.980675734388	0
0	15711	3699.182368017477	1
0	15712	3699.198322061803	0
0	15718	3699.362063524279	1
0	15720	3700.796871619455	2
0	15723	3701.525734988942	3
0	15724	3701.575372178871	2
0	15730	3701.76499041416	3
0	15731	3701.865677234884	2
0	15737	3704.8667332309	1
0	15743	3705.027445255231	2
0	15747	3705.353676180356	1
0	15752	3706.839447250153	0
0	15758	3709.545443997914	1
0	15761	3710.42184216039	0
0	15772	3711.509129125819	1
0	15774	3711.848325971012	2
0	15775	3712.340208257123	1
0	15781	3713.955224668086	0
0	15785	3714.978900858222	1
0	15789	3716.326661112936	0
0	15818	3727.643160270777	1
0	15820	3728.243245271758	0
0	15843	3731.881302741378	1
0	15845	3732.701331714217	2
0	15846	3732.91650481705	1
0	15851	3732.982604462543	0
0	15879	3741.26236139235	1
0	15880	3742.992393558101	0
0	15895	3746.605609256816	1
0	15896	3746.713816143409	0
0	15960	3766.001325278711	1
0	15962	3767.868103075461	0
0	15983	3771.569593519917	1
0	15986	3772.869024419491	0
0	16000	3777.546896523633	1
0	16001	3777.751908610322	0
0	16007	3778.779144911773	1
0	16012	3779.511097273887	0
0	16049	3788.178534640668	1
0	16051	3788.343959342487	2
0	16052	3790.447532759681	1
0	16058	3791.330846458409	0
0	16067	3791.989529501246	1
0	16070	3792.114854602942	0
0	16091	3798.098918142194	1
0	16094	3801.575812847727	0
0	16118	3810.388409717027	1
0	16119	3810.418341430643	0
0	16134	3815.2461595757	1
0	16135	3816.007708320777	0
0	16141	3816.027457112278	1
0	16143	3817.414156177306	2
0	16144	3817.989527257931	1
0	16149	3818.145907647782	0
0	16168	3824.256497056406	1
0	16169	3824.678999603224	0
0	16194	3835.204364313321	1
0	16195	3835.360683458715	0
0	16245	3849.884639068043	1
0	16249	3851.639258234432	0
0	16305	3864.047998567278	1
0	16308	3864.6042110199	0
0	16432	3902.917702859437	1
0	16434	3903.282437463441	2
0	16435	3904.364628312522	1
0	16441	3904.833973833772	0
0	16449	3906.246878516343	1
0	16450	3906.303371365349	0
0	16458	3907.950553267632	1
0	16459	3908.069527200676	0
0	16493	3912.205255185603	1
0	16495	3912.234821263933	2
0	16499	3912.606683403003	1
0	16508	3915.610942987103	0
0	16519	3915.85592235129	1
0	16520	3916.28620878227	0
0	16565	3926.537700455794	1
0	16566	3926.667501012989	0
0	16572	3927.271597323698	1
0	16573	3927.490223214401	0
0	16606	3930.647577346284	1
0	16608	3932.185177823241	2
0	16612	3933.455445147663	3
0	16613	3934.560589326662	2
0	16619	3935.273995208091	1
0	16624	3935.355794237018	0
0	16633	3936.218212416364	1
0	16636	3940.544705942794	0
0	16652	3948.286268220521	1
0	16653	3948.847733394064	0
0	16660	3950.552494660993	1
0	16661	3951.149317307132	0
0	16668	3952.188592770814	1
0	16669	3952.671149247959	0
0	16683	3954.515316411102	1
0	16685	3954.873405423156	2
0	16688	3955.146275530396	3
0	16689	3955.325586131791	2
0	16694	3956.042137602905	1
0	16699	3957.14486568999	0
0	16703	3958.24249009687	1
0	16707	3958.759902657608	0
0	16729	3960.498145707399	1
0	16732	3961.627654879085	2
0	16733	3963.381527349313	1
0	16738	3964.436394253467	0
0	16754	3967.133314476537	1
0	16757	3968.551819372768	0
0	16767	3969.951766947989	1
0	16770	3972.440872488118	0
0	16841	3990.895831142129	1
0	16842	3991.11269239502	0
0	16874	4000.503998429503	1
0	16876	4001.571957220296	2
0	16877	4001.666082033122	1
0	16882	4001.723507733056	0
0	16891	4003.105709374184	1
0	16897	4004.987440539659	0
0	16919	4007.738850031074	1
0	16923	4010.912883249961	2
0	16924	4011.290660168111	1
0	16930	4011.566599107405	2
0	16931	4012.016604678203	1
0	16937	4012.295747711086	0
0	16943	4012.791344138506	1
0	16945	4012.816869499678	2
0	16947	4013.12849049892	1
0	16960	4016.578449968669	0
0	16980	4019.464920978466	1
0	16982	4020.240875445738	0
0	16991	4020.707600891454	1
0	16996	4021.303935454692	0
0	17002	4022.107086453972	1
0	17006	4025.661696187579	0
0	17037	4031.909126287529	1
0	17043	4032.627914718631	2
0	17046	4034.792774982109	1
0	17054	4034.966530279035	2
0	17057	4037.092311701731	1
0	17063	4037.759745828786	0
0	17069	4038.354445972679	1
0	17070	4039.129948348553	0
0	17090	4042.949981490891	1
0	17091	4043.099932103316	0
0	17112	4047.282131741366	1
0	17119	4050.321625198163	2
0	17120	4050.87109804765	1
0	17128	4051.941946395769	0
0	17138	4053.741396767587	1
0	17142	4057.953258184559	2
0	17143	4058.824877335814	1
0	17149	4059.531861881477	2
0	17150	4059.849085722663	1
0	17156	4060.611513593514	0
0	17181	4065.1172513401	1
0	17184	4066.001635824168	0
0	17199	4068.95404320405	1
0	17203	4070.527023585392	2
0	17205	4070.771344629061	3
0	17207	4071.270050448152	4
0	17208	4072.943618323855	3
0	17213	4073.714473106856	2
0	17218	4074.207287795474	1
0	17225	4075.084445694593	0
0	17246	4078.572553077296	1
0	17247	4078.67534560807	0
0	17260	4079.876053121304	1
0	17261	4080.173252189651	0
0	17269	4080.392890534747	1
0	17270	4081.512062565222	0
0	17336	4099.731019801368	1
0	17337	4099.869174067841	0
0	17369	4108.946732893254	1
0	17370	4110.171491770135	0
0	17377	4110.42975875085	1
0	17378	4113.48357329559	0
0	17402	4115.911880587655	1
0	17403	4116.443140046437	0
0	17415	4117.071959612443	1
0	17416	4118.13739972421	0
0	17464	4128.005010950364	1
0	17466	4128.857983205149	0
0	17479	4129.687566280224	1
0	17481	4130.397601144511	0
0	17487	4131.294500604675	1
0	17488	4132.374047694509	0
0	17497	4132.915725283474	1
0	17500	4133.498451110631	2
0	17505	4134.984748450836	1
0	17512	4136.275260909737	2
0	17513	4136.887764070361	1
0	17518	4137.670413028025	0
0	17525	4139.336121821667	1
0	17526	4140.457274852759	0
0	17548	4143.323363199493	1
0	17549	4143.763771778208	0
0	17575	4149.539113773669	1
0	17580	4151.228829294043	0
0	17602	4155.05653653304	1
0	17605	4156.141495139127	0
0	17611	4156.332536131123	1
0	17612	4156.333885956294	0
0	17634	4161.529251443518	1
0	17635	4161.843332917221	0
0	17641	4161.866716163856	1
0	17642	4162.789520659539	0
0	17648	4162.968729264983	1
0	17651	4164.552054675101	0
0	17660	4164.77145948773	1
0	17665	4165.671745872378	2
0	17668	4167.543250967175	1
0	17673	4168.362604259025	0
0	17686	4170.851885998111	1
0	17690	4171.12545330552	0
0	17696	4171.203765793749	1
0	17698	4171.687881084074	0
0	17704	4171.985915015785	1
0	17707	4172.186979956791	2
0	17708	4172.894345648803	1
0	17714	4174.830587762697	0
0	17727	4177.290728687145	1
0	17730	4179.479726855493	2
0	17733	4180.542051754282	1
0	17739	4180.964425663864	0
0	17761	4187.720779637235	1
0	17764	4189.955718507923	0
0	17776	4196.577627773467	1
0	17780	4198.058034450495	2
0	17782	4198.843859856639	3
0	17784	4200.251695650241	4
0	17787	4200.365538226218	3
0	17795	4201.040382683131	2
0	17803	4202.294474651927	3
0	17804	4202.446323045322	2
0	17811	4203.267144098326	3
0	17812	4204.359465319767	2
0	17817	4204.412961774567	1
0	17822	4204.681212399571	0
0	17892	4233.099929098548	1
0	17896	4234.856106649009	2
0	17898	4235.155219662341	3
0	17900	4236.065472825631	4
0	17903	4237.155217768992	3
0	17910	4237.762507395347	2
0	17918	4238.358107562422	1
0	17925	4238.691196971926	2
0	17926	4239.005083134102	1
0	17931	4239.1653364888	0
0	17974	4245.497498154259	1
0	17979	4247.250096688431	2
0	17980	4247.399905348419	1
0	17985	4247.954718481074	0
0	17998	4249.695015221798	1
0	18003	4251.992981223261	0
0	18009	4252.100012155656	1
0	18010	4252.119406632164	0
0	18046	4265.299681697207	1
0	18048	4266.221804098159	0
0	18061	4267.725175061715	1
0	18063	4268.200152878882	0
0	18070	4268.885849533964	1
0	18073	4269.319704324147	2
0	18074	4269.411491061729	1
0	18081	4269.804623735932	2
0	18082	4269.895056434276	1
0	18088	4270.605377822383	2
0	18091	4271.640519439349	1
0	18098	4272.148220565067	0
0	18106	4272.960858187265	1
0	18108	4273.438549594924	0
0	18140	4278.101475373898	1
0	18145	4281.308581511218	0
0	18251	4307.858772253682	1
0	18252	4307.903556380552	0
0	18266	4308.792121866232	1
0	18268	4309.050155066373	2
0	18271	4310.833714084075	1
0	18282	4312.266085812236	0
0	18305	4315.989034505085	1
0	18309	4317.392383416635	2
0	18310	4318.044066439067	1
0	18316	4318.419598034989	0
0	18327	4319.405660895181	1
0	18329	4319.437482008805	2
0	18333	4323.288192610145	1
0	18338	4323.368753876174	0
0	18386	4336.567305409409	1
0	18388	4337.225612661018	2
0	18389	4337.233647271286	1
0	18394	4337.447659566343	0
0	18422	4345.748579113192	1
0	18423	4346.17266342451	0
0	18444	4351.097176817412	1
0	18445	4352.607335745697	0
0	18452	4353.772492996433	1
0	18454	4353.944900846288	2
0	18455	4354.055022882247	1
0	18461	4354.769212796139	0
0	18496	4371.813155642868	1
0	18497	4372.02631188613	0
0	18509	4373.710394335276	1
0	18510	4373.906358822713	0
0	18535	4376.69816127837	1
0	18538	4377.299921689495	0
0	18546	4379.988025521742	1
0	18547	4380.150021927496	0
0	18551	4380.759877738506	1
0	18559	4385.847303931694	2
0	18560	4385.944351914235	1
0	18565	4386.622416159339	0
0	18595	4393.378584979739	1
0	18596	4393.401175728396	0
0	18614	4393.821466960779	1
0	18617	4394.574853120652	0
0	18633	4399.294108955952	1
0	18634	4399.895195324782	0
0	18640	4400.16655339543	1
0	18641	4400.615362951131	0
0	18645	4401.377686907159	1
0	18649	4403.062500832459	0
0	18671	4408.348949622985	1
0	18673	4409.511255762197	0
0	18711	4416.279586140931	1
0	18712	4416.64982183706	0
0	18736	4421.837064943093	1
0	18737	4422.340622684476	0
0	18752	4430.521756332286	1
0	18756	4431.366653765672	2
0	18758	4431.482464994674	3
0	18759	4431.65850396505	2
0	18766	4432.894764988162	1
0	18772	4434.136957709563	2
0	18775	4438.561642976498	1
0	18780	4438.800111176767	0
0	18787	4440.118838297738	1
0	18789	4440.669210592126	0
0	18911	4471.572091730335	1
0	18913	4471.929616398527	2
0	18914	4473.882147278199	1
0	18919	4473.979716437969	0
0	18923	4474.666555035117	1
0	18926	4474.918109185871	0
0	18981	4493.12509508597	1
0	18983	4493.952008944031	0
0	19036	4500.567809520167	1
0	19044	4503.124846050432	0
0	19051	4503.727963822347	1
0	19053	4503.989513424192	2
0	19055	4506.313070058764	3
0	19056	4507.601859595134	2
0	19061	4508.481213308051	1
0	19067	4508.728544454544	0
0	19078	4509.103528806128	1
0	19080	4509.575605854368	0
0	19103	4512.400931015993	1
0	19105	4512.865461408516	2
0	19106	4514.748045397849	1
0	19112	4516.267169365231	0
0	19149	4528.366286709859	1
0	19151	4529.358137577328	0
0	19167	4534.820945481605	1
0	19168	4536.257595900828	0
0	19195	4545.290045687558	1
0	19196	4545.780096591322	0
0	19202	4546.487089787415	1
0	19205	4547.071855389197	2
0	19206	4547.146699807674	1
0	19212	4547.836566729894	0
0	19240	4553.9853546256	1
0	19245	4556.55271952997	2
0	19246	4556.644699128099	1
0	19251	4556.954840233115	0
0	19262	4559.771229927564	1
0	19266	4560.833741321738	0
0	19279	4564.279911491465	1
0	19283	4565.39023461429	0
0	19291	4567.23277461631	1
0	19293	4567.28126740587	2
0	19294	4568.016959230918	1
0	19299	4568.176898752685	0
0	19308	4569.725631725208	1
0	19309	4570.165959404276	0
0	19322	4570.865296274834	1
0	19323	4570.998910025302	0
0	19354	4578.980535026071	1
0	19356	4579.209521600636	2
0	19357	4579.410992034247	1
0	19363	4580.019457971276	0
0	19378	4583.046637385729	1
0	19379	4583.409588546007	0
0	19398	4587.48195659755	1
0	19401	4588.21958459505	0
0	19416	4594.60238907031	1
0	19420	4598.271699230465	2
0	19421	4598.992501963921	1
0	19429	4600.857342222687	0
0	19471	4612.720138828914	1
0	19472	4612.934871082001	0
0	19481	4614.144678848498	1
0	19485	4617.054132603945	2
0	19491	4618.274072025269	3
0	19493	4618.761480110652	4
0	19495	4621.275628941583	3
0	19501	4622.653896384623	2
0	19507	4622.833421378886	3
0	19508	4622.990210596503	2
0	19513	4624.079431726337	1
0	19518	4625.741783204237	0
0	19522	4626.499689019895	1
0	19525	4628.792780149413	0
0	19533	4631.443020105536	1
0	19534	4631.572873206176	0
0	19538	4631.835983181259	1
0	19540	4632.17015743825	2
0	19544	4634.296072257631	1
0	19549	4634.329665011958	0
0	19584	4651.550136637536	1
0	19587	4652.334505620165	0
0	19615	4659.882953848888	1
0	19622	4663.596213155846	0
0	19633	4664.113962634477	1
0	19635	4664.842955382131	0
0	19642	4665.479101342751	1
0	19645	4666.707505429221	0
0	19661	4667.851464605526	1
0	19664	4668.06326032208	2
0	19666	4668.857121114827	1
0	19675	4669.906231405375	0
0	19681	4670.40640765429	1
0	19682	4671.02451771255	0
0	19703	4678.103556499416	1
0	19705	4678.695067737291	0
0	19711	4679.056561889967	1
0	19714	4680.265410179569	0
0	19807	4710.679092772296	1
0	19808	4710.803312616863	0
0	19839	4725.346260743732	1
0	19840	4726.557543060697	0
0	19862	4729.081894720388	1
0	19866	4729.739445398311	2
0	19868	4730.74223627244	3
0	19869	4732.434086615402	2
0	19876	4733.143178439215	3
0	19878	4733.381455129796	4
0	19880	4733.955651275097	3
0	19887	4736.522582022752	2
0	19893	4736.712521175367	3
0	19894	4736.843710812187	2
0	19899	4736.918337068847	1
0	19903	4737.062977630582	2
0	19906	4738.012873029741	1
0	19910	4738.430602419645	2
0	19913	4739.315657311443	1
0	19920	4740.73462834543	2
0	19921	4741.005527682926	1
0	19928	4744.262736908878	0
0	19940	4745.931897055417	1
0	19941	4746.207715598592	0
0	19978	4753.095228561809	1
0	19979	4755.253166931883	0
0	19992	4756.334647330111	1
0	19993	4756.392876052858	0
0	20081	4785.351531041866	1
0	20084	4788.387283951022	0
0	20096	4791.631075863193	1
0	20098	4792.475624597119	2
0	20100	4792.773841453911	3
0	20102	4792.784906453222	4
0	20104	4793.036087398642	5
0	20107	4798.518319428073	4
0	20114	4799.459160559686	5
0	20118	4800.177109630647	6
0	20119	4800.258767419654	5
0	20125	4800.405362294977	6
0	20127	4800.635285937911	7
0	20128	4800.641942420372	6
0	20133	4800.972287917161	5
0	20139	4801.243805597497	4
0	20144	4801.88866538025	3
0	20149	4804.072645589661	2
0	20164	4810.177203541777	1
0	20170	4811.417259736953	2
0	20171	4811.636551989021	1
0	20176	4812.254477803089	0
0	20218	4819.485190848203	1
0	20222	4820.684778246787	2
0	20223	4822.047713167369	1
0	20229	4822.973321141708	0
0	20236	4823.242027022574	1
0	20238	4825.420961057393	0
0	20266	4830.815968082784	1
0	20270	4832.122447358439	2
0	20272	4835.734930764424	3
0	20273	4836.183880911667	2
0	20279	4837.339017449421	1
0	20285	4837.780741507789	2
0	20290	4838.554628827077	1
0	20296	4838.65611336049	2
0	20297	4838.917381198218	1
0	20303	4839.309501750405	2
0	20304	4839.394392894801	1
0	20310	4840.341569461588	2
0	20311	4840.842721326825	1
0	20315	4841.106945879404	2
0	20317	4841.301414240497	3
0	20319	4841.445620056988	4
0	20321	4842.103897657023	5
0	20323	4842.439785245106	6
0	20327	4843.771166656886	5
0	20333	4844.773335698305	6
0	20335	4844.831047102114	7
0	20336	4845.003609982432	6
0	20341	4845.500299511345	5
0	20347	4846.645491184546	6
0	20348	4847.814136685807	5
0	20353	4849.036916753104	4
0	20358	4852.447958630473	3
0	20363	4853.77678905396	2
0	20368	4856.690816325059	1
0	20372	4857.350847431897	2
0	20376	4859.785593922254	3
0	20377	4861.886686904165	2
0	20381	4862.106697108437	3
0	20387	4863.165560343937	4
0	20389	4863.519210878676	5
0	20392	4863.934612847321	4
0	20397	4864.221425922138	3
0	20405	4865.763344662268	2
0	20412	4868.794673758457	1
0	20417	4868.954771760597	0
0	20421	4870.755936042632	1
0	20423	4871.052572959665	2
0	20431	4873.618602615915	1
0	20438	4874.27466825922	0
0	20455	4875.050319951264	1
0	20456	4875.261662719837	0
0	20472	4877.775781934021	1
0	20476	4879.836355843825	0
0	20490	4884.7513398475	1
0	20491	4884.994719396804	0
0	20498	4887.095093141109	1
0	20500	4887.123218567561	2
0	20501	4887.429931198158	1
0	20506	4887.782587666106	0
0	20517	4890.518001114164	1
0	20520	4891.666684870194	0
0	20535	4895.19629146254	1
0	20541	4896.930281262594	2
0	20543	4896.997549257071	3
0	20544	4897.12977146946	2
0	20550	4897.962759744242	1
0	20556	4898.753202188299	0
0	20565	4899.409594145388	1
0	20566	4900.282681834029	0
0	20579	4904.098766841365	1
0	20583	4907.330399217421	0
0	20594	4908.532819377211	1
0	20598	4909.290383577177	2
0	20601	4911.412419960562	1
0	20606	4912.665994995541	0
0	20627	4916.74402316246	1
0	20628	4917.058315714995	0
0	20635	4917.759032255356	1
0	20637	4918.760069996049	2
0	20639	4919.502583591711	3
0	20644	4922.365770992364	2
0	20649	4922.434146363863	1
0	20654	4922.505999254517	0
0	20668	4924.717796639238	1
0	20669	4924.726409977774	0
0	20677	4926.576831521168	1
0	20678	4926.997259950008	0
0	20689	4930.26620302629	1
0	20691	4930.918333760992	0
0	20697	4932.077320963884	1
0	20700	4932.398240132495	0
0	20704	4933.127554226041	1
0	20706	4934.215730218564	2
0	20715	4936.576430095487	1
0	20719	4937.089419159361	2
0	20721	4937.103197859376	3
0	20725	4937.770225889679	4
0	20726	4937.870151968325	3
0	20734	4942.103064854002	2
0	20739	4942.114824049066	1
0	20746	4943.004012961052	0
0	20750	4944.871313101879	1
0	20756	4947.329936140047	2
0	20758	4947.450309122984	3
0	20760	4947.885881683367	4
0	20762	4948.210122293098	5
0	20764	4948.303435379052	6
0	20765	4950.572318192259	5
0	20771	4950.578231673547	6
0	20772	4951.612955001412	5
0	20779	4951.782907672964	6
0	20780	4951.938395115396	5
0	20785	4952.195561995661	4
0	20790	4952.549619536426	3
0	20794	4952.840152006615	4
0	20800	4954.153768501143	5
0	20802	4954.727310968328	6
0	20803	4955.459767827322	5
0	20809	4956.66705726587	4
0	20814	4956.98615887682	3
0	20819	4959.958821650559	2
0	20825	4962.214742062277	1
0	20830	4964.83799653489	0
0	20836	4965.173281995247	1
0	20837	4967.265036071235	0
0	20849	4968.598999848378	1
0	20852	4968.819931729831	2
0	20853	4969.11026815154	1
0	20865	4972.15099519545	0
0	20871	4972.291062322226	1
0	20874	4973.109039381278	2
0	20875	4973.351931904132	1
0	20880	4973.674318350339	0
0	20884	4974.461589228893	1
0	20891	4976.312738511842	0
0	20897	4978.236144700621	1
0	20898	4978.580017852177	0
0	20912	4980.28233803213	1
0	20916	4982.348822614239	2
0	20917	4983.65977746552	1
0	20924	4983.823652974438	2
0	20925	4983.989758044366	1
0	20931	4985.343485720621	2
0	20932	4986.071697600243	1
0	20937	4986.235631135651	0
0	20952	4987.54937064977	1
0	20953	4987.621720272868	0
0	20959	4987.628938184258	1
0	20960	4987.73174648063	0
0	21004	4995.863808110636	1
0	21005	4996.330218609095	0
0	21015	4997.993476223652	1
0	21018	5000.023769371864	0
0	21040	5003.904157466922	1
0	21043	5009.304376321462	0
0	21050	5009.979138600285	1
0	21052	5010.345949375332	2
0	21053	5011.577014845593	1
0	21060	5012.179854060209	0
0	21074	5012.940536229974	1
0	21079	5018.679185305584	2
0	21080	5018.942563862511	1
0	21085	5019.177821010317	0
0	21094	5019.747527385771	1
0	21099	5021.048233361283	0
0	21130	5028.19432165589	1
0	21132	5028.20895707702	2
0	21135	5028.861748087396	1
0	21140	5030.085711562189	0
0	21173	5042.612875505274	1
0	21174	5042.748223247692	0
0	21187	5044.689639101303	1
0	21188	5045.32598511919	0
0	21217	5050.786281962596	1
0	21218	5050.97782400878	0
0	21225	5051.352797654296	1
0	21227	5051.762771869673	2
0	21231	5052.132846391827	3
0	21232	5052.409709816995	2
0	21241	5054.072054005971	3
0	21243	5054.100725325636	4
0	21245	5054.397993448551	3
0	21250	5054.850321291093	2
0	21255	5056.690419932056	1
0	21260	5057.153144638773	0
0	21291	5062.555139407851	1
0	21298	5069.20837407419	2
0	21300	5069.267804882459	3
0	21301	5069.656369276334	2
0	21310	5070.822268835966	1
0	21315	5070.83257434023	0
0	21321	5071.291040720062	1
0	21323	5071.410505885195	2
0	21324	5071.770226404855	1
0	21329	5071.955103698559	0
0	21338	5076.096259048216	1
0	21342	5078.779987549368	2
0	21346	5081.399961359863	1
0	21354	5083.979162508414	0
0	21358	5085.738025563841	1
0	21367	5089.685709591662	2
0	21370	5090.041055777387	3
0	21371	5091.052912291283	2
0	21376	5091.14821756576	1
0	21382	5091.7225082866	0
0	21419	5099.500115589232	1
0	21421	5101.475898141572	2
0	21422	5102.708647763637	1
0	21431	5106.261492898884	2
0	21432	5107.534927221012	1
0	21437	5107.72712209947	0
0	21459	5110.718532373781	1
0	21463	5110.773156915051	2
0	21464	5110.844011721495	1
0	21469	5111.180393062101	0
0	21477	5112.941342143386	1
0	21479	5115.031587245904	0
0	21487	5117.086430950397	1
0	21488	5117.93290025713	0
0	21496	5118.6865761482	1
0	21497	5119.59942807393	0
0	21511	5121.044617965087	1
0	21512	5121.345970645593	0
0	21528	5122.389686903926	1
0	21530	5122.668836773356	2
0	21531	5124.117069991418	1
0	21536	5124.136020260275	0
0	21570	5135.819373926817	1
0	21572	5137.760736275084	2
0	21576	5138.522059404574	1
0	21583	5140.895119437591	0
0	21602	5145.495746906172	1
0	21604	5147.668646076521	0
0	21626	5152.758196821018	1
0	21628	5153.059178836937	2
0	21631	5154.326433386987	3
0	21632	5155.749784410666	2
0	21639	5156.03490120344	1
0	21645	5156.608933060138	2
0	21647	5158.040729171119	1
0	21653	5159.15759158131	0
0	21668	5161.705999280965	1
0	21669	5164.55000147186	0
0	21679	5168.062646815152	1
0	21682	5169.445813474787	0
0	21699	5172.690262025797	1
0	21700	5173.009644478168	0
[...]
5	119872	28680.403444259524	0.868939345281
5	119881	28683.365149939954	3.403846681024
5	119890	28685.05237964114	2.10079572043
5	119900	28690.300635793046	5.286683962264
5	119905	28690.516560965717	4.869685949474
5	119915	28693.43056016455	6.489560038654
5	119920	28693.464012625216	2.849948661885
5	119942	28699.337931622781	5.725958083378
5	119951	28699.848319378679	4.673994366077
5	119956	28700.186971594032	2.201070210958
5	119961	28701.188986384338	1.349053307076
5	120015	28714.827838619677	1.448250897868
5	120023	28717.922550221444	2.652400710494
5	120038	28722.288122965088	1.36405639558
5	120044	28724.127440069045	2.765688921601
5	120049	28724.226667160417	2.101524047893
5	120065	28729.292320043071	4.961062934516
5	120082	28733.061920509986	2.281479101305
5	120094	28734.790514964682	3.567400791584
5	120107	28737.629705537807	5.379234231694
5	120112	28737.755809329509	4.416616640046
5	120118	28739.281945211105	4.784878448661
5	120123	28739.444624758836	4.12447403144
5	120128	28739.755414000459	3.15225854791
5	120153	28742.422852471155	1.230538334958
5	120198	28752.451217214052	4.391129738007
5	120202	28752.823605010543	1.96317020058
5	120211	28758.716281291433	0.359085887819
5	120220	28762.445361755941	0.481400020541
5	120252	28769.311545887582	0.965773157949
5	120256	28769.433925690185	0.881100207291
5	120264	28770.071650927232	0.637262473219
5	120273	28771.844070857618	0.404093599399
5	120281	28774.621072073116	0.20303419095
5	120292	28776.458188019933	1.375160043523
5	120310	28778.882816837066	0.717959362621
5	120329	28781.812365294345	2.19377262994
5	120334	28782.797735105492	1.438796627991
5	120359	28792.35180051559	6.639346626055
5	120369	28793.106386218685	7.020955250152
5	120374	28793.189262551545	6.06917389408
5	120379	28793.196412764344	0.438896889097
5	120399	28797.822439779291	3.826557107135
5	120404	28798.432394744276	1.310400726373
5	120410	28798.855002398178	1.455209676223
5	120434	28803.704919507466	0.192681922636
5	120452	28809.155795279355	4.259839115067
5	120459	28810.520122238569	4.749042067178
5	120464	28811.149718354183	3.555082936202
5	120473	28813.057986587592	4.568088725834
5	120494	28819.31174318055	3.685172714182
5	120499	28819.344460745182	0.386541534146
5	120527	28829.488888565828	1.805740381838
5	120532	28829.704388199585	1.530213538834
5	120545	28832.999962554393	3.979368566289
5	120551	28833.113573894613	2.364766914367
5	120559	28835.689928539659	4.178153329633
5	120573	28838.014576823077	1.037131684868
5	120588	28844.343793390522	0.61392339818
5	120602	28846.9686459456	0.470236103684
5	120609	28847.881425024105	0.35397434493
5	120617	28849.281880232592	0.945306410637
5	120637	28854.003761197388	0.888302129508
5	120669	28861.292982143624	5.762748185861
5	120674	28861.321710014358	3.70144029122
5	120691	28863.443820002262	1.75543533596
5	120696	28863.506503360566	1.161491603665
5	120724	28869.210845614284	0.191095876838
5	120743	28873.280673032311	3.438691363524
5	120762	28875.896798755226	1.65093708218
5	120767	28876.018894617519	1.177281798147
5	120773	28877.357102349502	2.395886072929
5	120814	28891.775045458334	1.050310980578
5	120833	28897.133299322018	2.277035045902
5	120841	28900.952705848876	4.090312357328
5	120872	28911.266503299614	7.59125939127
5	120880	28913.269101856629	8.705800072285
5	120885	28913.466200133444	5.18747348638
5	120898	28915.227320382566	2.312377251429
5	120905	28917.98218852124	2.906574990488
5	120925	28920.638200081306	1.204077891028
5	120932	28921.634101668536	1.814183894932
5	120945	28924.768585679001	2.26360891863
5	120953	28927.563867989079	1.028926460354
5	120965	28930.629556404149	0.983848053776
5	121001	28941.802130950229	1.213495026326
5	121048	28954.205875250066	1.534415361186
5	121058	28956.570656703723	3.68742630529
5	121063	28957.239152205683	4.035740470187
5	121068	28957.438867573798	2.688283266359
5	121104	28965.043601266157	5.08399603172
5	121111	28965.407350870166	5.049137983197
5	121116	28965.977276317992	5.49554458507
5	121121	28966.294988776735	4.007566227016
5	121126	28968.432286070974	3.27530889358
5	121145	28977.100575856801	8.257285244575
5	121164	28979.850226900305	1.383566947568
5	121172	28981.359189343617	0.135720291648
5	121179	28982.722155430976	0.620881018994
5	121187	28983.373708089473	0.237639781245
5	121211	28986.216354150188	1.186609470811
5	121220	28987.94367630035	2.178544938632
5	121228	28988.665222296309	2.559105744573
5	121247	28995.721617618728	8.704743250018
5	121257	28998.677239318863	11.267451575053
5	121262	28998.956972984971	10.461221077649
5	121271	29002.327908158317	11.810600023948
5	121276	29007.495511223032	15.594285915411
5	121281	29008.276471189656	15.898550508304
5	121286	29012.353516835644	19.798207246478
5	121291	29013.033826314685	16.928232585906
5	121296	29014.180406588166	17.722608870967
5	121301	29016.285324222712	16.240570899603
5	121340	29026.383335025146	6.097542446892
5	121351	29028.504381496879	8.096261376492
5	121358	29028.888671716433	4.068754518292
5	121365	29030.342947696697	5.378635914351
5	121370	29032.049332552563	5.18071759979
5	121377	29032.921143492338	5.681960601773
5	121382	29033.939106113537	6.12453326835
5	121387	29034.207650986015	5.357207046492
5	121392	29035.5719241398	5.297746890616
5	121422	29042.108962703045	5.271469432535
5	121444	29050.970086755595	7.747842788858
5	121449	29051.123806307896	6.589251779606
5	121455	29051.4603633977	6.171640046815
5	121464	29052.599532694846	6.131466541133
5	121474	29054.215880888974	1.92712514336
5	121479	29054.285013451447	1.554038651381
5	121495	29056.801908718148	0.983032187581
5	121528	29063.642615159476	3.664969822241
5	121539	29065.908010491061	4.125568200077
5	121544	29066.100267135142	1.890219440838
5	121549	29066.360053989708	1.263478415792
5	121589	29075.435741569785	4.004333310913
5	121594	29075.49574373483	4.052960880175
5	121629	29083.278203548323	6.088359681734
5	121634	29083.296312072901	5.80825970402
5	121641	29084.015810016688	6.208981796382
5	121649	29086.62484458296	7.574857634843
5	121659	29090.318702020788	10.972028519517
5	121671	29093.596471436083	13.134245633648
5	121676	29093.668861633875	9.824199374258
5	121681	29094.156173232102	8.150014413377
5	121688	29095.66394404255	4.20964657791
5	121699	29099.097466497816	6.570046771708
5	121710	29101.104848384849	6.579776079763
5	121725	29105.425071375896	9.360069536538
5	121730	29105.585638733849	8.582133162765
5	121738	29108.896773782035	10.708371968358
5	121746	29110.47129111447	10.906900233985
5	121751	29110.556049898899	10.569213905723
5	121760	29111.862795371432	11.065369288578
5	121771	29113.35874585949	11.845004478937
5	121776	29113.503818152427	7.413056515121
5	121784	29114.187375326767	2.239865325367
5	121790	29115.434765258239	2.125799395399
5	121799	29117.173386793	3.049068256352
5	121810	29120.174457388133	4.089189418335
5	121820	29121.588287393255	5.007482369139
5	121825	29122.102689428599	4.248967966506
5	121832	29124.29437366573	3.030567453834
5	121894	29136.52083518473	6.420846998861
5	121902	29137.641402942482	6.240895625211
5	121908	29137.759712359181	6.14418569204
5	121913	29138.690124696041	5.70297953124
5	121926	29142.914544097991	8.695438661626
5	121931	29143.607244203263	7.986104410171
5	121942	29146.045085058504	10.355767353988
5	121947	29147.281505132165	11.589855395473
5	121952	29149.385743961985	10.253542572274
5	121958	29152.256052391151	9.722494225589
5	121966	29153.776811710511	10.915505499094
5	121972	29154.069778930015	8.198082246854
5	121987	29157.284521522839	2.539532197424
5	122029	29169.09027006296	5.713868221097
5	122035	29170.403073856854	6.600698483076
5	122040	29171.27819063634	4.084744900039
5	122045	29172.009524436188	3.171779612584
5	122064	29174.798831534593	2.666888802472
5	122077	29176.517832012681	3.092563597388
5	122085	29178.590334389539	4.125717142774
5	122090	29179.285214290701	4.432773735
5	122096	29179.746613841398	3.733264339693
5	122104	29182.039696326134	5.826757602892
5	122110	29183.263050158288	5.694275233852
5	122116	29184.237496370337	3.942656684229
5	122131	29186.373092175765	1.814606556125
5	122171	29194.971643457417	3.9470446359
5	122176	29197.118002718335	5.050877473799
5	122191	29199.601701980907	1.120986863047
5	122205	29201.524183281023	1.481421143083
5	122219	29203.86218760647	1.917952108338
5	122247	29214.250344089915	2.045187384332
5	122262	29216.748254408877	1.063868907738
5	122292	29225.263637240129	1.65526818362
5	122296	29225.434826378281	0.668250518383
5	122316	29229.063273908437	1.710340992755
5	122326	29230.226671477198	2.556296798004
5	122353	29236.936462773986	1.445222640963
5	122361	29237.231764459414	1.334918045061
5	122365	29237.556856861802	0.549594795343
5	122373	29238.906346831519	0.026107184146
5	122382	29242.865824531246	0.41906923665
5	122390	29243.477733922071	0.291469606329
5	122399	29244.652592872733	0.873471411007
5	122411	29246.74433556078	1.486726392605
5	122460	29261.071983313596	1.087596020638
5	122469	29262.357777636962	0.039203510295
5	122482	29265.717950489475	0.477332331466
5	122498	29268.004568721966	2.217177784964
5	122506	29268.987287390501	1.425999517804
5	122513	29270.031599943417	1.22265092237
5	122521	29272.822753803545	3.486618214394
5	122540	29277.019482943529	1.638625216255
5	122547	29279.272116339006	0.526118040583
5	122575	29288.325134420059	2.465845100495
5	122579	29288.874480580572	1.923537551558
5	122589	29293.014117555576	1.755212667797
5	122615	29299.618509317269	1.047361916342
5	122622	29300.466735131566	1.722557014041
5	122635	29302.164095266263	0.685816565314
5	122642	29302.673048425496	0.028496414705
5	122651	29306.542002648783	0.014260241433
5	122674	29313.887668017013	2.308490725722
5	122681	29314.510206299156	1.86556418776
5	122687	29315.986766145443	3.036103921675
5	122692	29317.557129040684	3.591482336277
5	122699	29318.083180863726	0.37742933324
5	122706	29321.292158869034	0.865775192297
5	122717	29326.722482929068	2.171923365577
5	122724	29330.90763732314	1.096676299012
5	122739	29334.0468757108	1.199420902874
5	122747	29337.567068249239	0.386356023798
5	122756	29338.218538455593	0.130110579724
5	122764	29339.119215105224	0.332496974797
5	122778	29340.796355354742	1.038708079675
5	122783	29341.078711574727	1.199983118916
5	122800	29345.674840950767	2.955187359279
5	122820	29352.29175883391	5.346615512088
5	122825	29353.78160474239	5.118952116453
5	122844	29355.571001611814	0.044255092498
5	122852	29357.048541030415	1.484620145112
5	122856	29357.30756801495	1.176523823031
5	122880	29364.277032184551	2.504232489384
5	122885	29364.720916091177	1.669832365279
5	122895	29367.254597712337	4.052427370762
5	122905	29368.911688825419	3.497952024567
5	122910	29369.373403181613	0.812436078963
5	122921	29372.562845580155	1.423904348414
5	122944	29379.637655409823	2.891750143314
5	122954	29381.712557023566	1.840684795218
5	122958	29381.727298372752	0.183281141963
5	122987	29390.91372455616	2.096027947469
5	122991	29392.101393976871	1.6225220986
5	123010	29394.533119356158	2.203788364471
5	123014	29394.608903994257	0.202939387353
5	123024	29395.523908398245	0.535076635312
5	123030	29397.420195228516	2.313412257684
5	123044	29398.862735393654	0.011304103382
5	123059	29402.812339086209	0.021626534679
5	123068	29405.948503628183	0.608602196755
5	123075	29406.415395042527	0.03311211226
5	123109	29418.768947283127	5.580974277853
5	123114	29419.048935657536	5.128056971361
5	123129	29425.195225758002	10.108573054173
5	123138	29426.968781185698	10.632955198235
5	123145	29427.282352625846	9.27656236294
5	123151	29427.744362486168	8.261559718356
5	123160	29429.51644215335	8.691450272225
5	123169	29430.167427605013	7.398416570568
5	123175	29430.45614505691	7.333036217368
5	123180	29431.495425555125	5.689680046674
5	123189	29434.19277065969	7.210941173141
5	123196	29436.763766825882	7.807059854617
5	123202	29437.098349707918	7.015236113019
5	123212	29438.350474314968	4.314045768745
5	123221	29439.554082639705	2.076435508791
5	123274	29454.017769766422	1.096058447887
5	123308	29466.374901109409	4.766914727187
5	123313	29466.610504954467	1.479539514156
5	123322	29468.714170459127	2.478265405344
5	123359	29478.267484556768	2.384947196196
5	123370	29484.659013938277	7.478704393565
5	123375	29484.973234335676	7.198909428602
5	123382	29485.523511925436	6.363494154351
5	123387	29485.984429002998	4.473802495256
5	123398	29490.560003376199	2.160070746125
5	123428	29496.355281420167	0.710080088659
5	123432	29497.187994889161	0.979084078913
5	123441	29501.465283845846	0.024158838423
5	123471	29509.810435742381	4.355239348624
5	123486	29513.406661144538	2.738241185311
5	123501	29518.213477623715	0.793392920636
5	123516	29520.929584074983	1.939128169365
5	123522	29521.91530316762	1.942567439439
5	123545	29528.896564784412	4.071164436631
5	123550	29529.031964244859	3.103061433583
5	123559	29530.620167230964	3.028141274605
5	123569	29532.357361259449	2.637166878123
5	123575	29532.703968654747	2.639756912557
5	123580	29532.81433560451	0.587564648426
5	123597	29537.857810285864	0.140978993854
5	123606	29540.670357334588	1.643175963815
5	123613	29542.289867052418	0.791065034859
5	123622	29545.881964369243	0.858633407821
5	123635	29548.156469046042	1.297987287726
5	123640	29549.260736956222	1.867104386279
5	123652	29551.490045092233	1.118031260331
5	123663	29552.902634460076	1.946261276567
5	123669	29553.020104921235	0.455758322706
5	123692	29559.421989554673	3.561877324295
5	123716	29568.553305098434	4.429938592526
5	123723	29568.779736609982	2.930100473181
5	123750	29575.327707744712	4.35865571399
5	123758	29576.935489028466	4.984855746457
5	123763	29576.992446442876	3.217745823014
5	123769	29578.058852532107	4.135767217724
5	123774	29578.197393630441	2.780682859047
5	123794	29582.862490134979	4.095605507014
5	123817	29589.711670578079	9.511692076534
5	123822	29589.762379955333	8.591021518169
5	123828	29591.981406204835	7.573511463199
5	123837	29592.494378001673	7.136629103689
5	123842	29593.208276376091	7.67705174124
5	123850	29596.715333701405	10.219747348787
5	123857	29597.305214630645	8.762875496715
5	123870	29601.417316378136	12.596776478913
5	123876	29602.71845439247	13.611358561446
5	123884	29606.74782002698	17.609812988906
5	123889	29606.754584400289	14.649132253335
5	123895	29607.380592176045	15.190033270619
5	123900	29607.905895387951	10.997406344425
5	123905	29608.082616789619	7.541639585306
5	123914	29609.705170654786	8.466958353837
5	123921	29611.322507052862	2.164856370968
5	123949	29619.329566375526	2.468547861345
5	123958	29621.262412753064	3.332711755678
5	123963	29621.708618804313	1.355556866233
5	123971	29622.94564062408	1.712881502286
5	123976	29623.368525416982	0.844954619357
5	123993	29626.354778241091	0.178160855707
5	124002	29628.848404197517	0.288734407531
5	124014	29633.728185834282	1.838792318005
5	124019	29634.637738407339	2.120618195683
5	124039	29639.016772649532	3.052102840755
5	124064	29645.300738750262	0.053299616144
5	124073	29650.530072408084	0.163257406299
5	124085	29653.828787624974	1.703077166544
5	124092	29654.809615217797	2.479160190243
5	124096	29654.912916155312	0.492106515246
5	124112	29658.553182704687	0.092553814383
5	124128	29660.365900559694	0.946131240015
5	124136	29661.538694019396	0.54872998573
5	124145	29662.962117280128	1.006596444502
5	124165	29666.564182056016	3.410882661466
5	124172	29667.383081265788	3.43272074792
5	124190	29670.184781627688	0.363390247924
5	124197	29670.369168815722	0.085238551834
5	124208	29674.010520917331	0.271073327828
5	124217	29675.337983266273	0.449510725441
5	124259	29688.883522406131	5.858988348683
5	124264	29689.145386523897	4.071802640385
5	124280	29693.995836060109	5.831390901435
5	124292	29696.973186439618	8.604430253451
5	124298	29697.199453259357	4.6686873445
5	124303	29697.835482801931	4.932158589806
5	124311	29698.679358388329	5.459473801654
5	124321	29700.577186882295	5.601790057582
5	124328	29702.004405961259	2.531497737551
5	124334	29702.808207199022	2.670602127238
5	124339	29705.46453894282	4.687440960432
5	124386	29714.088206488448	1.716767533676
5	124403	29716.058310866843	1.434015316678
5	124409	29716.307793399333	1.456141699107
5	124426	29719.449047389754	3.127181539724
5	124431	29720.231718238256	1.20432901635
5	124446	29724.487083343339	4.000060302104
5	124451	29724.577245423199	1.759458644139
5	124463	29726.017132119656	0.762244978944
5	124470	29727.193466107378	0.990562157895
5	124487	29732.4664910947	0.571225691456
5	124511	29745.553341839327	2.803624081915
5	124518	29747.667675293849	4.760412231973
5	124529	29749.232580896219	0.028328701289
5	124537	29753.581885535132	0.750340607747
5	124549	29756.801901899794	0.724468382723
5	124576	29768.143105913825	8.177274751694
5	124582	29769.049004998393	7.11208587524
5	124586	29769.851765876938	2.48018902882
5	124598	29774.582266257668	1.373413218062
5	124602	29775.007668246458	0.781519584385
5	124612	29778.945898406563	0.504913435164
5	124637	29782.184860004811	0.539733838707
5	124643	29783.922500218418	2.166556098967
5	124655	29785.815154909975	0.634379911243
5	124660	29786.349755973342	0.982778585862
5	124664	29787.327795697443	1.541813140845
5	124676	29793.38150253362	0.940946520891
5	124692	29794.568553379763	1.035265566102
5	124709	29799.560048061047	1.722395675448
5	124719	29801.637379219556	3.405606625851
5	124724	29803.123940049086	3.127714804829
5	124729	29803.372190559899	1.735364747235
5	124738	29807.466375647974	1.727316908066
5	124752	29811.974012388502	1.633146349853
5	124761	29813.19130951536	0.512056242962
5	124785	29818.63645507059	0.219488695442
5	124825	29834.894885987234	1.744074250468
5	124859	29848.615724249126	0.224095781708
5	124868	29852.574662738872	1.927861760875
5	124882	29855.274143612254	1.771682709794
5	124894	29858.287982448732	2.199133951413
5	124899	29858.439955776636	1.202338733998
5	124906	29859.070294278115	1.47137206277
5	124921	29862.640606515529	0.370671548998
5	124928	29863.335386967724	0.199255988633
5	124938	29865.628175559256	0.926034607555
5	124946	29868.069663056679	0.379167808595
5	124955	29870.088475755832	1.027762342834
5	124969	29873.340075988584	0.023620004151
5	124979	29876.08002936345	1.685835956855
5	124994	29878.270566761494	2.171923876572
5	124999	29880.539276970179	2.407129943927
5	125013	29883.053437096288	1.931766501867
5	125029	29890.215577279836	5.185186043446
5	125033	29890.444041316549	2.395108441412
5	125051	29894.624759245203	0.648246311595
5	125061	29895.577587661076	0.431006822376
5	125065	29895.85081311691	0.485586889391
5	125081	29899.89072147963	3.080928735777
5	125088	29901.65456168493	4.061694301785
5	125102	29902.432406339196	0.447171477245
5	125126	29907.927311092632	4.937910867613
5	125131	29907.974630762129	3.146798997577
5	125144	29909.324153277626	0.000376565429
5	125153	29912.598902006916	0.050886747131
5	125161	29913.392973293731	0.040577836233
5	125170	29918.81870161633	1.194186222712
5	125177	29919.516382080085	0.297701144204
5	125194	29924.872480428372	0.988080744754
5	125225	29933.091476013475	1.861878701452
5	125231	29933.921341417291	2.583020839113
5	125235	29933.992454703893	0.981064475787
5	125243	29935.181279292856	0.948344106922
5	125258	29936.672779860578	0.323173379182
5	125278	29943.006507769255	0.917954453709
5	125283	29944.235225452889	1.583886825528
5	125301	29947.802141450597	0.510816150889
5	125310	29950.509011464524	2.767880800234
5	125315	29950.798073242599	2.584613592759
5	125323	29951.910371709626	3.152281654673
5	125336	29955.669409181026	1.795012774841
5	125344	29958.575309515363	0.016184172521
5	125357	29964.777282647946	0.826487254309
5	125366	29965.893674714561	1.761338921043
5	125375	29967.799684053407	3.594546683323
5	125380	29968.213282506799	3.293841300649
5	125396	29976.999414518489	5.030027548442
5	125400	29977.167863189889	1.795641196083
5	125408	29978.213874694625	0.178271615732
5	125424	29981.282177733711	1.596562944028
5	125431	29982.539454804667	0.769628151363
5	125459	29991.525143950034	2.044877842673
5	125473	29994.916613617784	0.500674476636
5	125480	29995.655381238076	1.157800291043

