version 2
run Second-n4-19-20191016-14:53:29-6040
attr configname Second-n4
attr datetime 20191016-14:53:29
attr experiment Second-n4
attr inifile omnetpp.ini
attr iterationvars ""
attr iterationvarsf ""
attr measurement ""
attr network org.omnetpp.queueing.Pizza
attr processid 6040
attr repetition 19
attr replication ""
attr resultdir results
attr runnumber 19
attr seedset 19
param **.PS.maxInventoriedPS 4
param **.U1.interArrivalTime exponential(3s)
param **.U2.interArrivalTime exponential(5s)
param **.PS.serviceTimeForInventoryU1 exponential(1.0s)
param **.PS.serviceTimeForInventoryU2 exponential(1.2s)
param **.PS.serviceTimeDirectU1 exponential(1.4s)
param **.PS.serviceTimeDirectU2 exponential(1.4s)
param **.PS.probabilityProducing 0.7
param **.CS.serviceTimeU1 exponential(1.1s)
param **.CS.serviceTimeU2 exponential(1.4s)

vector 0 Pizza.EntryQueueU1 queueLength:vector ETV
attr interpolationmode sample-hold
attr title "queue length, vector"
vector 1 Pizza.CS queueLength:vector ETV
attr interpolationmode sample-hold
attr title "queue length, vector"
vector 2 Pizza.EntryQueueU2 queueLength:vector ETV
attr interpolationmode sample-hold
attr title "queue length, vector"
vector 3 Pizza.sink lifeTime:vector ETV
attr interpolationmode none
attr title "lifetime of arrived jobs, vector"
attr unit s
vector 4 Pizza.sink lifeTimeU2:vector ETV
attr interpolationmode none
attr title "lifetime of arrived jobs, vector"
attr unit s
0	0	0	0
0	19	4.604882837312	1
0	22	5.455398938106	0
0	56	20.919726512052	1
0	57	21.912245520393	0
0	73	25.426295883307	1
0	74	25.786059708306	0
0	105	33.267396245715	1
0	106	33.928972148377	0
0	121	38.515788326418	1
0	123	41.260492640148	2
0	124	42.677026167419	1
0	131	43.175493221506	0
0	157	49.317100455871	1
0	160	51.137624109418	0
0	175	53.707107248555	1
0	179	55.794825040102	2
0	180	57.385533624945	1
0	186	57.390680950789	2
0	190	57.743023147026	3
0	191	57.878960383999	2
0	199	59.449643577809	1
0	204	59.580455002642	0
0	210	60.680103209859	1
0	216	63.309664908828	2
0	221	66.143831541237	1
0	226	66.706045937116	0
0	248	69.602853485245	1
0	251	70.464454633401	2
0	253	71.15060646269	1
0	260	71.601562861249	2
0	261	72.246492416037	1
0	266	72.318388340969	0
0	273	72.777819257843	1
0	275	73.794835609189	2
0	278	74.448611471393	1
0	284	76.340003615613	0
0	309	80.724388723113	1
0	311	81.17821530602	2
0	313	81.778394271036	1
0	319	81.804802818168	2
0	321	82.417906215872	3
0	325	86.381842311488	2
0	332	86.596428373217	3
0	333	87.0738774763	2
0	338	88.442943385579	1
0	343	90.309871656706	0
0	360	92.898342548877	1
0	362	93.830441326599	2
0	364	94.167931833023	3
0	366	94.342578339261	4
0	367	94.563555251652	3
0	372	94.961103056054	2
0	379	95.518569897086	3
0	381	95.607982678916	4
0	383	97.847566815553	3
0	389	98.153316762458	2
0	397	98.514089727826	3
0	398	98.565304206505	2
0	408	100.975672250829	3
0	409	101.060902916354	2
0	415	101.3171576068	3
0	416	101.380516138773	2
0	422	102.277218701841	1
0	427	102.520047169591	0
0	467	114.792321523454	1
0	471	115.301170260166	2
0	475	117.113534411311	3
0	476	117.720604786003	2
0	481	117.802537177568	1
0	487	117.912120829216	2
0	491	119.364638449415	1
0	496	119.45831292398	0
0	524	124.673957514664	1
0	526	125.340436258495	2
0	527	125.426733451087	1
0	535	126.702241255394	2
0	536	126.705964388992	1
0	542	127.074148446797	2
0	544	127.157720798441	3
0	546	127.654230444467	2
0	551	128.237630986915	1
0	557	129.00778236597	0
0	573	131.224209925267	1
0	574	133.267816847934	0
0	588	134.336010855898	1
0	596	136.554844922855	2
0	598	138.314025529365	3
0	602	140.982684196539	2
0	609	141.586717071607	3
0	610	141.723921796326	2
0	615	142.296594485217	1
0	622	143.572756420724	2
0	623	145.376623054569	1
0	631	146.562145432574	0
0	642	148.282270198146	1
0	644	148.306884801435	2
0	646	148.756170546236	3
0	652	151.891060497192	2
0	657	152.358699080201	1
0	662	153.624536614939	0
0	677	154.500620268758	1
0	681	154.914358845894	0
0	714	162.586371704509	1
0	715	162.820792494077	0
0	729	166.540730080358	1
0	731	167.041365409484	2
0	737	169.802654418516	1
0	742	170.061607697394	0
0	759	171.516309794795	1
0	760	171.678478864499	0
0	782	176.707698952775	1
0	786	176.826052073755	2
0	791	177.847974857562	1
0	798	182.671412920264	0
0	804	182.679011296743	1
0	805	182.804003687864	0
0	827	185.311502144581	1
0	829	185.788148202041	0
0	858	193.516627390298	1
0	859	193.825075166014	0
0	910	202.628796290382	1
0	912	204.680378063154	2
0	915	205.142034154869	1
0	920	205.484902222835	0
0	933	209.071567308145	1
0	934	209.410763275313	0
0	945	211.874559713772	1
0	949	213.351720099689	2
0	954	214.130284968816	1
0	959	214.288451659674	0
0	977	220.941395699068	1
0	979	221.32877179425	2
0	985	230.082681443596	3
0	987	230.746703744949	4
0	988	231.351491933185	3
0	994	231.399676416971	4
0	997	231.705359072568	5
0	999	231.901730468926	6
0	1001	233.821636443507	5
0	1007	234.092788693746	4
0	1013	234.865816135969	3
0	1018	235.722165458237	2
0	1024	236.124645709158	3
0	1025	236.387042869388	2
0	1031	237.320445275773	1
0	1038	238.186965899983	2
0	1039	238.422157047652	1
0	1048	239.84014437289	0
0	1056	242.253965551624	1
0	1058	242.762385469787	2
0	1061	243.262207744887	3
0	1062	243.645374494467	2
0	1069	243.79734656576	3
0	1071	244.184057692692	4
0	1072	245.152434923564	3
0	1077	245.161392386207	2
0	1082	245.687237890659	1
0	1086	247.750972601629	2
0	1089	248.374402174925	1
0	1097	254.559684463475	0
0	1138	263.164074397074	1
0	1140	263.502730024246	2
0	1146	264.851436557565	3
0	1150	265.5348987742	4
0	1151	266.544258729992	3
0	1156	266.662346189597	2
0	1162	267.332853569199	1
0	1171	268.500310243232	2
0	1172	268.989483544955	1
0	1178	270.694602702107	0
0	1199	277.941586574827	1
0	1200	278.058426177135	0
0	1219	286.538897382548	1
0	1222	287.864609194678	0
0	1228	287.926208992321	1
0	1232	288.883635174785	0
0	1238	289.437553280982	1
0	1239	289.47045806572	0
0	1268	293.624285959885	1
0	1269	294.129711287983	0
0	1287	299.21216477758	1
0	1290	299.945444883677	2
0	1291	300.378169541664	1
0	1297	300.701286610809	0
0	1310	301.344969200037	1
0	1311	301.480695429279	0
0	1330	304.31776055813	1
0	1332	305.472553142909	0
0	1338	305.54069615797	1
0	1340	307.526766873048	0
0	1380	326.370308179836	1
0	1381	326.893812315925	0
0	1393	329.161151500683	1
0	1394	329.720055194832	0
0	1400	330.075126094817	1
0	1401	330.472143298842	0
0	1408	331.970941280613	1
0	1409	332.315478848263	0
0	1434	341.545789466131	1
0	1437	342.236872908102	0
0	1467	348.168413631484	1
0	1469	348.816534616562	2
0	1471	349.037511272393	3
0	1478	351.998114888101	2
0	1488	354.278256476376	1
0	1495	354.835785496852	2
0	1496	354.899931130073	1
0	1502	355.394735389366	2
0	1505	355.6296817378	3
0	1507	358.418114673525	2
0	1515	360.976830919117	1
0	1521	361.564529790305	0
0	1554	367.845761414226	1
0	1556	368.428865471582	2
0	1557	369.932132352321	1
0	1562	370.509254691389	0
0	1570	371.775522523416	1
0	1571	371.826201936053	0
0	1579	372.529397471181	1
0	1580	372.982491213475	0
0	1600	375.832908874616	1
0	1605	378.051860129097	2
0	1606	378.604638464137	1
0	1613	379.711820090982	0
0	1645	383.818733888991	1
0	1653	387.886468603518	0
0	1660	388.748994733668	1
0	1661	389.33508370444	0
0	1670	389.462567103569	1
0	1674	391.377593771615	0
0	1685	391.808481762105	1
0	1686	392.382194135719	0
0	1706	396.250767832865	1
0	1707	396.813467987182	0
0	1751	407.254499123121	1
0	1752	407.380116351465	0
0	1776	413.66057072074	1
0	1778	415.308125038932	2
0	1780	416.037104054838	3
0	1781	417.932770030892	2
0	1786	418.207140558151	1
0	1792	418.366585771572	2
0	1796	419.546212589009	1
0	1801	419.930175184345	0
0	1838	432.692809990985	1
0	1839	434.433927574387	0
0	1843	434.747860684339	1
0	1846	435.446570148289	0
0	1886	445.481864872043	1
0	1890	446.685494640334	0
0	1896	448.954073439213	1
0	1898	449.206021013418	2
0	1899	451.711148506731	1
0	1904	452.575570685954	0
0	1976	472.326681805258	1
0	1977	473.048093392633	0
0	2006	477.153267780226	1
0	2007	477.737693962632	0
0	2013	478.096916412248	1
0	2017	479.320678070431	0
0	2031	481.086610775678	1
0	2032	481.424747707551	0
0	2076	496.78207585314	1
0	2077	498.123913006624	0
0	2108	512.937024391208	1
0	2111	513.181175374668	0
0	2151	523.549359894008	1
0	2155	525.523014891327	2
0	2156	526.739148969045	1
0	2161	526.936334546193	0
0	2176	529.642021180291	1
0	2180	530.781021685597	2
0	2181	531.407957583746	1
0	2189	534.420031879332	2
0	2193	535.997014229192	1
0	2198	536.440395521865	0
0	2204	536.463008823162	1
0	2208	536.569341399364	2
0	2209	536.836964991002	1
0	2214	537.086412356705	0
0	2229	542.626783225315	1
0	2230	543.720880617232	0
0	2242	545.421059721627	1
0	2243	548.767618718168	0
0	2264	551.577907246074	1
0	2266	552.845889772414	0
0	2272	553.250450898639	1
0	2273	553.271118623853	0
0	2289	555.381323190055	1
0	2290	555.455193205821	0
0	2319	561.780979596731	1
0	2321	561.941830755792	2
0	2322	562.437154354451	1
0	2328	563.262870813494	2
0	2329	563.470670515055	1
0	2336	564.567364335091	0
0	2410	577.138784659357	1
0	2411	577.748221579131	0
0	2424	580.120457229848	1
0	2426	580.226815583396	2
0	2428	580.559724249017	3
0	2429	581.03968363986	2
0	2434	581.138991739684	1
0	2442	582.723352774311	0
0	2448	582.895834167433	1
0	2452	584.497681792433	0
0	2464	585.294964539815	1
0	2467	586.386816750279	2
0	2468	586.62461335734	1
0	2473	587.475159780539	0
0	2495	592.260005135065	1
0	2496	592.747156551071	0
0	2543	610.501617879143	1
0	2544	611.447388762235	0
0	2550	611.632959284161	1
0	2552	612.924664691628	0
0	2581	621.794873629889	1
0	2582	621.965069481059	0
0	2588	622.50039212336	1
0	2591	624.071985189555	0
0	2619	628.806615839163	1
0	2623	629.749607426538	2
0	2626	630.406782293482	1
0	2632	631.061305281488	0
0	2650	632.336887756361	1
0	2651	632.60169858597	0
0	2671	638.605818049261	1
0	2674	639.558007381973	2
0	2676	640.193036956011	3
0	2678	642.769295917874	4
0	2679	642.855705766835	3
0	2687	645.252899159486	2
0	2694	645.691696005614	3
0	2696	646.781839166076	4
0	2697	646.938318160898	3
0	2702	647.12551307892	2
0	2711	648.367324469837	1
0	2717	648.719785190765	0
0	2723	649.617346402654	1
0	2724	649.826669120708	0
0	2749	653.461046052173	1
0	2750	655.218178088443	0
0	2788	666.495646882997	1
0	2790	667.302851324599	2
0	2793	668.490083037653	3
0	2795	669.619976483534	4
0	2798	670.072401625584	3
0	2807	672.272096835263	4
0	2808	672.456358396018	3
0	2813	672.679723051288	2
0	2820	675.046500526354	1
0	2825	676.258372546606	0
0	2839	677.44264588682	1
0	2841	678.665032269092	2
0	2842	679.317739360923	1
0	2847	679.635395412531	0
0	2869	683.414816221762	1
0	2871	684.459527354432	2
0	2873	686.630094675356	3
0	2876	687.699575320114	2
0	2885	690.367362660044	1
0	2890	690.475736838201	0
0	2926	696.293180528624	1
0	2929	699.594249843833	0
0	2941	701.66728254755	1
0	2942	702.138775755397	0
0	2995	721.731564839929	1
0	2997	721.925802320079	2
0	2998	722.09230813017	1
0	3003	722.319504088633	0
0	3009	723.394480224216	1
0	3010	723.595821440713	0
0	3052	742.017330901262	1
0	3053	743.150306419346	0
0	3068	746.668945271202	1
0	3069	746.832322397266	0
0	3084	747.858661546331	1
0	3086	747.955954266978	2
0	3088	750.815934766401	1
0	3093	750.986393617775	0
0	3106	755.975041086824	1
0	3109	757.280291125302	0
0	3121	760.051504929123	1
0	3122	760.626022881544	0
0	3133	766.534055069569	1
0	3135	767.962003727836	2
0	3141	770.01501847708	1
0	3147	770.053008759092	2
0	3148	770.271633894505	1
0	3153	770.838741609418	0
0	3165	772.011087533341	1
0	3166	772.302721990402	0
0	3174	773.108896620617	1
0	3177	774.391963041279	0
0	3195	776.816720155263	1
0	3196	776.824732281445	0
0	3221	785.891054852822	1
0	3222	786.385912976417	0
0	3230	787.139317936491	1
0	3231	787.208214456981	0
0	3257	792.906650457615	1
0	3258	793.136651149669	0
0	3275	797.298991326414	1
0	3278	797.71928108033	0
0	3290	803.270262913146	1
0	3291	803.288820244092	0
0	3298	804.327124685091	1
0	3302	804.884698002777	2
0	3303	806.457001843675	1
0	3309	807.257640090763	2
0	3312	807.893703595383	3
0	3315	809.192926236233	4
0	3318	809.56186474662	5
0	3319	809.58198905089	4
0	3324	810.589205090751	3
0	3329	810.598074139627	2
0	3334	810.928644722279	1
0	3339	812.300041955483	0
0	3366	816.334886979169	1
0	3367	816.95042917306	0
0	3373	817.968028958323	1
0	3375	818.296091017021	2
0	3377	818.729157420808	3
0	3378	819.130702696198	2
0	3384	819.652109174194	1
0	3390	820.293064834989	0
0	3437	841.034056661243	1
0	3439	841.380729040593	2
0	3447	842.157446928073	3
0	3448	842.982366196189	2
0	3454	843.945803862496	3
0	3455	843.955326455395	2
0	3460	844.111744820439	1
0	3465	845.048264383534	0
0	3475	846.452792280518	1
0	3478	846.721751893557	0
0	3486	847.625018850885	1
0	3490	849.032947360755	2
0	3491	849.361934804779	1
0	3496	850.532900248021	0
0	3500	850.689945962487	1
0	3507	853.892972176513	2
0	3508	854.796066826651	1
0	3516	855.553664111536	0
0	3520	856.513729970934	1
0	3522	857.018691880176	2
0	3526	858.116310032626	1
0	3534	860.138880646479	0
0	3557	863.862468940647	1
0	3559	864.458834160599	2
0	3560	864.998243876876	1
0	3565	865.171839838723	0
0	3571	866.825636870991	1
0	3572	867.28394830721	0
0	3597	872.765888945293	1
0	3599	873.154097923709	0
0	3616	873.99663015856	1
0	3620	874.747696307862	0
0	3646	876.514605611622	1
0	3647	877.996173601319	0
0	3689	886.919983456233	1
0	3690	887.519045870009	0
0	3743	907.255891745947	1
0	3744	907.310962671229	0
0	3775	913.565257351423	1
0	3776	913.755098092699	0
0	3798	915.941273685755	1
0	3805	918.2006091301	2
0	3806	918.859553224785	1
0	3811	918.9546231307	0
0	3893	942.300010647819	1
0	3894	942.497936722896	0
0	3910	943.435726024723	1
0	3911	944.241821240908	0
0	3925	948.897151173937	1
0	3927	949.499221434788	2
0	3930	951.733335321241	1
0	3941	952.98022152845	0
0	3948	955.433785783826	1
0	3949	956.201642710301	0
0	3967	960.60453331435	1
0	3969	962.962026744255	2
0	3974	965.769890901436	1
0	3980	967.192737197947	0
0	3991	967.745734784105	1
0	3996	969.80157709127	0
0	4005	970.400117418267	1
0	4011	972.893025638904	0
0	4026	976.189560842449	1
0	4027	976.594589598127	0
0	4049	978.99433562866	1
0	4051	979.334261364765	2
0	4054	980.774174120058	3
0	4055	981.542416604044	2
0	4061	981.973799400462	1
0	4067	982.098823813101	0
0	4091	985.173514696527	1
0	4093	985.894569022883	0
0	4185	1020.123319710981	1
0	4188	1020.789928453461	2
0	4193	1022.468230822519	3
0	4194	1024.680394638447	2
0	4201	1026.969575988337	1
0	4207	1027.602267526162	2
0	4208	1027.771807586185	1
0	4214	1028.082442219111	2
0	4215	1028.136258012744	1
0	4220	1029.578447045454	0
0	4226	1029.705571450598	1
0	4230	1030.22061569937	2
0	4232	1030.990056798319	1
0	4238	1031.289488254988	2
0	4239	1031.304620494689	1
0	4243	1031.41472944363	2
0	4246	1032.121516963469	1
0	4253	1033.312349357651	2
0	4255	1033.91325376304	1
0	4260	1034.313214135319	0
0	4266	1035.09145897843	1
0	4268	1035.827272682298	2
0	4269	1035.845203002101	1
0	4273	1037.182151948317	2
0	4276	1037.684476390167	1
0	4284	1040.706254666378	0
0	4305	1044.953821173481	1
0	4307	1045.196447080206	0
0	4315	1046.0013940549	1
0	4317	1046.384719640804	2
0	4318	1046.971713824025	1
0	4326	1047.725743177635	2
0	4327	1047.80036542319	1
0	4333	1047.886280716912	2
0	4334	1048.453615065637	1
0	4341	1049.184909429696	2
0	4342	1049.624447714716	1
0	4350	1050.407940579091	2
0	4351	1050.52272820125	1
0	4357	1051.46689485136	2
0	4364	1054.290432122132	3
0	4366	1055.822904634785	2
0	4371	1056.456302226238	1
0	4376	1056.974286833676	0
0	4410	1062.936308111025	1
0	4413	1063.383291205709	2
0	4414	1064.446810757252	1
0	4419	1064.484697592514	0
0	4447	1069.716887098185	1
0	4449	1070.803909356188	2
0	4453	1072.177781539299	1
0	4462	1073.716014379576	0
0	4474	1074.478652278591	1
0	4479	1077.990834853199	0
0	4485	1078.072612506225	1
0	4486	1078.09579985799	0
0	4508	1084.595582550946	1
0	4511	1085.279446484439	0
0	4522	1086.36497421391	1
0	4526	1087.21842412311	2
0	4530	1088.674646826057	1
0	4535	1089.193765103411	0
0	4546	1090.292648583725	1
0	4552	1091.40521371307	2
0	4557	1092.838042236333	3
0	4560	1093.311638509334	4
0	4562	1093.990057152176	3
0	4567	1094.054106599401	2
0	4572	1094.446196625366	1
0	4581	1096.259945962646	2
0	4582	1097.995541185214	1
0	4587	1098.101517071111	0
0	4602	1103.959727633478	1
0	4603	1104.627077996304	0
0	4620	1108.088228218285	1
0	4621	1108.12987543163	0
0	4649	1115.165437092534	1
0	4652	1115.843379603201	0
0	4661	1117.924901022733	1
0	4662	1117.971319189453	0
0	4668	1118.014467504206	1
0	4670	1119.086186560574	0
0	4730	1132.652973516856	1
0	4732	1134.085373458304	2
0	4733	1134.313431197913	1
0	4739	1134.726227209678	2
0	4740	1136.645250168805	1
0	4745	1137.133341274873	0
0	4751	1137.174640982657	1
0	4758	1140.585344633617	0
0	4779	1143.303488335603	1
0	4780	1143.606007136307	0
0	4786	1143.775504948416	1
0	4787	1144.411303317555	0
0	4808	1150.436529855431	1
0	4809	1150.560275688751	0
0	4815	1150.611680979995	1
0	4817	1151.668904356457	0
0	4861	1168.540543608157	1
0	4862	1172.524968750759	0
0	4877	1176.785720467855	1
0	4878	1176.796140188744	0
0	4884	1176.998062125208	1
0	4886	1177.581324477683	0
0	4892	1177.744414538028	1
0	4893	1178.029804405486	0
0	4899	1178.330054141982	1
0	4904	1179.081116151746	0
0	4910	1180.741550820266	1
0	4912	1181.588042156751	2
0	4917	1183.86513811681	3
0	4918	1184.349191002213	2
0	4923	1185.575821718524	1
0	4928	1186.250544214211	0
0	4946	1187.200398996844	1
0	4951	1188.357074445609	2
0	4954	1191.377744725748	3
0	4957	1191.992168974053	2
0	4963	1194.622265537712	1
0	4968	1195.610666521163	0
0	4976	1196.919798154386	1
0	4977	1197.028465320944	0
0	5007	1201.857435459838	1
0	5008	1202.42004330091	0
0	5014	1203.688651002854	1
0	5020	1206.343286750383	0
0	5123	1245.127285035328	1
0	5124	1245.188820635182	0
0	5147	1255.224276953644	1
0	5149	1256.132721614166	2
0	5150	1256.736235433806	1
0	5156	1257.025751061101	2
0	5158	1257.687488362443	1
0	5163	1258.1870320916	0
0	5243	1288.562368418248	1
0	5244	1290.873945584137	0
0	5250	1291.114247267272	1
0	5252	1291.849043682273	0
0	5276	1296.750977544438	1
0	5278	1297.094367427004	0
0	5284	1297.95925099356	1
0	5287	1298.237562178703	0
0	5395	1326.381964412884	1
0	5397	1326.805379599175	2
0	5403	1327.915269143756	3
0	5405	1330.163882712746	4
0	5406	1330.416090086222	3
0	5412	1330.546215918271	4
0	5413	1330.996658165188	3
0	5418	1331.708520775965	2
0	5423	1331.828458336815	1
0	5429	1332.383521557508	2
0	5433	1334.33551063849	3
0	5435	1335.114971391741	4
0	5436	1335.14917613302	3
0	5443	1337.359703692926	2
0	5449	1337.634187698269	3
0	5451	1339.450906484619	2
0	5456	1339.588528991542	1
0	5461	1340.634979226419	0
0	5465	1340.958222728161	1
0	5470	1342.266751216906	2
0	5473	1342.382699622912	3
0	5474	1343.510161801002	2
0	5479	1343.70702186956	1
0	5493	1346.775240581379	0
0	5501	1347.783790325155	1
0	5505	1349.428601245738	2
0	5506	1350.267523226077	1
0	5512	1350.315783866869	2
0	5513	1350.930643636042	1
0	5518	1350.951221519046	0
0	5532	1353.517528076626	1
0	5534	1354.295673301147	2
0	5538	1354.971787223381	3
0	5543	1355.57943285454	4
0	5545	1355.966214059642	5
0	5546	1356.421901341467	4
0	5552	1356.8868523071	3
0	5565	1360.632975184471	4
0	5569	1361.244453246341	5
0	5571	1362.169639326463	4
0	5576	1362.962841126308	3
0	5584	1363.78351446102	2
0	5589	1363.849911843333	1
0	5596	1365.426886059555	0
0	5618	1367.460805255185	1
0	5621	1369.264710208952	2
0	5622	1369.423994297148	1
0	5628	1369.777722310778	0
0	5642	1372.62586575526	1
0	5643	1372.723441982434	0
0	5663	1376.699802789396	1
0	5666	1377.59422242356	0
0	5672	1378.717784262875	1
0	5675	1380.473269463523	2
0	5677	1380.904652186564	3
0	5678	1382.606337545967	2
0	5683	1382.717246575969	1
0	5688	1383.33534956481	0
0	5708	1389.320126457072	1
0	5710	1389.845276718428	2
0	5711	1391.193863224063	1
0	5721	1393.574642637003	2
0	5722	1393.641578250644	1
0	5727	1393.770203879805	0
0	5771	1401.230461681432	1
0	5772	1401.442073955387	0
0	5778	1401.691435747475	1
0	5779	1401.741014071949	0
0	5791	1402.937877702521	1
0	5792	1403.960457078698	0
0	5826	1410.361755222337	1
0	5830	1411.780830708408	2
0	5833	1413.252177380185	1
0	5838	1414.072799530415	0
0	5851	1416.501590521982	1
0	5853	1416.73732913827	2
0	5854	1417.53315701315	1
0	5859	1417.712768576044	0
0	5871	1418.274278902133	1
0	5873	1418.346144251541	2
0	5882	1424.36344128994	3
0	5884	1425.326095127224	4
0	5885	1426.60362026788	3
0	5890	1426.814789181574	2
0	5897	1427.099396931725	1
0	5903	1427.791889925271	0
0	5917	1431.978035068257	1
0	5919	1432.362178649757	2
0	5922	1432.688759335006	1
0	5927	1432.826891197638	0
0	5946	1435.369282021164	1
0	5950	1438.785978400601	0
0	5968	1444.995311447741	1
0	5971	1445.756348500516	0
0	5995	1450.787640130267	1
0	5998	1453.007530494612	0
0	6004	1454.125981890993	1
0	6006	1454.513422876423	2
0	6010	1455.003758239495	3
0	6011	1455.751717603642	2
0	6018	1456.800310795811	1
0	6024	1456.946573778689	2
0	6026	1458.050444962145	3
0	6027	1458.485918902104	2
0	6033	1459.188719870364	1
0	6039	1460.204575340513	2
0	6040	1460.861333251865	1
0	6046	1461.184645150332	0
0	6117	1477.541450895392	1
0	6118	1477.740854282157	0
0	6172	1492.624572959161	1
0	6174	1493.915640386327	0
0	6198	1500.369149027361	1
0	6199	1500.737279463341	0
0	6214	1502.990826834608	1
0	6215	1504.258075193007	0
0	6238	1513.976149806803	1
0	6239	1514.628161062808	0
0	6246	1516.787440951666	1
0	6247	1516.906518517223	0
0	6323	1538.980165883828	1
0	6324	1539.418038087059	0
0	6357	1546.669129019652	1
0	6358	1546.721164650913	0
0	6364	1546.844333892166	1
0	6366	1547.036463707645	2
0	6367	1547.089844327133	1
0	6372	1549.252007919521	0
0	6386	1550.980126010017	1
0	6387	1551.289275211833	0
0	6401	1552.081585355741	1
0	6405	1553.375526705072	2
0	6407	1554.458468761539	3
0	6408	1554.733585797826	2
0	6413	1557.569408855075	1
0	6418	1558.580919271921	0
0	6422	1558.598450239339	1
0	6426	1560.692646492971	0
0	6432	1561.324722908098	1
0	6433	1561.644711720954	0
0	6459	1568.738474758374	1
0	6462	1569.223314731331	2
0	6464	1570.417697907901	3
0	6465	1570.579504300689	2
0	6470	1571.19094596917	1
0	6475	1571.877120295245	0
0	6488	1572.789918357392	1
0	6489	1572.86310422519	0
0	6541	1591.679193395702	1
0	6542	1591.953688335865	0
0	6572	1598.948081166835	1
0	6573	1599.098025949126	0
0	6596	1606.850732102341	1
0	6599	1609.040063042032	0
0	6609	1611.351294017764	1
0	6613	1612.320342411374	2
0	6616	1612.955096668474	1
0	6621	1613.367682461486	0
0	6627	1613.530478234863	1
0	6628	1613.693729723725	0
0	6659	1630.722508635986	1
0	6660	1630.844664630284	0
0	6670	1632.635792240235	1
0	6672	1632.63612683583	2
0	6675	1632.777630661186	1
0	6683	1634.530104147027	0
0	6692	1634.63295252481	1
0	6695	1636.016229473711	0
0	6706	1637.688878933943	1
0	6710	1638.547772237572	2
0	6713	1639.463085821797	1
0	6720	1641.401933351277	0
0	6734	1643.155352253114	1
0	6735	1644.037372760682	0
0	6765	1651.584930495162	1
0	6766	1652.061210999579	0
0	6839	1677.008595450305	1
0	6845	1678.330537952493	2
0	6846	1678.738999792314	1
0	6852	1678.829059432152	0
0	6872	1683.552485317518	1
0	6874	1683.678103074073	2
0	6875	1683.734078610306	1
0	6882	1684.20483267748	2
0	6883	1684.700037852182	1
0	6889	1686.439337546215	0
0	6895	1686.709516249092	1
0	6900	1690.350881717887	0
0	6917	1692.81289014496	1
0	6918	1693.098378937076	0
0	6935	1697.897042541687	1
0	6937	1698.436546442857	2
0	6941	1699.143166657925	3
0	6942	1699.439423016079	2
0	6950	1701.599733416493	1
0	6956	1701.741936146911	0
0	6970	1702.950642342446	1
0	6971	1702.959378490605	0
0	7019	1719.662594198469	1
0	7020	1722.242554728555	0
0	7039	1726.11957429942	1
0	7041	1726.348221192298	0
0	7065	1729.215653793721	1
0	7066	1729.430280247122	0
0	7077	1731.767040654877	1
0	7078	1731.828867162541	0
0	7122	1743.400477290161	1
0	7124	1743.812842179475	2
0	7126	1745.022928832004	3
0	7128	1745.702791114476	4
0	7132	1747.064738665074	5
0	7133	1748.711484716715	4
0	7138	1749.000780351673	3
0	7143	1749.150930128952	2
0	7148	1750.149345228758	1
0	7155	1750.579360698064	2
0	7158	1751.414072667852	3
0	7160	1751.636053851429	4
0	7163	1751.830925763061	5
0	7164	1752.066069795454	4
0	7170	1752.240560382803	5
0	7172	1753.107748383733	4
0	7177	1753.831045941017	3
0	7184	1754.780082899672	4
0	7187	1755.76170763977	3
0	7193	1755.902577045117	2
0	7200	1756.25733479975	1
0	7206	1756.264776984385	2
0	7208	1758.350370783847	1
0	7213	1758.842180458283	0
0	7237	1760.307241536464	1
0	7239	1760.578069683223	2
0	7240	1760.943114653172	1
0	7248	1764.469191821746	0
0	7254	1764.518774630479	1
0	7255	1764.919527602804	0
0	7259	1765.445039366483	1
0	7262	1766.416979425914	0
0	7284	1774.578752843552	1
0	7287	1776.269779467532	0
0	7294	1776.79739868774	1
0	7296	1779.140067273696	2
0	7297	1779.566158156438	1
0	7303	1780.420601239562	0
0	7328	1799.236368029507	1
0	7334	1800.115934844104	2
0	7335	1801.566389782384	1
0	7340	1801.750654496248	0
0	7413	1824.079612702505	1
0	7415	1824.889804794167	2
0	7416	1824.994554884107	1
0	7421	1825.710802880891	0
0	7431	1830.27699067543	1
0	7434	1831.187980676357	0
0	7440	1831.432196518044	1
0	7442	1831.630019404892	2
0	7444	1832.382840881387	1
0	7450	1833.097634562809	2
0	7453	1834.633063377109	3
0	7454	1834.719057060009	2
0	7460	1835.714185076978	3
0	7462	1836.11749139627	4
0	7464	1836.650075115347	5
0	7465	1836.989530349397	4
0	7471	1838.41255986126	3
0	7477	1838.907652858652	4
0	7479	1838.924340510753	5
0	7482	1839.45696707956	6
0	7485	1839.599651360655	5
0	7496	1842.342110325983	6
0	7498	1843.258318675845	5
0	7504	1843.691971533302	6
0	7505	1844.741805544835	5
0	7510	1845.414943286027	4
0	7519	1847.724297903058	3
0	7524	1848.800580321131	2
0	7529	1849.293865369147	1
0	7535	1851.632800815314	0
0	7556	1856.977390553911	1
0	7560	1857.85172597087	2
0	7562	1859.606919406878	1
0	7573	1860.183370506586	2
0	7574	1860.280783379432	1
0	7581	1860.575471308604	2
0	7583	1860.749561803494	3
0	7584	1861.626678109481	2
0	7590	1863.136791589354	1
0	7596	1863.196748491543	2
0	7597	1865.10596498344	1
0	7603	1865.649806761384	2
0	7605	1866.040118544427	3
0	7610	1867.573599032403	2
0	7615	1868.602327898283	1
0	7621	1868.641695384438	2
0	7622	1869.097997006279	1
0	7627	1869.321005143007	0
0	7641	1872.502460068923	1
0	7643	1873.227266520517	0
0	7649	1873.746945625573	1
0	7652	1876.00780935539	0
0	7673	1877.232882867482	1
0	7676	1878.654465116078	2
0	7680	1878.902432431078	3
0	7682	1879.588221031682	2
0	7689	1880.192486882031	1
0	7696	1881.057679935264	0
0	7708	1881.599237031876	1
0	7712	1884.425618844481	2
0	7714	1885.666895358281	1
0	7720	1886.161332632792	2
0	7721	1886.634797298559	1
0	7726	1886.879664289426	0
0	7750	1890.790830971731	1
0	7760	1896.002104410521	2
0	7763	1897.92319058476	1
0	7770	1899.892214488207	0
0	7787	1903.141112538252	1
0	7789	1904.011407193389	2
0	7792	1905.836203624994	1
0	7797	1906.087025320233	0
0	7822	1908.89897450159	1
0	7823	1909.93913653837	0
0	7865	1920.305464387736	1
0	7870	1922.291434146015	2
0	7872	1923.98901040952	3
0	7879	1926.535862956027	2
0	7885	1926.919180614399	3
0	7888	1927.393706130227	4
0	7890	1928.224648398471	5
0	7891	1928.649668920678	4
0	7898	1928.824773080387	5
0	7899	1930.388500666458	4
0	7904	1930.595545010654	3
0	7909	1930.658908391494	2
0	7918	1932.662563648492	3
0	7919	1932.828505360708	2
0	7929	1934.802095231344	1
0	7935	1935.744224760694	2
0	7936	1936.088696946866	1
0	7941	1936.552252231905	0
0	7948	1938.027392082954	1
0	7949	1938.124278800917	0
0	7974	1943.473226805924	1
0	7976	1943.664988066844	2
0	7977	1944.674557223764	1
0	7983	1944.725795437073	2
0	7985	1945.862427781777	1
0	7990	1946.229093390962	0
0	7999	1947.734628694555	1
0	8003	1947.95927425243	2
0	8004	1949.062567017604	1
0	8009	1949.5344862099	0
0	8026	1952.139324416251	1
0	8030	1953.084630644548	2
0	8033	1954.190452635135	1
0	8040	1954.69490670841	0
0	8046	1955.007782365483	1
0	8049	1955.219980449765	2
0	8051	1957.101679443443	1
0	8056	1957.266174573695	0
0	8064	1957.602052259003	1
0	8066	1957.749804752307	2
0	8067	1957.980271759605	1
0	8072	1958.343761176061	0
0	8090	1960.332981971009	1
0	8093	1960.852260059604	2
0	8094	1961.795083960395	1
0	8100	1962.25786478408	0
0	8118	1963.552002039129	1
0	8120	1963.609580174801	2
0	8122	1963.618130903715	3
0	8124	1963.928237453803	4
0	8126	1965.530126513113	3
0	8131	1965.751616429484	2
0	8138	1966.437919286146	1
0	8144	1967.786318240923	2
0	8146	1967.92449966489	3
0	8147	1968.387343448851	2
0	8152	1969.008671813323	1
0	8157	1970.090236873235	0
0	8163	1974.646465769896	1
0	8165	1974.857171186962	0
0	8180	1977.023132516991	1
0	8184	1978.300171315932	0
0	8216	1988.874458366069	1
0	8219	1989.879148465624	0
0	8225	1989.904877118551	1
0	8229	1991.59178514195	0
0	8272	1998.771276624009	1
0	8273	1998.822987118003	0
0	8290	2000.928700396321	1
0	8292	2001.315328890121	2
0	8297	2004.205303002577	1
0	8303	2004.799839610423	0
0	8316	2005.087618432834	1
0	8317	2005.506242380579	0
0	8329	2010.689983527087	1
0	8334	2011.936153892114	2
0	8336	2011.978188261143	3
0	8339	2012.501400207471	2
0	8345	2013.878163636285	3
0	8347	2015.764511790418	2
0	8353	2016.039151951558	3
0	8356	2017.11165934775	4
0	8358	2017.694312028175	3
0	8363	2017.800170950273	2
0	8368	2018.034570629186	1
0	8373	2018.183045678901	0
0	8390	2022.259392704316	1
0	8391	2022.307210721356	0
0	8395	2022.47021136984	1
0	8398	2024.637080788264	0
0	8402	2025.007454499293	1
0	8406	2025.364532747879	2
0	8409	2025.89330959288	1
0	8416	2026.721831379508	0
0	8422	2026.896869846747	1
0	8425	2027.10148742903	0
0	8443	2029.125282770008	1
0	8450	2030.457567027291	0
0	8462	2031.644815015111	1
0	8463	2031.750010631566	0
0	8477	2035.474086099157	1
0	8479	2037.902724457319	2
0	8481	2041.450939692865	3
0	8483	2041.509054023085	4
0	8484	2042.16449642997	3
0	8490	2042.860934202297	4
0	8492	2044.283405524394	3
0	8497	2044.29093365765	2
0	8504	2047.137005568962	1
0	8511	2047.991780033187	0
0	8523	2049.442496718817	1
0	8524	2049.947071559029	0
0	8533	2052.536135355415	1
0	8534	2052.58124415383	0
0	8540	2052.636438182517	1
0	8541	2052.953670249064	0
0	8548	2054.000977001922	1
0	8550	2055.065168126078	2
0	8551	2055.067132289556	1
0	8557	2055.675758669501	0
0	8564	2056.071182840496	1
0	8565	2056.113271257317	0
0	8580	2061.081133207268	1
0	8581	2062.266762099714	0
0	8597	2065.252572177901	1
0	8598	2065.2760277778	0
0	8604	2065.72512553697	1
0	8605	2066.486693311104	0
0	8613	2066.627940161131	1
0	8614	2066.80083157627	0
0	8620	2067.284546034183	1
0	8626	2068.888051384252	2
0	8630	2070.711182294347	1
0	8635	2070.942676239118	0
0	8646	2071.952559247703	1
0	8648	2072.595175260364	0
0	8673	2077.382524702906	1
0	8674	2077.489508398505	0
0	8686	2079.264829234402	1
0	8690	2080.637460492052	2
0	8692	2082.12756306456	1
0	8697	2082.128986295202	0
0	8703	2082.321729838275	1
0	8705	2083.276252192566	0
0	8752	2093.149769072616	1
0	8755	2093.584091944324	0
0	8762	2095.489306613085	1
0	8764	2096.719080341391	0
0	8776	2098.491515128659	1
0	8777	2099.439190112208	0
0	8800	2106.818841011532	1
0	8802	2107.659188219154	0
0	8808	2107.694681843695	1
0	8811	2107.928156819671	0
0	8869	2123.181675428375	1
0	8871	2123.693874872789	2
0	8874	2125.68643053287	1
0	8882	2127.934758803634	0
0	8888	2128.080926612371	1
0	8889	2128.083585897001	0
0	8895	2128.277116790501	1
0	8896	2128.60379932445	0
0	8912	2130.713057646199	1
0	8914	2131.092499207286	2
0	8916	2131.239640748584	3
0	8920	2134.454115152203	2
0	8928	2135.356798647137	1
0	8933	2135.927681777504	0
0	8958	2138.185493493119	1
0	8963	2138.899629731686	2
0	8964	2140.73598897318	1
0	8969	2141.343226420315	0
0	9000	2149.720718221032	1
0	9002	2150.441479379906	2
0	9004	2150.500324099364	3
0	9006	2151.5126470494	4
0	9010	2153.273314643257	5
0	9011	2154.401164772506	4
0	9019	2155.975227733632	3
0	9024	2156.044712490609	2
0	9034	2158.223960081441	3
0	9035	2158.268653146913	2
0	9042	2158.968228036514	1
0	9050	2160.011450251064	0
0	9056	2160.178350656597	1
0	9057	2161.04584170208	0
0	9068	2161.654636936535	1
0	9069	2161.914326586886	0
0	9082	2164.286923155655	1
0	9083	2164.43678725267	0
0	9087	2165.686281812254	1
0	9093	2166.361915640294	2
0	9096	2167.826331995207	1
0	9102	2169.109155988693	2
0	9109	2170.459982160383	1
0	9115	2171.230799751749	0
0	9122	2171.937936656644	1
0	9125	2172.114627869928	2
0	9126	2172.161755694398	1
0	9133	2173.247147073992	0
0	9159	2177.014543141157	1
0	9164	2178.73182898908	2
0	9165	2178.732390443681	1
0	9170	2178.90283531164	0
0	9182	2179.302233908701	1
0	9184	2179.629115111851	2
0	9185	2180.230211141348	1
0	9190	2180.89528217885	0
0	9197	2181.488166156877	1
0	9199	2181.852011682349	0
0	9213	2183.85432170064	1
0	9215	2183.894568546409	2
0	9218	2184.088408563996	1
0	9225	2184.49257260423	2
0	9226	2186.560062205699	1
0	9232	2187.561499066375	0
0	9252	2191.77560817691	1
0	9258	2193.923123436494	2
0	9259	2195.386278034064	1
0	9265	2196.330296623784	0
0	9285	2199.605822541545	1
0	9288	2200.078350709564	2
0	9291	2200.582848013072	3
0	9292	2200.77763982907	2
0	9297	2201.211752182713	1
0	9302	2202.020629057307	0
0	9335	2211.409494891702	1
0	9337	2211.501989399012	2
0	9341	2212.251323347836	3
0	9343	2212.380748534064	4
0	9345	2213.260231855071	3
0	9351	2213.415504351559	4
0	9352	2214.177111233909	3
0	9357	2214.20142906422	2
0	9363	2214.616428432127	3
0	9365	2216.374633684074	4
0	9367	2216.781422020536	5
0	9369	2217.31933288853	6
0	9370	2217.362621974451	5
0	9380	2218.57875527937	6
0	9384	2220.094728402018	5
0	9390	2220.20138130209	6
0	9391	2220.292309654604	5
0	9397	2220.777939992065	4
0	9402	2222.404627937956	3
0	9410	2228.351599059934	2
0	9416	2228.843036892956	1
0	9422	2230.095623116059	2
0	9425	2230.691888091814	1
0	9429	2231.342032435912	2
0	9436	2232.574568165888	1
0	9444	2234.706961455473	0
0	9450	2235.526992705415	1
0	9453	2237.11547003826	0
0	9459	2237.58099297031	1
0	9460	2238.327931424592	0
0	9467	2239.006577815113	1
0	9469	2239.325950717156	0
0	9475	2239.694532626239	1
0	9477	2239.70974719618	2
0	9479	2240.425521811554	1
0	9484	2240.768955893562	0
0	9495	2242.270128861481	1
0	9496	2242.562319870842	0
0	9500	2242.798663376622	1
0	9506	2243.641540442181	2
0	9508	2244.568582996931	1
0	9514	2244.837257549527	2
0	9515	2245.231466106461	1
0	9521	2245.530039834418	0
0	9536	2248.939968503385	1
0	9540	2252.691078198188	0
0	9552	2255.642203870259	1
0	9553	2256.671004936678	0
0	9560	2257.320437668334	1
0	9561	2257.494768499717	0
0	9567	2257.803165726369	1
0	9568	2258.013114006245	0
0	9601	2269.811900753153	1
0	9604	2271.19564242731	0
0	9610	2271.286959909752	1
0	9611	2271.427105313111	0
0	9624	2273.697907297086	1
0	9628	2274.501724671366	2
0	9630	2275.33505600487	3
0	9631	2276.106097052895	2
0	9636	2277.362455311257	1
0	9641	2278.179662159811	0
0	9648	2278.723773908041	1
0	9650	2279.294430924607	2
0	9651	2279.300719980835	1
0	9656	2279.886515604375	0
0	9675	2281.883383932161	1
0	9676	2282.756526284216	0
0	9712	2286.510538891776	1
0	9713	2286.813864631156	0
0	9722	2287.918497390421	1
0	9723	2287.999482538635	0
0	9729	2288.012360689855	1
0	9730	2288.168776328845	0
0	9736	2289.122251370007	1
0	9738	2289.168287593822	0
0	9744	2289.256740112868	1
0	9746	2289.315334381832	2
0	9749	2289.842842350143	3
0	9756	2291.728749764019	2
0	9762	2292.500474866685	1
0	9768	2292.918127200188	2
0	9770	2293.681433350134	1
0	9777	2294.292680293693	0
0	9791	2294.677657197271	1
0	9795	2294.870486340248	2
0	9797	2294.87068366512	3
0	9799	2295.184844467031	4
0	9805	2298.195141024539	3
0	9811	2299.128648089147	4
0	9812	2299.304394385556	3
0	9819	2299.44052793273	4
0	9820	2299.946741959774	3
0	9827	2300.429619413568	2
0	9837	2301.564972769709	3
0	9839	2303.000622222285	2
0	9846	2303.549831324503	3
0	9847	2303.559867165497	2
0	9852	2305.131159501763	1
0	9858	2306.750402518782	0
0	9875	2308.280497228506	1
0	9878	2309.494862828949	0
0	9884	2310.214987696765	1
0	9887	2310.449607994203	2
0	9889	2310.799313635007	3
0	9891	2311.773965186772	2
0	9896	2311.895255401788	1
0	9901	2312.301914711704	0
0	9915	2314.758151618387	1
0	9917	2314.923024824649	0
0	9959	2329.430375937996	1
0	9960	2330.211518510843	0
0	9966	2330.294493881812	1
0	9971	2330.817483936796	2
0	9972	2331.75871861397	1
0	9977	2331.770608599944	0
0	9992	2333.811113851095	1
0	9993	2334.167786180363	0
0	9999	2335.946721220723	1
0	10000	2337.984616650368	0
0	10011	2342.09041281434	1
0	10015	2343.60851448907	0
0	10022	2349.135343074591	1
0	10023	2350.109966336629	0
0	10065	2364.13505118113	1
0	10067	2364.517787952596	2
0	10071	2365.055578021866	3
0	10072	2365.178269135569	2
0	10081	2366.396286435949	1
0	10087	2367.692400825348	0
0	10109	2368.822763869206	1
0	10111	2368.907608992148	2
0	10112	2369.753638382575	1
0	10117	2370.044841013184	0
0	10132	2372.735862069831	1
0	10135	2373.345392350088	2
0	10138	2374.106892693706	3
0	10141	2375.240064747785	2
0	10147	2376.569500637351	3
0	10149	2376.58967593472	4
0	10151	2378.537257841538	3
0	10157	2380.658935024747	2
0	10162	2380.873943632782	1
0	10168	2381.085647924258	0
0	10175	2381.80275348605	1
0	10176	2382.86485286893	0
0	10183	2383.72019103703	1
0	10184	2383.914351172105	0
0	10193	2386.443745363672	1
0	10195	2386.587913112028	2
0	10196	2386.785256269133	1
0	10201	2387.079660744958	0
0	10221	2390.219137588866	1
0	10224	2390.395464157134	2
0	10227	2392.781048746632	3
0	10228	2393.09476061816	2
0	10233	2393.874718544841	1
0	10238	2393.930183472988	0
0	10262	2397.893824002621	1
0	10265	2400.101944166298	2
0	10266	2400.106820289715	1
0	10271	2400.369565542142	0
0	10290	2402.145391608761	1
0	10297	2408.664051071161	0
0	10318	2411.296914736443	1
0	10321	2412.040121807666	2
0	10322	2412.516761322871	1
0	10328	2413.650648849364	0
0	10402	2430.204382392734	1
0	10403	2430.353684275319	0
0	10470	2450.988332218755	1
0	10471	2451.966288778076	0
0	10486	2460.381461379385	1
0	10487	2460.731796386179	0
0	10578	2499.063670662075	1
0	10579	2500.249050709779	0
0	10622	2507.403908190077	1
0	10623	2507.43051049815	0
0	10664	2517.389459725365	1
0	10665	2517.398891820118	0
0	10702	2528.915775740416	1
0	10704	2531.314801503831	2
0	10705	2531.52430389094	1
0	10711	2533.583142770053	0
0	10723	2534.748669323103	1
0	10724	2535.253148789334	0
0	10808	2562.431722247677	1
0	10811	2563.592595154131	0
0	10818	2564.104200114974	1
0	10819	2564.602146835048	0
0	10834	2575.19879963845	1
0	10836	2575.506875544077	0
0	10893	2593.88424345053	1
0	10896	2594.610744713917	0
0	10902	2594.954024690381	1
0	10903	2595.527460440348	0
0	10921	2600.82288002318	1
0	10922	2600.863976922887	0
0	10967	2609.726916948668	1
0	10968	2609.922737019581	0
0	10983	2612.991141926885	1
0	10986	2613.622488827112	0
0	10999	2616.363652582572	1
0	11000	2617.205899960901	0
0	11017	2622.228778006162	1
0	11018	2622.233864162232	0
0	11043	2629.671813811924	1
0	11046	2629.951999298574	0
0	11052	2631.110624702376	1
0	11054	2634.892219808871	0
0	11061	2635.711412982416	1
0	11062	2635.745144093968	0
0	11079	2639.28399873296	1
0	11081	2640.240962693214	2
0	11082	2640.442492678644	1
0	11090	2641.076790295586	0
0	11107	2644.611378763944	1
0	11109	2645.575957778128	2
0	11110	2646.729809309765	1
0	11115	2646.798964950048	0
0	11143	2651.875627540698	1
0	11144	2652.171169323908	0
0	11182	2666.4400259958	1
0	11184	2667.068998935823	0
0	11207	2672.517677564226	1
0	11208	2672.880929448681	0
0	11246	2686.89971870515	1
0	11247	2688.353160953465	0
0	11253	2688.472572662856	1
0	11256	2688.529651933354	0
0	11349	2713.802746470468	1
0	11350	2714.019526866651	0
0	11358	2715.196554521547	1
0	11361	2715.851752729799	2
0	11362	2717.907444088622	1
0	11371	2721.711031671526	2
0	11372	2722.271262092445	1
0	11378	2722.600537939665	0
0	11403	2727.442505728897	1
0	11405	2728.549803244925	2
0	11406	2730.844499499109	1
0	11412	2731.245988741933	0
0	11437	2734.328742608301	1
0	11440	2735.348525020759	0
0	11453	2737.046640297952	1
0	11456	2737.206154179475	2
0	11459	2738.718280312909	3
0	11460	2740.244744141037	2
0	11467	2742.382404214378	1
0	11472	2742.812682983967	0
0	11547	2759.519804216103	1
0	11548	2759.836210381974	0
0	11563	2761.319465005114	1
0	11566	2763.723555806538	0
0	11577	2764.974263963792	1
0	11580	2766.087523429815	2
0	11581	2766.694942092602	1
0	11586	2766.746230707721	0
0	11592	2766.749093835142	1
0	11594	2766.826140982107	0
0	11610	2768.367951343757	1
0	11611	2768.551844712505	0
0	11627	2777.114165877719	1
0	11628	2778.362245053486	0
0	11640	2778.802001474536	1
0	11642	2780.845738812629	2
0	11644	2781.027624663001	3
0	11649	2781.964423812138	2
0	11654	2782.253650187345	1
0	11659	2782.585925213323	0
0	11697	2792.400179513226	1
0	11698	2792.497736717108	0
0	11716	2795.60889718753	1
0	11717	2798.352249020883	0
0	11734	2800.004337959272	1
0	11735	2800.375026280599	0
0	11760	2808.678038770795	1
0	11763	2809.316639623592	2
0	11764	2809.375173776671	1
0	11769	2810.631526941406	0
0	11807	2820.78182109137	1
0	11808	2822.480600062532	0
0	11826	2831.241657639415	1
0	11827	2831.446093667125	0
0	11841	2833.550997601501	1
0	11845	2835.949194449883	2
0	11848	2837.131362472811	1
0	11855	2838.619026815116	0
0	11864	2840.860329979075	1
0	11865	2841.583216408078	0
0	11871	2841.631381919591	1
0	11873	2843.654262823099	2
0	11874	2844.000460262889	1
0	11881	2845.335738526736	2
0	11883	2847.449916111718	1
0	11889	2848.796158053275	2
0	11890	2849.046557449459	1
0	11899	2850.037065613847	0
0	11912	2850.317681841289	1
0	11913	2850.506025573795	0
0	11942	2859.790061584389	1
0	11943	2861.396888998126	0
0	11964	2872.278412231547	1
0	11965	2872.302166872051	0
0	11996	2880.715146951817	1
0	11997	2880.975631108956	0
0	12004	2881.288117834989	1
0	12005	2881.437861138319	0
0	12045	2894.692656346886	1
0	12047	2894.930266547166	0
0	12054	2896.710017546882	1
0	12056	2896.716685669811	2
0	12057	2896.762199784835	1
0	12063	2897.208146023581	0
0	12069	2897.69563067179	1
0	12070	2898.626977969582	0
0	12076	2899.18822999647	1
0	12079	2901.030649556594	2
0	12082	2901.192265546103	1
0	12087	2903.274892194316	0
0	12093	2903.6569809991	1
0	12097	2904.877791037582	0
0	12112	2907.146374867525	1
0	12113	2907.661778396609	0
0	12120	2908.171866621332	1
0	12123	2909.445515962017	0
0	12129	2910.595324655126	1
0	12130	2911.08348452314	0
0	12151	2916.795297798182	1
0	12152	2917.414184640155	0
0	12158	2917.688802699199	1
0	12159	2917.8322853042	0
0	12214	2930.63477842124	1
0	12215	2930.704133524484	0
0	12221	2930.782135715472	1
0	12226	2936.097619686399	0
0	12247	2940.020089708526	1
0	12250	2940.158133427476	0
0	12270	2942.98453583314	1
0	12273	2943.096685613215	0
0	12288	2944.518830588623	1
0	12291	2946.636147912393	0
0	12307	2953.529369491386	1
0	12308	2954.373861696676	0
0	12336	2959.132904958294	1
0	12337	2959.355563092185	0
0	12349	2961.480013171052	1
0	12352	2962.186297649777	0
0	12368	2965.135976456722	1
0	12371	2967.9029954271	0
0	12380	2970.501200346018	1
0	12386	2972.111173186361	2
0	12390	2973.079519761605	3
0	12392	2974.487074825098	4
0	12393	2974.692232718869	3
0	12398	2974.715095671054	2
0	12403	2974.794733333717	1
0	12412	2978.738178333021	0
0	12449	2985.257588838235	1
0	12452	2986.096872297782	0
0	12515	3007.599253459059	1
0	12516	3008.909530716099	0
0	12547	3020.227373407383	1
0	12548	3020.995687776635	0
0	12569	3023.291255141067	1
0	12575	3025.12153069209	2
0	12578	3025.609312876454	3
0	12579	3026.144088468854	2
0	12587	3026.480464551119	1
0	12592	3027.367377250787	0
0	12608	3030.053542134092	1
0	12611	3031.134359567961	0
0	12617	3032.011850378633	1
0	12620	3034.829853117664	0
0	12649	3039.56701002192	1
0	12651	3039.933437123004	2
0	12652	3040.580651688544	1
0	12658	3040.792586046271	2
0	12662	3041.967272797779	3
0	12666	3044.484195821054	2
0	12673	3044.924202455293	1
0	12679	3045.317893495957	2
0	12680	3045.667296564679	1
0	12686	3046.768890973567	0
0	12706	3048.631034580785	1
0	12707	3049.0596869271	0
0	12711	3049.456967496172	1
0	12713	3051.065753158789	2
0	12716	3052.877285891616	1
0	12725	3054.776289886018	0
0	12731	3055.019351651538	1
0	12734	3055.613300053167	2
0	12737	3057.280571457963	1
0	12743	3058.551932670223	2
0	12744	3059.0799170924	1
0	12751	3059.732860563751	2
0	12752	3059.766323260346	1
0	12760	3061.79863083137	0
0	12777	3062.601254819574	1
0	12779	3063.242089425238	2
0	12780	3064.036556403356	1
0	12785	3065.556778383989	0
0	12817	3078.730787945354	1
0	12819	3079.318425852794	0
0	12835	3083.882500240069	1
0	12839	3084.708756473872	2
0	12840	3085.262639865709	1
0	12848	3086.606437185051	0
0	12867	3088.364591389795	1
0	12869	3088.83216414127	2
0	12871	3090.225550625601	3
0	12873	3090.321751948111	4
0	12874	3091.594356198566	3
0	12883	3092.447396172844	4
0	12886	3093.002335670511	3
0	12891	3093.015559823253	2
0	12897	3094.055968268025	1
0	12905	3095.751444950782	2
0	12906	3095.820603028398	1
0	12913	3096.443236793532	0
0	12919	3096.607902043588	1
0	12921	3097.711716195921	0
0	12927	3098.120105754196	1
0	12928	3098.440952422305	0
0	12944	3101.875105206102	1
0	12949	3104.927460839482	2
0	12951	3105.295525689374	3
0	12952	3106.951758768226	2
0	12961	3108.776762801192	3
0	12962	3108.846314957374	2
0	12970	3111.117478933236	1
0	12976	3111.57993280405	2
0	12977	3111.588360463202	1
0	12983	3112.01700700099	0
0	12996	3113.372473484662	1
0	12997	3113.451469358281	0
0	13022	3116.92565497533	1
0	13023	3116.986726687806	0
0	13053	3124.190053565798	1
0	13054	3125.170427991527	0
0	13063	3127.011182410921	1
0	13067	3128.113796008826	2
0	13071	3128.338775262814	3
0	13072	3128.984627960209	2
0	13077	3129.278100792206	1
0	13082	3129.528122421284	0
0	13091	3129.67800749005	1
0	13093	3130.689863537157	2
0	13097	3132.779984977628	1
0	13104	3134.427962736824	0
0	13113	3137.366349716485	1
0	13120	3140.443237532656	0
0	13133	3140.838011327669	1
0	13134	3141.329878024975	0
0	13182	3153.039992645029	1
0	13185	3153.725955175609	2
0	13187	3154.09127035072	3
0	13190	3156.078277261255	2
0	13197	3157.641611656296	3
0	13200	3158.71373401276	2
0	13205	3160.369992071665	1
0	13210	3160.856118194533	0
0	13274	3186.395486705908	1
0	13277	3187.440512927312	2
0	13278	3187.736508942767	1
0	13285	3187.826291698301	2
0	13286	3188.311888171118	1
0	13293	3188.847767108792	2
0	13295	3189.457189422379	3
0	13296	3189.550778310792	2
0	13302	3190.825155880153	1
0	13309	3192.486369673402	0
0	13346	3200.784054218256	1
0	13350	3201.299211300506	2
0	13354	3202.39714487667	3
0	13356	3202.412451563133	4
0	13357	3203.406119974561	3
0	13364	3204.740339825954	4
0	13365	3205.420054090702	3
0	13371	3205.926346766885	2
0	13377	3206.138479762771	1
0	13383	3206.14161561057	2
0	13384	3206.843113735513	1
0	13390	3207.998707890551	0
0	13404	3209.020125210353	1
0	13405	3209.27632343716	0
0	13411	3209.716242738245	1
0	13415	3210.478951618816	0
0	13432	3211.714501968756	1
0	13436	3211.95399041157	2
0	13437	3216.874298947906	1
0	13443	3217.549009833493	0
0	13464	3220.33497970948	1
0	13467	3220.402530847111	0
0	13473	3220.886118035743	1
0	13476	3222.347604174861	0
0	13510	3233.036717192131	1
0	13512	3233.270002122465	2
0	13513	3237.370550153426	1
0	13519	3237.472392791865	2
0	13522	3238.356387828227	1
0	13528	3239.352277924436	0
0	13540	3240.387846913275	1
0	13542	3241.484292576232	0
0	13577	3247.693219712467	1
0	13578	3247.771041218333	0
0	13595	3252.479419108118	1
0	13596	3253.784627583015	0
0	13621	3257.373153661113	1
0	13624	3260.201958361502	0
0	13630	3260.305047410306	1
0	13633	3261.536665585665	0
0	13639	3262.961865004475	1
0	13641	3264.942820545385	0
0	13661	3270.671970822777	1
0	13663	3270.937109427549	2
0	13664	3271.883261548308	1
0	13669	3272.386065164366	0
0	13686	3279.439121423143	1
0	13692	3281.324040638375	0
0	13712	3287.271073702382	1
0	13713	3288.260606680595	0
0	13719	3288.35897118145	1
0	13722	3289.596639220124	0
0	13765	3307.339421476549	1
0	13768	3307.724654683383	0
0	13777	3307.966500069331	1
0	13781	3308.457055287649	2
0	13784	3308.703863163897	3
0	13785	3308.706813488809	2
0	13790	3308.992633298791	1
0	13799	3309.603788438126	2
0	13801	3310.299298160877	3
0	13803	3311.469523031286	4
0	13805	3312.272672214331	5
0	13806	3313.017926983588	4
0	13811	3313.532656989612	3
0	13818	3316.579141977083	2
0	13824	3317.057407130401	3
0	13827	3318.009174981038	4
0	13828	3318.081063970989	3
0	13836	3320.244752607466	4
0	13837	3320.29385036255	3
0	13843	3324.067830975258	2
0	13848	3324.200170294588	1
0	13853	3324.43112971828	0
0	13910	3336.208747015833	1
0	13911	3338.20319138295	0
0	13948	3344.30756998528	1
0	13949	3344.975392003371	0
0	13971	3355.385355011827	1
0	13973	3355.734501394216	2
0	13975	3356.526594856766	3
0	13977	3357.154908564156	4
0	13980	3358.059053887447	3
0	13986	3358.198416299753	2
0	13992	3358.642674019962	1
0	13999	3358.884889418969	2
0	14002	3361.179670728705	1
0	14009	3361.804388347523	0
0	14023	3365.201949148807	1
0	14025	3365.708847683108	2
0	14026	3366.156181539506	1
0	14033	3366.686245247934	2
0	14035	3367.088644305802	3
0	14038	3368.35883912226	2
0	14044	3368.782866698129	3
0	14046	3369.567511690681	2
0	14052	3370.659327797095	3
0	14053	3371.076455021538	2
0	14060	3372.446747310282	1
0	14068	3372.988864379498	0
0	14092	3377.739217408582	1
0	14094	3378.845359831477	2
0	14095	3379.804941594695	1
0	14101	3380.812801941621	0
0	14129	3386.518019940863	1
0	14135	3387.918793428535	2
0	14137	3388.005349529376	3
0	14141	3390.15371232124	4
0	14145	3394.950969834804	5
0	14147	3395.350729757323	6
0	14149	3398.326975741011	7
0	14154	3400.38910794148	6
0	14161	3401.595588705617	5
0	14169	3402.739913787768	4
0	14176	3404.125051592535	3
0	14182	3405.914480163042	2
0	14187	3406.247516080286	1
0	14196	3407.549696566801	0
0	14220	3409.524865446831	1
0	14225	3412.394577533673	0
0	14235	3413.594570981008	1
0	14236	3414.412867739674	0
0	14258	3417.696916901451	1
0	14262	3418.924209399224	2
0	14265	3420.168592526974	1
0	14270	3420.724608343428	0
0	14298	3424.640530840477	1
0	14307	3429.953677920439	0
0	14322	3432.87523409293	1
0	14323	3433.007714393163	0
0	14334	3433.491236894697	1
0	14335	3433.518445513865	0
0	14344	3435.005239623689	1
0	14346	3435.514774226413	2
0	14349	3435.996002031278	1
0	14355	3437.572587968118	0
0	14361	3437.819909088982	1
0	14363	3438.117044859234	0
0	14372	3438.813426305491	1
0	14376	3440.616479442099	2
0	14382	3441.158779522212	3
0	14383	3441.520669998541	2
0	14388	3441.637221497292	1
0	14392	3442.138209941195	2
0	14399	3447.791655035134	1
0	14405	3449.350954692815	0
0	14411	3450.547474839159	1
0	14412	3451.457160025829	0
0	14421	3455.193835673665	1
0	14424	3456.609439461731	0
0	14452	3460.401186261619	1
0	14454	3462.397336726173	2
0	14459	3463.545036375122	3
0	14461	3465.350748979027	2
0	14467	3466.515227764096	1
0	14472	3466.594250371236	0
0	14478	3466.814608879367	1
0	14482	3467.567357794568	0
0	14498	3468.881502285105	1
0	14505	3471.142849737556	2
0	14508	3471.76696519288	1
0	14514	3472.477712780022	0
0	14520	3472.955352387841	1
0	14521	3473.516759552463	0
0	14532	3476.047787952894	1
0	14534	3476.363182687069	0
0	14556	3478.592745098259	1
0	14558	3478.8836450975	0
0	14573	3480.260994019852	1
0	14576	3482.277156686068	0
0	14589	3484.419701524242	1
0	14592	3485.545383045016	0
0	14608	3487.277598717005	1
0	14613	3488.32466107701	0
0	14626	3488.93377850133	1
0	14627	3489.030772188634	0
0	14640	3491.38335078818	1
0	14642	3492.814693574109	2
0	14644	3493.170547559121	3
0	14648	3495.809146600553	4
0	14650	3496.131509193913	5
0	14652	3498.135695746984	6
0	14653	3499.270630333602	5
0	14658	3499.918772433019	4
0	14665	3501.111939381669	5
0	14669	3502.213718417746	4
0	14674	3502.477746984041	3
0	14685	3505.65913847541	2
0	14692	3506.156463669194	1
0	14697	3506.231608446614	0
0	14709	3506.869506690748	1
0	14710	3507.254910936451	0
0	14754	3521.240831279109	1
0	14755	3521.991773377867	0
0	14767	3524.370913037711	1
0	14769	3524.747416284832	2
0	14774	3526.858806436368	3
0	14779	3528.014592947575	4
0	14784	3528.693236403877	3
0	14790	3529.087062653136	4
0	14791	3529.329261881714	3
0	14800	3531.725231827369	4
0	14802	3532.405749900318	5
0	14805	3534.768418851156	4
0	14810	3534.935940934061	3
0	14816	3535.196220762186	4
0	14818	3535.971112104681	5
0	14820	3536.852077119198	4
0	14825	3537.721044791019	3
0	14833	3539.110411423869	2
0	14838	3539.366251889641	1
0	14842	3540.109375737229	2
0	14846	3542.453493116862	3
0	14847	3543.084099536997	2
0	14851	3543.503621958948	3
0	14856	3546.304391099789	2
0	14863	3547.444706270418	1
0	14871	3549.532322136802	2
0	14872	3549.953045027695	1
0	14877	3550.817238066923	0
0	14888	3551.699729602904	1
0	14889	3552.486843852503	0
0	14903	3556.727009232397	1
0	14905	3557.018987366142	2
0	14906	3558.6072405156	1
0	14913	3559.723182267501	0
0	14935	3565.506835257924	1
0	14936	3565.619343650541	0
0	14945	3566.994729947081	1
0	14947	3568.627193396737	2
0	14948	3568.751764139883	1
0	14954	3569.9393733095	2
0	14956	3571.969128937681	1
0	14965	3572.918424668857	0
0	14982	3574.438283226681	1
0	14983	3574.566607473695	0
0	14989	3574.996567675142	1
0	14990	3575.014057981276	0
0	15003	3575.971558250811	1
0	15006	3576.725124388957	0
0	15030	3579.307411811295	1
0	15033	3579.985981367483	0
0	15045	3582.789575841034	1
0	15046	3583.844349562739	0
0	15108	3596.724073155294	1
0	15110	3596.840693146788	2
0	15112	3597.020556243737	1
0	15117	3597.757998125312	0
0	15130	3600.077660539429	1
0	15132	3601.47149856184	0
0	15139	3602.30282260069	1
0	15146	3604.232520870451	0
0	15162	3608.840991133691	1
0	15165	3611.908507063625	0
0	15184	3613.913058228103	1
0	15191	3621.273481702385	0
0	15223	3628.63956994934	1
0	15229	3629.613943449887	0
0	15241	3632.566615349258	1
0	15242	3632.928010169165	0
0	15253	3633.526311895843	1
0	15254	3633.850274350997	0
0	15270	3639.290699397441	1
0	15274	3641.427469844952	2
0	15279	3645.175863982899	1
0	15285	3647.460999285989	0
0	15297	3649.683617427246	1
0	15303	3651.561375693081	0
0	15315	3655.893128753472	1
0	15316	3656.587677840029	0
0	15326	3657.792268500311	1
0	15329	3658.809177520601	0
0	15349	3661.485560678511	1
0	15351	3665.238639558632	2
0	15352	3665.507488529758	1
0	15360	3667.65567860624	0
0	15370	3668.84064552601	1
0	15372	3670.928209626591	2
0	15373	3671.814341798431	1
0	15378	3671.913034936334	0
0	15384	3671.966039520911	1
0	15385	3672.919206440353	0
0	15418	3681.478528874072	1
0	15419	3682.169166296042	0
0	15430	3683.574563253272	1
0	15435	3685.659381281012	2
0	15437	3685.67579722656	3
0	15442	3687.42665766524	2
0	15447	3687.490489448367	1
0	15452	3688.4701196273	0
0	15492	3697.370171739024	1
0	15494	3698.221227540043	0
0	15525	3710.348053640142	1
0	15526	3710.562295294122	0
0	15532	3711.128086190542	1
0	15534	3712.170714126003	0
0	15557	3714.133809866188	1
0	15559	3715.176132813206	2
0	15562	3716.499141582902	1
0	15569	3717.357759588307	2
0	15571	3718.489440903948	1
0	15576	3720.880974223099	0
0	15583	3721.340814763653	1
0	15587	3721.852419952686	2
0	15588	3722.45266866648	1
0	15594	3722.458341319022	2
0	15597	3723.512378912209	1
0	15602	3724.536482583618	0
0	15627	3729.228424771452	1
0	15629	3730.816134884391	2
0	15633	3732.664086247628	3
0	15634	3733.375501213499	2
0	15640	3733.606161609167	1
0	15649	3734.902189209297	2
0	15651	3735.84839314457	3
0	15652	3735.964778877048	2
0	15658	3736.272027999362	1
0	15663	3736.515687752944	0
0	15682	3739.863821409702	1
0	15684	3741.158970316858	0
0	15704	3745.296554153279	1
0	15705	3745.66343858882	0
0	15733	3749.85700700633	1
0	15735	3751.061688722883	2
0	15736	3752.59797334984	1
0	15742	3753.445264019874	0
0	15749	3754.874607119766	1
0	15753	3758.120729366263	2
0	15754	3758.143758444681	1
0	15760	3758.572251015734	2
0	15765	3760.134029150089	1
0	15770	3761.413607321938	0
0	15780	3763.283864011947	1
0	15782	3763.400262990924	2
0	15786	3765.770310178118	1
0	15791	3765.897799496045	0
0	15802	3766.713447736634	1
0	15803	3766.995205067841	0
0	15809	3767.300814230517	1
0	15811	3767.478114218673	2
0	15812	3768.182653059505	1
0	15816	3769.388899895423	2
0	15824	3773.521684944565	3
0	15825	3775.15892448649	2
0	15829	3775.218412699511	3
0	15831	3776.138529506121	4
0	15836	3778.210926553887	3
0	15842	3779.368635505833	4
0	15843	3779.918524872543	3
0	15852	3782.206500716735	2
0	15858	3784.11770646747	3
0	15860	3784.504650570336	4
0	15863	3786.312576587315	3
0	15870	3787.217759008876	2
0	15875	3787.336290590344	1
0	15879	3788.44078510036	2
0	15885	3788.855174025738	3
0	15886	3789.131187773744	2
0	15890	3789.822793498187	3
0	15894	3790.193769141011	4
0	15895	3792.631717493651	3
0	15903	3794.013128363433	4
0	15905	3794.233017442791	5
0	15907	3794.582201152966	6
0	15909	3794.968110383487	7
0	15910	3795.241899930036	6
0	15915	3796.970495466871	5
0	15921	3798.007362807805	6
0	15925	3798.530899063891	7
0	15927	3799.285206423322	8
0	15930	3802.155834262917	7
0	15936	3803.376877146494	8
0	15938	3805.038473863324	9
0	15941	3805.378357610894	8
0	15945	3806.4651852354	9
0	15949	3807.341560139933	8
0	15955	3809.974583315252	7
0	15960	3810.346014373153	6
0	15966	3811.099819664327	7
0	15971	3813.241357211916	6
0	15976	3813.576517576873	5
0	15982	3813.631181481298	6
0	15984	3814.257737191171	5
0	15991	3814.693127612519	4
0	15995	3817.905272063324	5
0	15998	3819.213806310685	4
0	16003	3819.682782269346	3
0	16007	3819.931837462176	4
0	16011	3820.745095374288	5
0	16012	3821.547472912816	4
0	16019	3823.630265260585	3
0	16024	3824.229962168905	2
0	16030	3824.655878396539	3
0	16032	3824.677356387252	4
0	16036	3828.904611490326	3
0	16041	3829.096196799803	2
0	16047	3830.716509022293	3
0	16048	3831.790834262019	2
0	16054	3834.792901889231	1
0	16061	3835.005768835151	2
0	16062	3836.448102294747	1
0	16068	3836.924443881169	2
0	16072	3837.923334597749	1
0	16077	3838.062044795266	0
0	16099	3847.346573343877	1
0	16101	3848.529216934647	2
0	16103	3849.842400811102	3
0	16106	3852.109576966215	2
0	16111	3852.146432088257	1
0	16116	3852.298967185351	0
0	16122	3852.837525284103	1
0	16123	3852.950704287723	0
0	16136	3854.704735759493	1
0	16139	3855.119260907791	0
0	16153	3856.807532313416	1
0	16154	3860.934800063584	0
0	16163	3863.324659351362	1
0	16164	3864.698079630614	0
0	16172	3866.959443508649	1
0	16173	3868.512171495608	0
0	16189	3869.348193601276	1
0	16190	3869.453214926418	0
0	16196	3869.904093669884	1
0	16202	3871.967069510474	2
0	16208	3874.109717220538	3
0	16209	3874.564472343279	2
0	16215	3875.566481007681	1
0	16221	3877.990769048694	0
0	16238	3878.813847954541	1
0	16240	3878.90872438743	2
0	16242	3881.163940103688	3
0	16243	3882.127467523282	2
0	16251	3882.331332662738	1
0	16256	3882.551185232647	0
0	16263	3883.26730640229	1
0	16268	3885.11519944872	0
0	16274	3885.21017580072	1
0	16275	3887.387350574252	0
0	16288	3890.678556229731	1
0	16291	3893.666007394794	0
0	16297	3893.744860862114	1
0	16300	3896.199354338786	0
0	16306	3896.574686382744	1
0	16309	3896.634382483936	0
0	16322	3897.406799302333	1
0	16323	3903.674298315767	0
0	16341	3905.359157665765	1
0	16343	3905.454171767252	2
0	16345	3907.955315339603	3
0	16352	3910.418544209272	2
0	16357	3910.654755567504	1
0	16365	3912.818349405298	2
0	16366	3913.496766335042	1
0	16373	3914.061614488285	2
0	16376	3914.347665388012	1
0	16384	3914.791575778071	2
0	16386	3917.337047070132	1
0	16391	3917.478370786213	0
0	16397	3918.243073440501	1
0	16400	3919.381093676679	0
0	16416	3920.671942817123	1
0	16417	3922.19964232301	0
0	16423	3923.398448387006	1
0	16425	3924.740009392109	0
0	16448	3927.687501733259	1
0	16450	3928.841038460233	2
0	16454	3930.599662485664	3
0	16456	3930.861188820011	4
0	16457	3931.022567533626	3
0	16465	3931.750428091783	2
0	16470	3932.142848928291	1
0	16475	3932.220382372486	0
0	16483	3933.15610552349	1
0	16486	3934.401703737456	0
0	16522	3942.756081207924	1
0	16524	3943.855615038762	2
0	16526	3945.18070414072	3
0	16528	3946.114075658858	4
0	16530	3947.860467203392	5
0	16533	3948.945541770884	4
0	16540	3949.266505275567	5
0	16541	3949.469081595443	4
0	16548	3951.65046015412	3
0	16553	3951.956703179439	2
0	16558	3952.41312557777	1
0	16564	3952.794271999955	2
0	16566	3953.62797611215	1
0	16572	3953.695199648201	0
0	16580	3956.316138612215	1
0	16584	3958.322891927463	0
0	16590	3958.3405959092	1
0	16591	3958.404520473196	0
0	16608	3961.588627565532	1
0	16609	3961.658977252437	0
0	16645	3968.576145784999	1
0	16650	3970.253551461823	2
0	16651	3971.049820246994	1
0	16657	3971.492133312993	0
0	16665	3972.317617897093	1
0	16667	3972.598343346423	2
0	16669	3972.777914444265	1
0	16676	3974.708615595901	0
0	16709	3985.476665727297	1
0	16711	3986.009907631397	2
0	16714	3988.662387596343	1
0	16721	3989.67893252801	0
0	16749	3995.644663051061	1
0	16753	3997.434879661371	2
0	16754	3998.113602660308	1
0	16760	3998.753551712405	0
0	16776	4002.977102332214	1
0	16784	4006.816553861715	0
0	16805	4011.660345007175	1
0	16808	4012.569312915815	0
0	16821	4013.126285537731	1
0	16822	4013.98747950861	0
0	16837	4016.794053352779	1
0	16841	4017.097678584397	2
0	16842	4017.479238864935	1
0	16847	4018.470025008104	0
0	16884	4026.16006202844	1
0	16885	4029.508727056276	0
0	16900	4031.354154408673	1
0	16901	4031.382103819099	0
0	16921	4034.583469987868	1
0	16925	4036.651144284436	0
0	16962	4043.750853668554	1
0	16964	4043.947509174302	2
0	16965	4044.231233564534	1
0	16970	4044.363019856661	0
0	16981	4045.660320181057	1
0	16986	4047.339167952259	2
0	16987	4048.075139891014	1
0	16992	4048.189771367158	0
0	17025	4053.339797263522	1
0	17030	4058.379194013648	0
0	17048	4060.990381533578	1
0	17049	4061.670339205716	0
0	17095	4077.170757666253	1
0	17097	4077.856776067674	2
0	17101	4079.606860804	3
0	17102	4079.623544760581	2
0	17109	4080.89659324616	1
0	17115	4080.919752242003	2
0	17117	4081.00751151107	3
0	17118	4081.17750648825	2
0	17123	4082.598546603482	1
0	17128	4084.67393847069	0
0	17137	4087.015096894934	1
0	17140	4087.469800459751	0
0	17151	4088.877174221042	1
0	17156	4090.102769649653	0
0	17169	4094.767179319813	1
0	17172	4096.346403582291	0
0	17217	4108.086235329207	1
0	17219	4109.071607857241	0
0	17239	4112.770169844117	1
0	17240	4113.100473071594	0
0	17254	4114.562639754881	1
0	17256	4114.758214317545	2
0	17257	4114.961175255186	1
0	17264	4116.006669134528	2
0	17265	4116.073474917603	1
0	17271	4116.463643072294	2
0	17275	4116.852580919919	3
0	17276	4116.923628377655	2
0	17282	4117.057782764831	3
0	17283	4117.947320320059	2
0	17289	4118.591364979232	3
0	17294	4120.653198504584	4
0	17296	4120.835675028457	5
0	17298	4121.274424726462	6
0	17300	4124.065948342854	5
0	17306	4124.212841909761	6
0	17309	4126.156529931719	5
0	17315	4126.355174546643	4
0	17320	4126.477880215204	3
0	17329	4127.390106534713	2
0	17335	4127.71802368369	1
0	17340	4127.727941811053	0
0	17354	4129.782577577764	1
0	17357	4130.764231467773	0
0	17370	4132.809496537577	1
0	17371	4134.843444308009	0
0	17405	4142.097397699569	1
0	17408	4143.698170527712	0
0	17418	4145.637386299832	1
0	17422	4148.630091619072	2
0	17423	4150.474573213563	1
0	17428	4150.72591842204	0
0	17474	4165.277757125481	1
0	17477	4165.754519195431	0
0	17484	4166.04408395999	1
0	17485	4166.835282870434	0
0	17515	4175.883675035844	1
0	17517	4176.666524720459	2
0	17521	4177.675725917121	3
0	17524	4179.751259013083	2
0	17529	4180.051081993836	1
0	17535	4180.496706751694	2
0	17536	4180.756696639487	1
0	17542	4181.375285418432	0
0	17550	4181.95613457563	1
0	17552	4182.442710780588	2
0	17553	4184.42566170535	1
0	17560	4186.924885268037	0
0	17579	4188.683368465386	1
0	17581	4190.341588202856	0
0	17635	4202.556482030914	1
0	17638	4203.790593297389	0
0	17656	4206.243127648034	1
0	17658	4207.811224686767	0
0	17664	4207.848547705087	1
0	17668	4209.069127009404	2
0	17672	4209.976133832027	3
0	17673	4210.246396652053	2
0	17679	4211.078207096335	1
0	17684	4211.462182322905	0
0	17708	4218.721211957783	1
0	17711	4219.625909089481	0
0	17719	4220.191004945772	1
0	17723	4221.493200337203	0
0	17738	4225.783483728329	1
0	17742	4226.0041257579	2
0	17743	4226.303083762908	1
0	17749	4228.143603667774	2
0	17750	4228.272056503569	1
0	17757	4229.17382132008	0
0	17764	4230.057849886848	1
0	17772	4236.072794314169	0
0	17783	4236.441927815597	1
0	17786	4240.060359306955	0
0	17797	4240.985050649243	1
0	17799	4241.574744259058	0
0	17815	4242.509826057224	1
0	17816	4242.615553354887	0
0	17834	4244.056105689245	1
0	17835	4244.21167331602	0
0	17843	4246.709000036972	1
0	17845	4247.859647930867	0
0	17870	4253.272834761205	1
0	17872	4254.790984135822	2
0	17873	4254.872599737115	1
0	17881	4256.182642424685	2
0	17883	4256.709400862845	1
0	17889	4258.398288886412	0
0	17895	4258.709529623242	1
0	17897	4259.190529635691	0
0	17950	4269.507944291198	1
0	17952	4269.524377627055	2
0	17956	4271.646220885998	3
0	17958	4271.82568254887	4
0	17962	4273.040715463959	5
0	17964	4273.863084202176	6
0	17966	4274.971593308714	7
0	17969	4276.172927150235	6
0	17976	4277.190299458273	5
0	17983	4277.828551394482	6
0	17985	4278.000888988397	7
0	17987	4279.486123816471	8
0	17988	4280.699102035406	7
0	17993	4281.376941314315	6
0	17999	4281.550040108942	5
0	18005	4282.522006099025	4
0	18012	4282.844619795591	3
0	18018	4283.115200776345	4
0	18021	4285.683311484044	3
0	18026	4286.119989178051	2
0	18032	4286.718443916758	1
0	18037	4288.687104778861	0
0	18041	4290.439510890178	1
0	18043	4290.650975379587	2
0	18048	4292.060705983914	1
0	18054	4292.394480886854	2
0	18055	4293.646718831722	1
0	18064	4295.215252047181	0
0	18068	4296.18818801069	1
0	18075	4298.157533630256	0
0	18111	4304.345595671403	1
0	18118	4306.029113515995	0
0	18132	4307.920282722376	1
0	18133	4308.358595770343	0
0	18157	4317.0769827976	1
0	18164	4321.091079672947	2
0	18165	4322.113363709424	1
0	18170	4322.116540936933	0
0	18181	4322.572422023567	1
0	18183	4323.985236250838	0
0	18192	4324.443393289281	1
0	18200	4329.117695123842	2
0	18201	4329.618463566032	1
0	18206	4329.746144082658	0
0	18254	4338.496795754838	1
0	18256	4338.944694267437	2
0	18258	4339.149427941488	3
0	18259	4339.411409492307	2
0	18264	4340.110825707879	1
0	18269	4341.029798936771	0
0	18281	4342.450489602498	1
0	18285	4345.603641290018	2
0	18286	4346.867820205171	1
0	18291	4347.139280459026	0
0	18336	4356.565097153748	1
0	18339	4360.067916653172	0
0	18369	4368.901387447466	1
0	18370	4369.415977458502	0
0	18432	4385.592776236273	1
0	18433	4386.314998702942	0
0	18492	4406.849914879006	1
0	18494	4407.467581691509	0
0	18511	4411.276952067734	1
0	18513	4412.767248016181	2
0	18514	4415.52218274397	1
0	18520	4416.943064209117	2
0	18521	4417.896112720794	1
0	18527	4421.145131056104	2
0	18528	4421.214283911458	1
0	18533	4421.510907644833	0
0	18545	4423.208546431893	1
0	18546	4423.540520863753	0
0	18570	4427.315994645032	1
0	18571	4428.147274896523	0
0	18585	4430.134857798831	1
0	18587	4431.543258054729	0
0	18593	4431.718077040305	1
0	18594	4432.398580493286	0
0	18614	4437.203206576657	1
0	18616	4437.44532608523	2
0	18617	4438.19712718461	1
0	18627	4440.444441522484	2
0	18628	4440.671370401124	1
0	18634	4441.534928316452	0
0	18645	4441.878978063842	1
0	18646	4442.46657297321	0
0	18690	4455.403668213267	1
0	18691	4455.99471032959	0
0	18713	4460.915588067772	1
0	18717	4462.726360440396	0
0	18745	4466.002693091309	1
0	18747	4466.126637427734	2
0	18748	4466.336447962757	1
0	18754	4466.449844112415	2
0	18757	4466.532318956876	3
0	18758	4466.898006644477	2
0	18765	4467.998714912012	1
0	18770	4468.790211541611	0
0	18803	4477.861303021808	1
0	18808	4479.235496277109	2
0	18809	4479.338242229929	1
0	18815	4480.251559451439	0
0	18821	4480.90654310712	1
0	18824	4482.504531024597	0
0	18830	4483.39710388615	1
0	18833	4486.472119462714	0
0	18848	4489.313678924703	1
0	18852	4492.895357480189	2
0	18853	4493.805976649101	1
0	18859	4494.075791497463	2
0	18860	4494.316094728082	1
0	18868	4496.299899492407	0
0	18875	4496.672020683186	1
0	18876	4496.99453422953	0
0	18898	4501.182388995372	1
0	18902	4501.762583836538	2
0	18905	4502.478280105934	1
0	18910	4503.588524092593	0
0	18955	4516.008841105488	1
0	18956	4516.424264660015	0
0	18985	4521.78601902243	1
0	18986	4522.006304006479	0
0	18999	4526.810190690496	1
0	19002	4527.560222139162	0
0	19008	4527.809397573705	1
0	19014	4528.750330597549	0
0	19025	4531.155212235636	1
0	19028	4531.452006800862	0
0	19036	4531.993603540453	1
0	19044	4533.886710201994	2
0	19045	4534.722412018556	1
0	19051	4534.847433401091	0
0	19070	4536.565150464971	1
0	19071	4538.407329111705	0
0	19091	4544.505934413516	1
0	19092	4544.796973811017	0
0	19122	4548.344895127069	1
0	19124	4549.770636762715	2
0	19130	4552.886753078957	3
0	19133	4555.462263769231	2
0	19138	4557.061259044469	1
0	19144	4557.126260575057	2
0	19145	4557.35650455045	1
0	19150	4557.378670287289	0
0	19160	4560.084068245615	1
0	19164	4560.34983478051	2
0	19168	4563.093851960122	3
0	19169	4563.740287164324	2
0	19177	4564.775997290088	1
0	19185	4567.264626104505	0
0	19203	4569.214123683615	1
0	19205	4569.834145015711	2
0	19206	4570.546816490568	1
0	19212	4572.007147282011	0
0	19233	4575.007753617554	1
0	19235	4575.72758642288	2
0	19239	4577.61317376386	1
0	19245	4577.676076132533	0
0	19282	4586.268892029111	1
0	19283	4586.336573175959	0
0	19305	4590.331916147542	1
0	19307	4591.349554073524	0
0	19325	4594.625127083056	1
0	19329	4595.04643409692	2
0	19333	4595.795827424633	3
0	19339	4597.098626406741	4
0	19340	4597.386244257433	3
0	19345	4597.509066633724	2
0	19352	4598.915456056872	1
0	19358	4599.731028598885	0
0	19383	4601.885151335963	1
0	19384	4601.962050146612	0
0	19454	4614.320719258162	1
0	19457	4615.078399500511	0
0	19486	4620.709909172182	1
0	19488	4621.517521364839	0
0	19536	4631.040246293868	1
0	19538	4631.049048222546	2
0	19539	4633.192220861018	1
0	19544	4633.250881639197	0
0	19567	4637.360322991415	1
0	19572	4640.498954461663	0
0	19578	4641.379722157598	1
0	19579	4641.492455200607	0
0	19585	4641.662775294206	1
0	19586	4642.443187167282	0
0	19592	4642.920603968696	1
0	19593	4643.556734720226	0
0	19610	4647.436207206135	1
0	19612	4647.802736620056	2
0	19617	4650.376826015368	1
0	19622	4651.241380925689	0
0	19640	4657.282484296314	1
0	19642	4658.047233847288	0
0	19648	4658.496417920539	1
0	19650	4659.338814123764	0
0	19662	4659.846740652144	1
0	19663	4659.93834329918	0
0	19671	4662.391855867584	1
0	19672	4663.225337250543	0
0	19695	4665.805351429876	1
0	19696	4666.284636501519	0
0	19719	4672.269807816572	1
0	19724	4674.900483598006	0
0	19737	4678.722824128618	1
0	19740	4679.927954561757	0
0	19805	4694.373154931515	1
0	19806	4695.115192207373	0
0	19813	4695.487206434865	1
0	19815	4697.929802952778	2
0	19816	4698.148193640817	1
0	19821	4698.301903926787	0
0	19840	4701.332003695611	1
0	19843	4702.697638386217	0
0	19856	4704.286639883007	1
0	19857	4704.977839274266	0
0	19898	4714.293562414356	1
0	19900	4714.452542552787	2
0	19901	4714.618186146831	1
0	19907	4715.634459140754	0
0	19913	4715.645793990195	1
0	19914	4715.979740977123	0
0	19924	4717.024435531445	1
0	19925	4717.157660569923	0
0	19936	4717.763039962353	1
0	19939	4719.55529473087	0
0	19979	4736.875551202339	1
0	19981	4739.452351854196	0
0	20002	4740.955464955576	1
0	20003	4741.663758065903	0
0	20059	4764.864642300992	1
0	20061	4765.906954433536	0
0	20067	4766.329897188638	1
0	20068	4767.092071601093	0
0	20082	4770.657134916394	1
0	20084	4772.048036017529	0
0	20121	4780.985869322724	1
0	20122	4781.127452176861	0
0	20128	4782.065002503333	1
0	20129	4782.728410605287	0
0	20141	4785.492612149938	1
0	20142	4785.510234658188	0
0	20262	4817.248270563243	1
0	20265	4819.961654311668	0
0	20288	4822.753572217787	1
0	20292	4825.61006286486	2
0	20294	4826.864096663863	3
0	20296	4827.727686026486	4
0	20298	4828.367760113218	5
0	20300	4829.524974241572	6
0	20301	4832.596893343556	5
0	20307	4833.526915704174	4
0	20314	4834.831794775313	3
0	20319	4835.330688095129	2
0	20325	4837.273545698598	1
0	20332	4837.48325644226	2
0	20333	4837.93939937476	1
0	20338	4838.663624020183	0
0	20367	4850.110802174902	1
0	20371	4850.490699206663	0
0	20420	4866.135131790674	1
0	20422	4866.613342397515	2
0	20426	4870.270914158656	3
0	20427	4870.321800829426	2
0	20432	4870.328320259597	1
0	20437	4870.570308881029	0
0	20475	4883.213130193736	1
0	20476	4884.291409260075	0
0	20539	4897.491872044606	1
0	20542	4899.502954194261	0
0	20553	4899.968146195433	1
0	20555	4900.448714705956	0
0	20603	4913.022726758066	1
0	20607	4913.218843593854	0
0	20678	4930.34564043651	1
0	20679	4930.492904728534	0
0	20685	4930.642372184995	1
0	20686	4930.733253396299	0
0	20692	4931.77415065822	1
0	20694	4934.352759512282	0
0	20735	4946.116305222602	1
0	20738	4947.07070200485	0
0	20747	4947.780202745507	1
0	20748	4948.567087409445	0
0	20767	4950.231665333062	1
0	20770	4951.005099017761	2
0	20771	4951.592488539442	1
0	20776	4951.674404551779	0
0	20782	4951.867581629288	1
0	20784	4952.150988688944	0
0	20790	4952.254990975321	1
0	20792	4953.559903693192	0
0	20804	4954.073949966314	1
0	20806	4954.679782040803	0
0	20827	4957.273702402132	1
0	20828	4958.017496228724	0
0	20839	4959.632502527761	1
0	20841	4959.877419759584	2
0	20843	4960.40740152425	3
0	20846	4961.822360032076	2
0	20852	4962.286554138116	1
0	20857	4965.1029341084	0
0	20926	4981.02896695436	1
0	20929	4981.594763436651	0
0	21009	5001.123347755013	1
0	21010	5002.273298838633	0
0	21113	5040.917454810604	1
0	21117	5041.980699057931	0
0	21151	5050.144397672799	1
0	21154	5051.260340825655	2
0	21158	5052.979993609157	3
0	21159	5053.285624650526	2
0	21165	5053.384922581046	3
0	21166	5053.395434335689	2
0	21171	5053.51309202696	1
0	21176	5053.556682272467	0
0	21188	5054.798470742828	1
0	21189	5055.819503706951	0
0	21230	5064.625509010932	1
0	21232	5065.832377783549	0
0	21240	5066.232549907422	1
0	21245	5071.142769549803	0
0	21296	5091.167277090541	1
0	21297	5091.933676305119	0
0	21326	5098.294912103423	1
0	21328	5099.317779636133	0
0	21341	5099.718379232408	1
0	21343	5100.224054393365	0
0	21361	5104.712502494782	1
0	21362	5105.519537272993	0
0	21375	5109.321484702025	1
0	21376	5109.323576179714	0
0	21392	5113.088352419026	1
0	21400	5117.136426211279	2
0	21401	5117.388446601062	1
0	21408	5117.800495922293	2
0	21409	5118.263335147521	1
0	21415	5119.583691638663	0
0	21467	5129.741754332715	1
0	21473	5133.223119905878	2
0	21474	5133.406938929384	1
0	21479	5133.715642713901	0
0	21501	5138.126565952594	1
0	21502	5139.052938452914	0
0	21508	5139.066045692519	1
0	21509	5139.136829108019	0
0	21521	5140.940493210295	1
0	21523	5141.016644157505	2
0	21524	5141.305197951891	1
0	21530	5141.86676851955	0
0	21541	5142.663426829043	1
0	21543	5143.496485638334	0
0	21550	5143.960021258234	1
0	21552	5145.449008690778	0
0	21573	5148.193254308796	1
0	21574	5148.493035354136	0
0	21594	5152.517147488259	1
0	21595	5154.473844919262	0
0	21625	5165.352665364898	1
0	21626	5165.617132087584	0
0	21646	5169.424864125579	1
0	21648	5170.013954323197	0
0	21661	5177.978978156903	1
0	21662	5178.078105939261	0
0	21700	5182.410697759826	1
0	21703	5184.017785387426	2
0	21704	5184.138070614545	1
0	21710	5184.507828327996	2
0	21716	5187.162621417346	1
0	21723	5187.470975435404	0
0	21738	5188.551121905401	1
0	21742	5189.788557540972	0
0	21854	5227.067376764706	1
0	21856	5227.333770691722	2
0	21859	5228.814612780958	1
0	21866	5229.754240129291	0
0	21879	5230.379633906605	1
0	21880	5230.440964504916	0
0	21886	5230.845008420796	1
0	21887	5231.775241825502	0
0	21982	5254.016557547673	1
0	21983	5254.069051400255	0
0	21991	5255.681447990744	1
0	21993	5256.110783510977	2
0	21996	5256.556155248718	1
0	22001	5256.739674830865	0
0	22018	5258.945026395086	1
0	22019	5259.512372252489	0
0	22058	5267.695709162768	1
0	22061	5268.27025832177	0
0	22075	5269.708225563856	1
0	22077	5270.163827126823	0
0	22105	5276.56295522086	1
0	22106	5278.403342838177	0
0	22138	5295.663334606521	1
0	22142	5297.017597932925	2
0	22143	5297.275130477329	1
0	22151	5299.515176718659	2
0	22154	5300.366578498027	1
0	22159	5301.79239670668	0
0	22165	5301.898313360925	1
0	22166	5302.408428049356	0
0	22231	5320.185651113559	1
0	22232	5321.138092104887	0
0	22254	5326.073197476405	1
0	22256	5327.25301256081	2
0	22258	5328.720191550372	1
0	22266	5329.317294488499	0
0	22295	5334.18874364672	1
0	22296	5334.485074022462	0
0	22305	5335.359947780431	1
0	22307	5338.861944715037	2
0	22310	5341.123692428621	1
0	22321	5344.950654659141	0
0	22330	5345.868722627268	1
0	22336	5346.813490871125	0
0	22343	5347.228091145141	1
0	22344	5347.78550150802	0
0	22353	5349.457713448062	1
0	22354	5350.095542996274	0
0	22369	5352.713304752498	1
0	22371	5352.719202063982	2
0	22376	5355.68957858239	3
0	22378	5356.758288526116	4
0	22379	5357.28518605114	3
0	22384	5357.376100793716	2
0	22389	5357.466096006573	1
0	22394	5357.705676557599	0
0	22407	5359.878015676016	1
0	22408	5360.630043314064	0
0	22414	5360.675082458855	1
0	22415	5361.219162596861	0
0	22428	5364.336805489414	1
0	22430	5367.155968850158	2
0	22432	5367.609055799239	3
0	22440	5369.354200530797	2
0	22446	5370.795898368012	1
0	22451	5370.986846657324	0
0	22489	5383.150846433204	1
0	22490	5384.434265514553	0
0	22496	5384.672406513881	1
0	22499	5386.879654451743	2
0	22501	5388.389602865512	1
0	22507	5388.887981822071	2
0	22508	5389.011172195236	1
0	22513	5390.039030751516	0
0	22519	5390.367068660702	1
0	22520	5391.215075612297	0
0	22526	5392.20895449536	1
0	22531	5393.498426360039	2
0	22533	5393.666560671639	3
0	22534	5393.732947845461	2
0	22542	5394.011579033344	3
0	22547	5395.380745069179	4
0	22549	5395.908816256882	3
0	22555	5396.338919168675	2
0	22562	5397.219046797201	1
0	22568	5397.692154828317	2
0	22572	5398.822365965392	1
0	22577	5401.940819950768	0
0	22616	5412.835793147657	1
0	22617	5413.118473780788	0
0	22626	5415.143444096294	1
0	22636	5417.510613501933	0
0	22648	5421.516217493465	1
0	22650	5423.780883077323	2
0	22652	5423.824121588656	3
0	22653	5425.009934745886	2
0	22658	5426.208450329194	1
0	22664	5426.259191851044	2
0	22666	5426.495009594785	1
0	22671	5427.125320734425	0
0	22680	5427.471807728973	1
0	22683	5428.851204024659	0
0	22764	5454.338588736607	1
0	22766	5456.269251138611	2
0	22767	5456.826795694139	1
0	22774	5457.714010392094	0
0	22786	5460.366288223231	1
0	22789	5460.870568076751	2
0	22790	5461.913653195835	1
0	22796	5461.945954127633	2
0	22798	5462.170659893728	1
0	22806	5464.218735928391	0
0	22824	5466.628385212777	1
0	22825	5466.980741145074	0
0	22848	5472.341838597789	1
0	22850	5473.589133199214	0
0	22863	5474.323896915795	1
0	22864	5474.409341062004	0
0	22871	5475.27009730928	1
0	22874	5475.92482436633	0
0	22882	5477.391432091403	1
0	22884	5478.14823315945	2
0	22886	5478.520551995766	3
0	22888	5480.569349040567	4
0	22890	5480.762266645496	5
0	22891	5480.898461861376	4
0	22897	5481.152196160056	5
0	22900	5481.335064219474	4
0	22906	5481.544369344963	3
0	22911	5482.48377657536	2
0	22916	5482.893653019276	1
0	22922	5483.909790985232	0
0	22934	5486.922082544149	1
0	22935	5487.019817497835	0
0	22959	5491.240997385122	1
0	22962	5491.399107916622	2
0	22963	5491.420578763208	1
0	22973	5493.374863660504	2
0	22975	5494.089590525832	3
0	22976	5495.693639429734	2
0	22981	5495.812645330776	1
0	22987	5497.921954374733	0
0	22999	5498.633016375901	1
0	23003	5499.488144682951	0
0	23020	5499.775320816289	1
0	23022	5500.388279467395	2
0	23024	5501.298733280787	1
0	23029	5501.48537163082	0
0	23046	5505.602327444472	1
0	23049	5507.232211616673	0
0	23055	5507.978630395371	1
0	23056	5508.065395919088	0
0	23106	5523.595555232926	1
0	23107	5523.979543138358	0
0	23118	5524.187623407349	1
0	23119	5524.537748106413	0
0	23176	5545.34839773875	1
0	23177	5546.075484621715	0
0	23185	5546.587481515953	1
0	23187	5547.171704266199	0
0	23198	5547.693765492164	1
0	23201	5548.09489955389	2
0	23202	5550.403741649169	1
0	23210	5551.247234744916	2
0	23213	5551.534678223946	1
0	23219	5551.749085256528	0
0	23247	5562.706140235032	1
0	23249	5563.658650047637	0
0	23256	5565.271164379034	1
0	23259	5565.680867183177	0
0	23273	5566.846471259305	1
0	23274	5567.046813541271	0
0	23321	5577.904007122088	1
0	23322	5578.022279048166	0
0	23399	5597.498926186201	1
0	23403	5599.449244385451	0
0	23415	5600.157677255032	1
0	23418	5601.308142770654	0
0	23445	5603.568827619251	1
0	23446	5603.696457605963	0
0	23467	5609.1375036062	1
0	23470	5610.996867399702	0
0	23476	5611.607613810615	1
0	23477	5611.680623476259	0
0	23488	5613.209652877248	1
0	23494	5616.434781464794	2
0	23496	5616.652775069996	3
0	23504	5619.335650173263	4
0	23507	5621.309901542661	3
0	23514	5621.840738094542	2
0	23520	5622.582942802083	1
0	23526	5623.05108691965	0
0	23542	5624.796643574937	1
0	23543	5625.9204274863	0
0	23553	5626.40792575793	1
0	23555	5626.838424654664	2
0	23558	5627.452172512752	1
0	23563	5627.48094370765	0
0	23575	5628.765291518365	1
0	23576	5628.925261218212	0
0	23598	5633.487927900526	1
0	23600	5633.623549129312	2
0	23602	5633.657296022212	3
0	23603	5634.428920405407	2
0	23608	5634.515051337737	1
0	23618	5635.912265703423	2
0	23619	5636.209846189122	1
0	23624	5636.450419704341	0
[...]
4	116448	27547.554138053207	6.786877780678
4	116456	27549.757744080753	8.975186602863
4	116461	27550.895333550768	6.206184680428
4	116466	27555.15330827291	9.647274235105
4	116479	27558.59243363905	9.648934584227
4	116490	27561.82193887808	6.101762084074
4	116497	27570.986223199967	12.827664186768
4	116511	27575.666934214478	5.768346604311
4	116535	27576.535786317397	2.507204343416
4	116564	27586.713190597397	4.694112703059
4	116674	27606.607244530462	23.379881092604
4	116695	27611.359707881384	16.377968917976
4	116706	27614.429564343028	19.125197153985
4	116716	27614.685427033344	16.389344766914
4	116740	27625.309561765814	25.996560578438
4	116786	27630.212947968543	25.130991023343
4	116793	27634.896429702043	26.870233324383
4	116801	27637.867489739443	27.648203774837
4	116806	27639.610029118169	22.210817787292
4	116815	27640.869554978036	16.326510088821
4	116843	27648.540149795753	14.296601031329
4	116848	27648.710522945248	12.986900810593
4	116861	27652.230826807447	11.482719036398
4	116876	27653.503490899622	12.403946020487
4	116885	27654.88379516173	7.406226309166
4	116921	27661.328619907566	10.124425484657
4	116931	27661.815832590931	10.416681048483
4	116942	27665.165188316178	11.561784507075
4	116958	27667.108906970269	11.741003624798
4	116985	27671.557678708607	15.276884704953
4	116991	27672.670678290971	13.702750018359
4	116999	27676.188502793371	12.058489884013
4	117012	27680.013675050537	10.265874270591
4	117027	27686.083365053094	14.755274000146
4	117073	27691.243055971388	13.399555076812
4	117092	27694.629568594715	2.373095445206
4	117109	27699.177398599843	2.588766886904
4	117147	27715.886306794004	1.495931173276
4	117172	27723.010831780447	1.078170812987
4	117187	27725.459499909533	3.438389670276
4	117217	27730.177662152213	6.735540781231
4	117240	27736.023147172962	1.407867455668
4	117258	27741.114373828081	4.202058875
4	117342	27771.050295266883	1.167047896054
4	117373	27778.373622289297	2.579460136839
4	117391	27782.3066949552	4.783618636106
4	117407	27784.117197301187	0.354122045255
4	117466	27805.354712656919	1.794646894197
4	117470	27805.974979128073	1.022159426546
4	117485	27812.216650421857	0.018306365986
4	117538	27823.280461656416	8.492775638292
4	117603	27831.744331802683	16.682237553795
4	117624	27838.114942568654	15.364159595179
4	117646	27842.712925089357	17.93268217868
4	117663	27846.887792739733	21.081442712302
4	117678	27848.737300231126	21.095096558923
4	117692	27851.702339538203	11.385820136265
4	117708	27852.613468111612	6.044857477421
4	117714	27856.3163132075	8.086346848358
4	117741	27863.293619574186	3.399130699248
4	117790	27871.252287411098	1.863940258807
4	117801	27873.006277452658	0.762631964825
4	117822	27879.048853923422	2.288156454423
4	117869	27889.037738886664	1.149250139753
4	117953	27908.048945112882	1.703626775092
4	117970	27911.919914396752	0.257175231801
4	117989	27920.862595118716	9.156629622594
4	118018	27926.05211228487	13.267416922302
4	118025	27931.854373533046	13.62031459884
4	118038	27935.600286194495	9.873550000205
4	118046	27937.579306746496	2.981007627181
4	118110	27950.889770321486	11.848248047384
4	118129	27954.843769169588	12.626733464896
4	118139	27959.81617614088	6.189708566704
4	118155	27966.055888451076	0.981555690366
4	118262	27993.311147698818	15.799636890958
4	118280	27996.809465343452	16.343065357798
4	118293	28003.840063413798	13.861083080742
4	118343	28010.608312206205	11.224698424234
4	118350	28011.007525395717	8.266301247931
4	118360	28014.656613583508	10.27304208761
4	118367	28015.948700716877	9.165823542361
4	118372	28017.436310359423	10.387251719413
4	118380	28018.312275409338	8.094130094366
4	118406	28022.650752705065	12.130155789342
4	118411	28024.547863384783	13.56006130074
4	118417	28024.949924115204	12.797214476284
4	118423	28026.66000838223	14.070074702786
4	118434	28031.299975764108	11.654306242486
4	118439	28032.697817112192	12.581387685702
4	118446	28034.895686428082	13.28587076001
4	118459	28037.585239310038	10.339389127656
4	118465	28037.765616173853	10.195052851995
4	118476	28041.052935573431	12.344743710178
4	118496	28043.361829769189	8.361415730544
4	118514	28052.656552734765	14.873266056409
4	118603	28071.893333704097	32.107147911667
4	118612	28072.946915006557	9.617399033059
4	118651	28086.672721040567	3.771986779548
4	118666	28088.992639338037	5.742604640244
4	118714	28098.618429703101	12.892230407996
4	118722	28099.641550546947	8.341259976847
4	118727	28101.889033657218	5.845978569559
4	118732	28101.955568549666	5.477583752196
4	118743	28106.934700330938	7.800614882095
4	118761	28108.822862912303	5.526961970536
4	118916	28137.255481819681	31.740903970919
4	118928	28138.814958587069	31.278706712712
4	118943	28140.445355435709	30.126609039913
4	118948	28141.317475246763	20.792688156703
4	118953	28141.826906839357	19.862388496274
4	118960	28145.004790218167	21.067836531646
4	118972	28147.677289837712	7.90592592799
4	118988	28151.328931223822	11.127122750084
4	119032	28155.558642245969	6.888855362906
4	119048	28158.32853803708	0.972949461584
4	119130	28176.953651303858	1.833184092682
4	119199	28200.093022858546	3.866932002718
4	119210	28202.836835236923	5.731407946706
4	119225	28211.624848756037	1.190437731577
4	119250	28215.865032574053	1.072229847701
4	119262	28218.898200375238	2.84094725992
4	119463	28262.773987325688	42.121436541052
4	119469	28263.526397764865	42.848187211456
4	119474	28266.845632087553	43.036808945318
4	119479	28266.901645397858	42.94318420696
4	119491	28273.123035563157	46.520465775184
4	119508	28275.17328193481	44.262822244134
4	119515	28277.986686935664	41.057470967826
4	119543	28283.801570575516	41.579883605093
4	119571	28287.919090940241	38.577213481789
4	119580	28288.932011485941	37.446362901915
4	119595	28292.361250934507	35.779685696971
4	119624	28304.651091832807	41.928111316377
4	119649	28307.629879219298	39.762665045134
4	119657	28309.250096582789	22.90474679783
4	119662	28309.864417881882	21.556129920599
4	119667	28311.136089648402	17.886082234842
4	119674	28311.382656434681	10.713711005272
4	119681	28314.886869955187	10.741683841716
4	119688	28315.940104758254	8.924306087519
4	119704	28319.328494180037	11.955832115619
4	119715	28323.830881391035	15.545215951941
4	119722	28325.765407055965	14.565930348485
4	119727	28327.21614117377	15.171701098034
4	119734	28331.087202141393	14.821024210691
4	119741	28331.707150613795	12.56535347902
4	119749	28334.946007603159	14.619119844295
4	119792	28342.683338864469	19.989469147551
4	119857	28352.069936981318	29.11790265136
4	119864	28353.998381262123	29.340102830843
4	119869	28354.082715745851	23.988095495126
4	119874	28354.307437043059	22.864899997499
4	119879	28355.295653260151	19.602212549696
4	119892	28360.070773431016	22.417559400477
4	119902	28360.496314788208	12.666598491448
4	119919	28369.763217570483	20.14052689037
4	119954	28376.915726604996	26.955106429573
4	119960	28377.350777418047	24.875659387108
4	119973	28380.955690199838	25.107582378091
4	120010	28387.005518769555	30.939664458305
4	120015	28387.745206491556	25.926825445655
4	120020	28387.984858745568	22.960369470303
4	120025	28390.174833611544	19.405548680246
4	120036	28392.942009635721	16.868901279363
4	120076	28399.950377413626	22.460888093916
4	120083	28400.654536627129	16.404253714177
4	120090	28401.794692154725	11.207841759807
4	120095	28402.068296714623	7.522939555029
4	120102	28406.027156110259	10.083435871286
4	120111	28407.408531103092	7.27673136447
4	120132	28409.534990357008	8.325527138276
4	120145	28411.355979389583	5.457824966596
4	120172	28418.705989845235	11.078354513514
4	120190	28424.779627289536	4.251760575753
4	120216	28427.079687184358	5.786340715419
4	120225	28428.126289957547	6.721539819718
4	120230	28428.2952934283	6.868768527132
4	120237	28432.545043528159	4.510380390875
4	120308	28447.563514983154	13.643873790556
4	120317	28450.809638743902	7.008084198855
4	120330	28453.634347158622	3.587556137934
4	120355	28457.802709795441	7.054837288354
4	120366	28460.40911303991	9.284171318263
4	120380	28463.049253091485	9.971209132727
4	120385	28463.059002868263	4.885159818461
4	120389	28463.84420195759	2.168547164855
4	120406	28467.203027092621	0.200225714454
4	120414	28467.993213065122	0.461450558329
4	120456	28477.554757934829	3.70950631289
4	120512	28491.354001442962	3.755017601608
4	120537	28511.459148408949	4.576954957964
4	120548	28517.527881260727	5.496683951594
4	120596	28528.820445904118	2.697465867224
4	120612	28529.745467311901	1.346943113997
4	120645	28538.750024321065	9.196199112273
4	120702	28545.443170453609	15.366709372714
4	120714	28547.955681855443	16.331405823289
4	120734	28553.342986153549	18.339181990477
4	120741	28555.487830722172	13.063200836414
4	120751	28561.970509957579	19.284072630087
4	120766	28565.651318609558	0.630898523961
4	120798	28572.308296275241	0.081927213478
4	120823	28575.827565405641	0.578944660862
4	120830	28577.061932438014	0.670612436388
4	120873	28584.503097628681	3.362497239558
4	120884	28586.098326669997	2.623452015391
4	120897	28588.019338026278	3.474378879883
4	120902	28589.040881890971	1.446566634196
4	120912	28590.723712252145	1.03722616982
4	120919	28591.908556734449	0.559635537469
4	120934	28594.860202344592	0.272749598489
4	120942	28595.958082831354	0.761456836392
4	120972	28601.43662384788	0.578087687328
4	121009	28613.993281139964	6.856570031568
4	121039	28623.074615364862	1.084793996927
4	121105	28640.878421209399	1.546945457519
4	121121	28644.13056413185	1.236844575212
4	121142	28650.296938420106	0.203098907593
4	121164	28655.721863186046	1.072171679375
4	121194	28664.89126945885	4.574887500636
4	121209	28670.744887789419	7.343566029283
4	121265	28678.540524025787	13.007603130006
4	121287	28686.542008802315	11.342596034331
4	121322	28694.639577340898	13.186659587996
4	121326	28694.768253509693	2.5901629973
4	121378	28704.359656751014	4.847972456586
4	121488	28732.41263190049	23.619980367095
4	121504	28735.47091882027	22.632672297625
4	121515	28738.038376580143	22.166997858531
4	121524	28740.472319808256	15.965038532526
4	121537	28743.992766203185	17.152231474374
4	121560	28745.342162705208	14.473075091901
4	121571	28747.225594321021	13.360144963926
4	121576	28747.684962039701	8.22441028646
4	121586	28751.537504456058	6.557097154176
4	121607	28761.788406498459	9.765431568149
4	121690	28777.818161034316	10.407127235706
4	121694	28778.418199712945	6.229008228782
4	121710	28781.691479925638	0.545651310957
4	121725	28785.279971757258	0.393986941911
4	121765	28802.985074987016	6.34091815747
4	121785	28805.394235039339	8.144259437272
4	121791	28806.789575514968	5.873698468114
4	121800	28807.993982434484	3.303325439829
4	121807	28809.926197594204	2.201111069452
4	121822	28814.306515392912	4.792269475273
4	121858	28819.914792415782	8.095430195379
4	121872	28825.06492068485	13.143829821649
4	121923	28832.833781497727	18.654160502561
4	121954	28839.435182614421	24.183200582196
4	121965	28841.137493609286	25.448661899901
4	121970	28841.360391584731	18.669795574464
4	121977	28842.754167645346	18.435711590599
4	121989	28846.806850862548	16.674699913598
4	122003	28848.464685877411	17.687387923361
4	122014	28850.791647964145	13.207291800303
4	122027	28853.346712682163	9.305868138983
4	122046	28858.743350525526	13.19516916591
4	122051	28858.991389107889	11.806313201146
4	122059	28861.174200250533	8.771171786734
4	122069	28868.081236529292	14.137495942688
4	122084	28869.682750216235	8.766129361488
4	122090	28870.1572358478	2.133607328559
4	122098	28871.778053514931	2.231676572593
4	122165	28894.697599872605	4.288065593817
4	122170	28895.625023819441	4.730712807591
4	122175	28895.94834865872	2.850906849875
4	122182	28896.750320159001	0.333047774306
4	122219	28912.378518823965	3.366075125631
4	122236	28919.79153070989	8.862092998482
4	122252	28921.989734384409	6.098023275219
4	122280	28933.114821890978	0.76847525739
4	122285	28935.318191161505	2.434520199468
4	122324	28944.279113661087	3.005643498601
4	122348	28951.070270038432	2.128488457063
4	122382	28956.696626951925	0.538965839464
4	122474	28979.25240772656	5.052662132252
4	122509	28987.228991882542	1.793960479807
4	122526	28988.383364818315	2.88647306698
4	122542	28989.958299300422	2.631609146874
4	122573	28997.899210848636	0.166923835462
4	122604	29005.530061914239	0.011186087228
4	122622	29012.815258648415	1.008421298988
4	122630	29013.606121723934	0.560465656787
4	122637	29015.423335635861	0.528338004717
4	122645	29016.586326169444	0.463797119956
4	122661	29022.96465083474	0.363801491241
4	122694	29033.385273530216	1.343897479863
4	122755	29055.96710067916	3.111330778093
4	122766	29059.117585005461	6.017644571808
4	122783	29062.374569094673	9.149860972282
4	122791	29063.118733955133	5.563873328856
4	122816	29067.567248542135	2.026713127047
4	122823	29069.17455654527	3.046054535464
4	122845	29082.276984487758	0.380993989353
4	122853	29083.927404104004	0.31357242641
4	122872	29089.133782498435	0.475336329208
4	122884	29089.890447217713	0.059086690169
4	122915	29095.942530571139	2.032871581159
4	123001	29110.988800116883	4.935839833624
4	123008	29111.78417269419	3.498969600702
4	123017	29115.097966494548	3.545245491678
4	123028	29118.249367423618	3.260873621947
4	123042	29125.398694387408	3.780424088395
4	123080	29130.823810787972	1.40146184499
4	123137	29140.430662169493	5.987278822188
4	123146	29142.422757157862	5.382929903944
4	123180	29150.414587133597	1.699792246731
4	123202	29159.361862585242	0.130957951623
4	123210	29160.614705475548	1.242946938589
4	123237	29171.673987841533	1.961430630219
4	123245	29174.772545719349	2.303515746412
4	123252	29177.845341022352	1.618841428911
4	123288	29192.502972731974	4.163137331568
4	123299	29193.674426065491	4.246289304791
4	123330	29201.692162781259	0.383613749413
4	123346	29204.93803067468	0.814598726473
4	123353	29205.693612906281	1.095221605388
4	123358	29206.089284915589	1.474517362529
4	123363	29208.386058365389	3.261623051427
4	123372	29211.137183419624	2.189673340513
4	123410	29215.412637620777	1.33102121358
4	123469	29233.701253703328	0.02215716929
4	123477	29234.983251890431	0.392390751075
4	123516	29246.763203093691	1.686747373356
4	123546	29253.996522928396	0.878099107365
4	123575	29258.044184746177	2.014177007064
4	123579	29258.680583914827	0.727350750864
4	123595	29266.676041615055	3.980826618096
4	123705	29298.076719090962	10.033300834352
4	123710	29298.534155911099	9.966379901999
4	123717	29299.468796160958	9.793710499573
4	123728	29300.640920561868	6.936912353933
4	123738	29302.827815858787	0.091694018555
4	123745	29303.50270388026	0.203413098132
4	123761	29311.081074529089	4.058158690778
4	123790	29316.589784590295	8.127936568845
4	123795	29317.618187721705	7.535611746573
4	123804	29320.714144546031	7.920903700345
4	123811	29322.57799878262	6.004719723094
4	123824	29325.72606016712	5.726421716397
4	123833	29328.442210029218	7.734749669033
4	123861	29336.114851995258	3.444553536402
4	123895	29345.954680520306	2.080917181248
4	123909	29346.635910146322	0.643991663292
4	123919	29349.60884630474	3.121242326133
4	123975	29359.885243195615	0.447563819464
4	123995	29363.839378152637	0.475544585602
4	124014	29369.825842282467	4.671482081389
4	124041	29377.46736256904	6.263447190296
4	124049	29378.900973869083	7.151968293776
4	124061	29379.579002352155	4.896724273236
4	124066	29380.400483422772	4.560281895563
4	124075	29384.602263858514	7.772356014178
4	124109	29391.331524800464	0.719239899123
4	124117	29396.269481746955	0.08191119571
4	124131	29400.793667693913	2.296946493811
4	124136	29401.787597159418	2.565091388775
4	124149	29405.770186827947	6.507571945123
4	124179	29419.920044639495	17.38495044064
4	124225	29428.119581656822	22.451237492926
4	124236	29435.11980367748	26.534673132799
4	124254	29438.318964991249	27.553980822135
4	124275	29443.42032017913	26.759599931621
4	124280	29443.452690026664	24.443752426856
4	124285	29445.072969430038	23.722542853891
4	124296	29448.144805772053	26.747196326733
4	124322	29453.798398667018	3.584668420878
4	124336	29455.949583680712	0.055305308226
4	124356	29460.281934742268	2.365096380156
4	124364	29464.612259896035	4.384143440281
4	124410	29477.419438435647	6.174273444865
4	124449	29487.624180507969	0.065041597728
4	124489	29505.129727537637	1.127290812862
4	124537	29523.414703155592	0.944856976638
4	124547	29527.005845939337	2.75180104635
4	124562	29529.231495235996	0.951612890535
4	124569	29530.461217708076	0.27610558254
4	124576	29531.180027511824	0.66322660869
4	124596	29535.105118489106	1.416890669576
4	124608	29537.861106417174	3.874154345314
4	124637	29541.392866438946	1.650518544949
4	124641	29541.415288893785	0.282087344047
4	124652	29542.856954051139	0.967939351887
4	124660	29543.803388465383	1.280189220381
4	124702	29554.401479563156	1.60839251521
4	124709	29555.150713078665	0.292737145433
4	124733	29559.817142561193	0.401747043659
4	124750	29573.357725950591	1.509725040991
4	124789	29579.321809665564	5.071485449812
4	124796	29582.967644261153	0.430364296555
4	124803	29584.708234784515	0.513037462225
4	124843	29597.86317684324	1.109721969202
4	124854	29602.507386541016	1.095790390593
4	124878	29609.581784632686	0.197880028562
4	124964	29634.30848649596	3.193454282487
4	124969	29634.561246834688	0.80038636997
4	124975	29635.99391556788	2.224773664181
4	124990	29650.283749374696	1.726481102139
4	125012	29652.338543855529	0.004241065253
4	125021	29664.801375275777	0.469125873802
4	125094	29688.778749380745	0.988602957993
4	125134	29699.493963764892	6.423564780917
4	125151	29701.071526229161	5.549154519088
4	125171	29702.855714682095	0.418893291566
4	125201	29709.244709092919	1.073028728122
4	125242	29718.269502084944	3.904673651951
4	125247	29718.569860298169	3.402773632831
4	125251	29718.665543408271	2.977947756924
4	125275	29735.455389873333	0.248784878353
4	125283	29738.243458912599	1.104307148826
4	125297	29744.995468608196	4.536186418708
4	125319	29750.359818168091	1.999868756455
4	125323	29751.212967491061	1.409611609942
4	125341	29753.585948063485	0.936659492857
4	125370	29762.66560007699	5.207509731297
4	125496	29784.609583992524	27.113515333176
4	125504	29786.120281152969	22.088209269875
4	125509	29786.583717671215	10.846970658732
4	125516	29787.390881230127	7.84895942576
4	125527	29788.863632197321	8.769099966529
4	125578	29794.895826151077	8.225985425634
4	125582	29794.897982705978	6.417607266118
4	125609	29799.739791016255	2.036937041485
4	125631	29809.536425732949	0.159114993119
4	125676	29822.016278711975	1.089374052956
4	125680	29822.618984262378	1.683648005617
4	125695	29825.965342646119	0.389263102719
4	125702	29829.21861420778	0.838607121798
4	125717	29831.701066156864	0.632382233988
4	125757	29843.033580462307	1.994702824679
4	125770	29845.543660065031	2.569780283326
4	125774	29845.58031297794	0.256190678188
4	125788	29847.21947047697	0.482668675595
4	125800	29853.862958213808	3.723577499277
4	125809	29854.929482743272	4.480940035475
4	125813	29855.1766541121	0.673219702386
4	125844	29862.376682468687	0.743844639252
4	125871	29867.848099656908	3.456252387658
4	125876	29869.268880415234	2.03372319869
4	126021	29914.304267905813	31.901848054047
4	126027	29914.580529005735	30.716706402637
4	126040	29916.747279240675	29.893532039552
4	126062	29919.682965183906	24.736265631339
4	126067	29920.088158769485	11.353970856662
4	126079	29922.832117583946	10.967033644184
4	126091	29923.873682152364	2.05676416031
4	126096	29924.289235803491	2.131023222217
4	126100	29925.844764793251	2.582658664794
4	126126	29927.702368736531	0.050572607279
4	126141	29936.742418333166	2.939011923258
4	126153	29939.188928401516	3.907085805768
4	126172	29942.170986678631	5.748636045587
4	126177	29943.151407387196	3.282299323435
4	126182	29943.170725953629	2.449717456713
4	126192	29948.113446415911	6.571513201552
4	126229	29960.554962567988	5.534660518419
4	126244	29968.071843625822	10.207741216787
4	126284	29974.073200537141	10.388242415389
4	126297	29975.46712065569	0.428665965084
4	126351	29992.285151826679	1.48409274629
4	126378	29996.565369155209	5.717506612189

