version 2
run Second-n3-15-20191016-14:53:14-13272
attr configname Second-n3
attr datetime 20191016-14:53:14
attr experiment Second-n3
attr inifile omnetpp.ini
attr iterationvars ""
attr iterationvarsf ""
attr measurement ""
attr network org.omnetpp.queueing.Pizza
attr processid 13272
attr repetition 15
attr replication ""
attr resultdir results
attr runnumber 15
attr seedset 15
param **.PS.maxInventoriedPS 3
param **.U1.interArrivalTime exponential(3s)
param **.U2.interArrivalTime exponential(5s)
param **.PS.serviceTimeForInventoryU1 exponential(1.0s)
param **.PS.serviceTimeForInventoryU2 exponential(1.2s)
param **.PS.serviceTimeDirectU1 exponential(1.4s)
param **.PS.serviceTimeDirectU2 exponential(1.4s)
param **.PS.probabilityProducing 0.7
param **.CS.serviceTimeU1 exponential(1.1s)
param **.CS.serviceTimeU2 exponential(1.4s)

vector 0 Pizza.EntryQueueU1 queueLength:vector ETV
attr interpolationmode sample-hold
attr title "queue length, vector"
vector 1 Pizza.CS queueLength:vector ETV
attr interpolationmode sample-hold
attr title "queue length, vector"
vector 2 Pizza.EntryQueueU2 queueLength:vector ETV
attr interpolationmode sample-hold
attr title "queue length, vector"
vector 3 Pizza.sink lifeTime:vector ETV
attr interpolationmode none
attr title "lifetime of arrived jobs, vector"
attr unit s
vector 4 Pizza.sink lifeTimeU2:vector ETV
attr interpolationmode none
attr title "lifetime of arrived jobs, vector"
attr unit s
0	0	0	0
0	5	6.259122747316	1
0	7	6.426812955062	2
0	9	6.779740928897	3
0	15	8.125822386251	4
0	20	9.215084584741	5
0	22	9.794334791656	4
0	28	10.077726858813	5
0	30	10.56124356042	4
0	35	12.371268259741	3
0	43	13.872864842129	4
0	44	14.343595575776	3
0	50	14.589370897654	2
0	57	15.102486848508	1
0	63	15.808087784751	0
0	87	18.343110150369	1
0	91	19.603937953895	0
0	114	23.505660607502	1
0	117	24.662769996379	0
0	127	26.172481051688	1
0	129	26.599364886897	2
0	132	27.636047524803	1
0	138	28.285693509303	0
0	155	31.175919358053	1
0	164	35.140055651099	0
0	175	35.598492310484	1
0	177	37.368135123618	0
0	188	37.920894000799	1
0	190	38.496513466657	2
0	191	38.506422966638	1
0	196	39.389300821932	0
0	205	41.271547301412	1
0	207	41.307795786304	2
0	208	41.796944825122	1
0	213	42.910318790528	0
0	236	45.945593411304	1
0	238	46.41815586926	2
0	239	46.708491369248	1
0	245	47.221074937463	0
0	260	50.504034165165	1
0	263	51.780032108761	0
0	269	52.140774494503	1
0	271	52.527823478242	2
0	273	53.199955211889	3
0	275	54.11575002861	2
0	283	56.839549378426	1
0	292	58.727280082969	2
0	293	59.369398574532	1
0	299	59.451511835196	2
0	301	60.438441473884	1
0	306	60.603424463948	0
0	341	66.976720938492	1
0	342	68.327720539306	0
0	348	68.340849444498	1
0	350	69.678388758488	0
0	362	71.015683774004	1
0	364	71.660183197111	0
0	395	77.861580594391	1
0	396	78.01412739932	0
0	419	80.93995563177	1
0	421	83.034719316637	0
0	432	84.692270009443	1
0	435	86.136838823367	0
0	448	89.363087181404	1
0	450	89.676804853729	2
0	452	89.752962643752	3
0	456	91.01160149964	4
0	460	93.338171107917	5
0	462	96.209879213524	6
0	463	96.217518613373	5
0	469	97.277315878641	4
0	474	100.435558531136	3
0	479	100.531748844205	2
0	484	101.033422594806	1
0	489	102.172535596732	0
0	509	106.583682814945	1
0	517	109.363782312608	0
0	530	110.990797149023	1
0	532	111.864939981442	2
0	534	114.103867560641	3
0	535	114.160147746727	2
0	540	115.637120190303	1
0	546	115.794417423843	0
0	562	119.202882187753	1
0	565	119.896943301427	0
0	578	121.710810630717	1
0	579	122.273266255227	0
0	594	126.131471302886	1
0	596	126.835628899219	2
0	598	128.219657240969	3
0	603	133.20984579318	2
0	608	133.362533932166	1
0	613	133.621021411595	0
0	619	133.742320432436	1
0	622	136.600891365024	0
0	628	136.672443826425	1
0	632	138.021171271118	0
0	649	140.315512162432	1
0	652	140.730203457959	2
0	653	140.824536717855	1
0	659	140.996123139144	0
0	670	141.366104326113	1
0	671	142.244716723304	0
0	684	147.233236851122	1
0	687	147.646891150446	0
0	726	161.170100621872	1
0	727	161.224967332057	0
0	734	161.921301854135	1
0	735	162.379978885683	0
0	741	162.485426878801	1
0	742	163.024126794079	0
0	752	164.03047177456	1
0	755	165.201088834846	0
0	762	165.714534725034	1
0	763	168.099308605959	0
0	806	179.819828785468	1
0	807	180.048054177129	0
0	828	181.877585067501	1
0	830	182.393212887776	2
0	831	182.761147605218	1
0	836	182.849466785061	0
0	846	185.084825731973	1
0	847	185.857913898181	0
0	854	186.847190822161	1
0	856	187.589193239155	2
0	859	189.446965794965	1
0	866	190.421519012973	0
0	880	191.610803844399	1
0	882	191.615140803074	2
0	890	195.090625933208	1
0	896	195.204001388421	2
0	898	195.325099918729	3
0	900	196.816232072304	4
0	902	196.911812624188	5
0	904	198.020195265985	6
0	906	199.134608573821	5
0	914	200.779729738829	4
0	920	200.969968365401	5
0	924	201.921446536131	6
0	926	202.172794068804	5
0	932	202.465140712732	6
0	937	204.734793277867	7
0	938	205.33763787288	6
0	944	205.605087444744	7
0	945	206.702544461334	6
0	952	207.51700837588	5
0	959	207.966440633641	6
0	962	208.990674153033	5
0	968	209.313937946541	4
0	973	209.604878252981	3
0	978	210.647137639204	2
0	983	212.021123101023	1
0	987	214.43635134715	2
0	989	214.878619731085	3
0	991	215.362159762343	4
0	996	216.068366276559	3
0	1001	218.76531766597	2
0	1009	222.457523468052	3
0	1011	222.717481436573	4
0	1015	224.581329316448	3
0	1020	224.776347997016	2
0	1027	225.795205047987	3
0	1028	226.548100885199	2
0	1033	226.911661535687	1
0	1038	228.213081540486	0
0	1047	229.370639379294	1
0	1048	229.415090871785	0
0	1066	233.198703768979	1
0	1069	235.260768311524	0
0	1075	238.218558636463	1
0	1076	238.22453312585	0
0	1099	240.894862672676	1
0	1101	241.306364460488	0
0	1118	245.432963179668	1
0	1119	245.57122576154	0
0	1128	246.82647127596	1
0	1132	247.626529632765	0
0	1156	250.396261587143	1
0	1157	250.444056164675	0
0	1161	252.013255509401	1
0	1167	256.266473198996	0
0	1195	259.567517223476	1
0	1201	263.664048384927	0
0	1210	264.77244362241	1
0	1215	266.787141605224	0
0	1237	271.905988310702	1
0	1238	272.123691969971	0
0	1250	275.951101204	1
0	1251	276.774230463136	0
0	1257	277.135918941539	1
0	1259	278.598018832403	0
0	1298	290.27561824552	1
0	1303	293.250811492369	0
0	1316	294.602009082289	1
0	1317	295.51219405984	0
0	1334	299.400972766379	1
0	1336	300.692861235076	0
0	1348	301.914826492218	1
0	1349	302.066564713077	0
0	1374	307.969979427558	1
0	1376	308.521772363561	2
0	1382	311.771867895231	3
0	1383	312.046650414282	2
0	1388	313.060186707459	1
0	1395	313.772639489159	0
0	1399	314.473543981102	1
0	1402	315.941054640887	0
0	1415	318.82098146731	1
0	1417	320.194421476439	0
0	1423	320.600499256812	1
0	1427	321.896026342822	2
0	1428	321.906174069516	1
0	1435	322.741605100581	2
0	1436	322.903785569095	1
0	1444	323.730428226711	2
0	1446	324.669910374469	1
0	1451	325.554448126777	0
0	1474	328.711155586605	1
0	1477	329.49954044141	0
0	1503	334.547678001047	1
0	1507	336.628327835018	0
0	1524	338.369649363704	1
0	1529	339.845936196595	0
0	1538	340.842465275629	1
0	1546	343.070847252858	2
0	1550	343.68868161226	3
0	1551	345.251405862886	2
0	1556	345.330951347163	1
0	1562	345.443848238382	0
0	1581	350.587374149486	1
0	1588	352.771815580972	2
0	1590	353.012408922126	3
0	1593	353.74184247355	2
0	1598	354.643337502103	1
0	1604	355.179489724377	0
0	1625	358.030994638269	1
0	1626	358.344097094772	0
0	1636	359.711621201896	1
0	1637	360.675392674643	0
0	1643	361.117924355871	1
0	1645	362.557841779268	0
0	1652	363.289638560736	1
0	1654	363.294381008505	2
0	1655	363.317059694314	1
0	1663	365.064812174432	2
0	1665	365.718488277515	1
0	1672	366.657393893042	0
0	1680	367.355172060118	1
0	1681	367.779370164553	0
0	1715	371.820663156079	1
0	1720	372.300115728382	0
0	1731	373.986300890157	1
0	1732	374.092171568647	0
0	1743	375.316352842981	1
0	1746	376.00233441096	0
0	1753	376.185593552361	1
0	1758	378.514838097885	0
0	1767	379.830653655585	1
0	1772	381.632163340264	0
0	1789	384.068824250967	1
0	1791	384.340426942595	2
0	1794	384.864363665485	1
0	1799	384.982351985317	0
0	1808	385.273830952248	1
0	1810	385.842645234321	2
0	1817	387.929229361939	1
0	1823	388.242501571057	0
0	1829	388.564173261295	1
0	1830	389.399236486141	0
0	1847	390.969416073501	1
0	1848	390.985205405485	0
0	1865	393.458139153303	1
0	1870	396.075759401563	0
0	1893	399.33116511564	1
0	1895	399.633045623178	2
0	1904	401.859048485074	3
0	1905	401.917821233241	2
0	1911	403.390078559411	1
0	1919	405.807993003441	0
0	1936	407.034367349453	1
0	1937	407.674726803158	0
0	1948	408.411981019849	1
0	1952	409.612419918038	0
0	1959	410.261081922857	1
0	1960	410.317467198104	0
0	1967	410.843050858531	1
0	1968	411.827897368558	0
0	1977	413.012843253321	1
0	1980	414.535584046195	0
0	1987	415.417983449742	1
0	1989	415.607167999532	2
0	1993	416.686908350121	1
0	1998	416.934612643896	0
0	2018	419.493867001614	1
0	2019	419.842851907702	0
0	2033	421.5471647681	1
0	2037	421.990168656007	2
0	2038	422.500224535335	1
0	2046	427.462950491576	0
0	2053	428.848426523634	1
0	2055	429.636356882394	2
0	2061	431.707059648376	3
0	2063	432.375776181765	4
0	2064	432.761006797637	3
0	2070	433.11348933685	2
0	2075	433.789804137511	1
0	2082	434.749645517367	0
0	2099	437.412052964655	1
0	2101	438.643876549219	2
0	2103	439.38176273685	3
0	2105	439.590324047479	4
0	2111	444.91868882309	3
0	2117	444.947603969855	2
0	2123	445.679624608819	3
0	2124	446.483125774002	2
0	2131	446.655765115066	3
0	2134	449.436148152944	2
0	2139	450.195444723067	1
0	2144	452.12223364707	0
0	2192	462.966625099704	1
0	2194	462.969130787713	2
0	2195	462.987357044317	1
0	2203	464.471960745749	0
0	2212	465.136760236456	1
0	2215	468.935955699955	0
0	2225	471.3665753233	1
0	2227	471.45580344252	2
0	2228	471.763475507436	1
0	2236	473.870382303364	2
0	2237	474.150626577283	1
0	2243	474.93292481773	0
0	2249	475.049111803476	1
0	2254	476.578413367179	0
0	2272	481.006434660409	1
0	2273	482.220319931679	0
0	2283	484.298912120989	1
0	2285	485.738656169866	2
0	2287	486.154216296122	3
0	2289	487.695701964855	4
0	2290	488.390772253917	3
0	2302	492.285649469267	2
0	2308	492.836203743159	1
0	2313	493.624463866368	0
0	2336	496.628063922803	1
0	2338	497.552089817446	0
0	2364	503.973216327925	1
0	2365	504.008766630848	0
0	2380	506.822386598312	1
0	2382	508.519266216189	2
0	2386	512.138747638637	3
0	2389	514.489513541346	2
0	2396	514.630308469374	1
0	2401	515.103975850908	0
0	2411	515.924530812124	1
0	2412	515.947865888162	0
0	2449	525.011370628721	1
0	2457	529.694502803176	2
0	2458	531.790553175927	1
0	2463	532.082043067186	0
0	2472	532.81489997083	1
0	2474	533.215698288519	2
0	2477	534.434990547549	1
0	2484	535.150108162126	0
0	2499	540.287668377823	1
0	2502	541.632383127583	0
0	2517	543.399157433089	1
0	2519	545.549326331679	2
0	2525	547.784515454654	3
0	2528	549.485203581692	2
0	2533	549.494221436665	1
0	2539	549.571801785404	2
0	2540	550.718572014249	1
0	2548	554.547710945283	0
0	2557	554.815118520228	1
0	2562	556.124777070382	0
0	2578	558.356855057914	1
0	2582	559.190093543158	2
0	2583	559.222958077313	1
0	2591	562.856841789678	0
0	2605	563.666375485035	1
0	2607	564.22735826173	2
0	2610	566.221598723569	1
0	2619	568.014999196654	0
0	2643	574.248798177701	1
0	2644	575.138162744862	0
0	2660	578.089917927831	1
0	2661	578.493345974597	0
0	2670	579.161720378592	1
0	2671	579.566444879942	0
0	2684	580.644911969547	1
0	2689	585.24532222708	0
0	2709	587.025580696033	1
0	2710	587.047996956048	0
0	2739	593.864908186304	1
0	2741	594.312390894797	2
0	2743	594.686245039379	1
0	2749	594.811472985836	2
0	2751	595.115822911868	1
0	2758	596.00772044482	0
0	2773	599.895038219715	1
0	2775	600.239929139887	0
0	2821	618.310440191228	1
0	2822	618.459431357179	0
0	2838	621.571168893617	1
0	2842	622.532008001978	2
0	2845	624.103778961208	1
0	2851	626.345170302959	0
0	2881	630.495864582074	1
0	2883	631.116599900494	0
0	2900	633.628069894184	1
0	2904	635.11149470067	2
0	2905	635.699564076195	1
0	2913	636.168186134895	2
0	2915	636.821322319896	1
0	2921	637.530152296786	2
0	2922	637.602805352414	1
0	2928	638.546451197865	0
0	2966	647.614625490697	1
0	2967	647.866888344444	0
0	2973	649.15964812567	1
0	2975	649.338816242072	2
0	2976	649.339802981225	1
0	2981	649.744094734026	0
0	3001	654.3770913267	1
0	3002	655.461165806379	0
0	3015	657.361083283315	1
0	3017	658.814700148858	0
0	3038	665.057504744108	1
0	3041	667.072121717424	0
0	3055	668.294113906834	1
0	3056	668.577649056218	0
0	3105	679.866075887288	1
0	3110	681.266295946899	2
0	3112	682.862001652236	1
0	3117	683.422982535811	0
0	3123	683.464369850169	1
0	3125	683.643123827443	2
0	3126	684.605382305845	1
0	3132	685.119209814371	0
0	3161	697.581759303891	1
0	3162	697.744515471491	0
0	3249	724.847049530913	1
0	3253	726.576548752502	2
0	3254	727.659757852071	1
0	3261	728.361258138376	2
0	3263	728.418015907841	3
0	3264	728.836581668479	2
0	3270	729.501224457206	3
0	3274	730.366159720352	4
0	3276	731.081423139267	5
0	3277	731.317241713576	4
0	3283	731.557217689501	5
0	3284	731.579484664101	4
0	3289	732.364021276623	3
0	3294	732.52310382109	2
0	3298	733.774133339559	3
0	3306	735.279719479068	4
0	3309	736.253668889178	3
0	3315	737.194314215018	2
0	3322	738.070830265279	1
0	3329	739.938459754251	0
0	3341	740.363764177883	1
0	3342	741.738177549736	0
0	3362	745.756814931584	1
0	3363	746.252537789568	0
0	3442	777.111016461425	1
0	3443	777.330432503239	0
0	3449	778.675084696287	1
0	3450	780.292289456264	0
0	3471	786.679173249261	1
0	3472	786.871457900926	0
0	3487	790.909437455412	1
0	3489	790.98868328701	2
0	3493	791.362989864334	1
0	3498	792.667101026265	0
0	3526	796.258032527527	1
0	3528	796.939886459256	0
0	3534	798.107489141461	1
0	3535	798.604336616294	0
0	3541	798.634456185005	1
0	3545	799.236969160867	2
0	3549	800.392598373412	1
0	3554	801.07759953386	0
0	3585	809.803623302279	1
0	3587	809.929512528915	2
0	3588	810.11006917014	1
0	3597	812.230456024529	2
0	3598	812.432092670829	1
0	3603	812.785134263012	0
0	3609	813.270647987357	1
0	3610	813.482089237406	0
0	3622	814.017231373696	1
0	3624	814.336281002025	0
0	3649	819.418417043994	1
0	3661	823.605815043489	2
0	3664	824.105910601754	1
0	3669	825.120560308617	0
0	3681	828.604813128918	1
0	3684	829.761716905143	0
0	3708	832.583320326901	1
0	3709	832.783790841071	0
0	3721	833.882605327407	1
0	3723	834.205854815525	0
0	3742	836.796163642368	1
0	3745	837.217847779599	2
0	3748	837.559060169218	1
0	3753	837.635384688646	0
0	3759	837.791839458751	1
0	3760	837.855195976955	0
0	3764	838.928594064997	1
0	3768	842.348388104202	2
0	3770	842.906012238736	1
0	3776	843.472440539395	2
0	3777	844.162096821317	1
0	3781	844.391507176688	2
0	3783	844.843361294063	3
0	3785	844.902744012606	4
0	3792	849.624881199196	3
0	3797	849.854161364583	2
0	3803	851.040895064964	1
0	3810	852.453458291694	0
0	3823	857.417549158766	1
0	3825	857.624864042109	0
0	3831	857.93622208689	1
0	3832	857.973211229466	0
0	3864	869.273089947108	1
0	3865	871.480865503081	0
0	3920	889.262717877179	1
0	3924	892.12783747975	2
0	3926	892.254168319034	3
0	3927	892.389656524573	2
0	3932	892.776184257536	1
0	3937	892.840317900864	0
0	3943	893.366525273535	1
0	3945	893.724730756243	0
0	3960	899.086022453799	1
0	3961	899.200095185408	0
0	3975	901.707310405263	1
0	3977	903.159340739588	2
0	3978	903.165644672301	1
0	3984	903.531642974189	0
0	3990	906.177957518031	1
0	3993	907.574831719306	0
0	4044	922.197839108398	1
0	4048	923.141967210412	2
0	4051	924.910987465326	1
0	4057	925.235627328386	0
0	4085	927.272210379983	1
0	4087	927.455355324519	2
0	4089	928.689365361936	3
0	4095	929.910514421348	4
0	4096	930.342229100886	3
0	4103	931.296120320151	2
0	4108	932.645190623349	1
0	4113	933.460695827635	0
0	4127	934.095599118382	1
0	4131	936.543168222839	2
0	4134	937.685995072919	1
0	4140	938.15064434499	2
0	4143	939.220544370302	1
0	4148	939.812737595133	0
0	4209	954.409504835926	1
0	4211	955.467255869737	0
0	4235	960.887018382159	1
0	4236	962.724105355816	0
0	4296	979.786570179495	1
0	4297	980.608633563735	0
0	4320	984.264560061953	1
0	4322	985.405347935755	0
0	4358	992.51073502923	1
0	4361	993.859724816301	0
0	4369	994.605208693757	1
0	4371	994.815808580152	2
0	4372	995.761205120755	1
0	4378	996.737776120512	0
0	4407	1005.404960708414	1
0	4409	1007.246864020718	0
0	4425	1018.881413458304	1
0	4429	1019.732067700259	0
0	4470	1029.083831690138	1
0	4471	1029.088710196583	0
0	4487	1030.766355993632	1
0	4495	1036.7365986559	0
0	4501	1036.901192640951	1
0	4504	1038.87450879947	0
0	4517	1039.655253737047	1
0	4519	1041.462874354273	0
0	4525	1041.601126029793	1
0	4526	1042.994039550904	0
0	4569	1063.287031272993	1
0	4571	1063.514730560121	2
0	4573	1063.942386598806	3
0	4574	1066.384053384375	2
0	4586	1068.502130837929	3
0	4587	1068.967296371864	2
0	4594	1070.120459858112	3
0	4595	1070.541158614914	2
0	4600	1071.215054434253	1
0	4605	1071.251374286902	0
0	4613	1072.337685403797	1
0	4615	1073.241543035624	2
0	4618	1073.617252336576	1
0	4623	1074.450189389561	0
0	4653	1082.785400230802	1
0	4656	1084.127184384308	2
0	4659	1085.393651008658	3
0	4660	1085.768399176953	2
0	4667	1087.450879575717	3
0	4669	1088.862553254511	4
0	4670	1089.112236487927	3
0	4675	1089.683631412616	2
0	4681	1089.96872516654	3
0	4682	1090.268553687232	2
0	4689	1091.340046300366	3
0	4690	1091.550009753974	2
0	4695	1091.726172909455	1
0	4702	1092.651423920775	0
0	4712	1094.253173527309	1
0	4713	1094.613725112259	0
0	4728	1098.719184412956	1
0	4729	1098.781618650544	0
0	4755	1103.493006481269	1
0	4756	1103.53834355951	0
0	4773	1110.426229208295	1
0	4774	1112.449225560011	0
0	4819	1129.570332128413	1
0	4821	1131.886316553911	2
0	4823	1132.195469464155	3
0	4825	1132.962673621205	4
0	4827	1133.78271206113	5
0	4828	1134.57069763973	4
0	4836	1135.784756030987	3
0	4842	1136.367124904092	2
0	4851	1137.343520509214	1
0	4857	1137.535767732378	2
0	4860	1137.78786417712	1
0	4866	1138.834975527239	0
0	4884	1143.585596988114	1
0	4887	1144.014444882683	2
0	4891	1145.559378850241	3
0	4892	1145.865483899858	2
0	4898	1146.203844971995	3
0	4902	1148.04171983446	2
0	4907	1148.473230543941	1
0	4912	1149.027508306804	0
0	4941	1155.802854002492	1
0	4942	1156.076237043305	0
0	4949	1156.571023253508	1
0	4951	1156.894347850915	2
0	4952	1159.982392167653	1
0	4957	1160.004889266494	0
0	4963	1160.95204280485	1
0	4967	1163.812132222994	0
0	4984	1168.247378482418	1
0	4985	1169.546537642992	0
0	5005	1174.558656749844	1
0	5006	1174.595269560259	0
0	5028	1182.718470920462	1
0	5034	1183.999679175183	2
0	5036	1186.338103320216	3
0	5037	1186.740520913691	2
0	5042	1186.983387806453	1
0	5047	1188.15769537619	0
0	5083	1195.611077753336	1
0	5085	1196.259586466318	2
0	5086	1196.724959301254	1
0	5093	1198.111483609148	0
0	5112	1200.251896027996	1
0	5114	1200.949050876039	2
0	5118	1203.379234253135	1
0	5123	1203.682817006865	0
0	5127	1205.248390246772	1
0	5129	1205.579488059376	2
0	5136	1206.787342319686	1
0	5142	1206.908843266219	2
0	5147	1208.43727135626	1
0	5155	1211.438105160054	0
0	5171	1212.85797706109	1
0	5173	1213.063230052894	2
0	5177	1214.089137780164	1
0	5182	1214.733813453863	0
0	5219	1227.54256790486	1
0	5222	1229.670162293035	0
0	5234	1231.549996459173	1
0	5236	1231.974932790687	2
0	5238	1232.592684283427	3
0	5241	1234.155842330696	2
0	5247	1235.339796986121	1
0	5253	1235.883757705372	0
0	5262	1236.804425509043	1
0	5264	1237.685631079888	2
0	5266	1238.29244637388	3
0	5270	1241.202967839644	2
0	5275	1241.680399843633	1
0	5283	1242.083296653035	0
0	5325	1249.728575074094	1
0	5326	1250.372388754709	0
0	5373	1264.409782366387	1
0	5374	1264.447117562262	0
0	5385	1265.258564948055	1
0	5393	1270.343216882101	2
0	5394	1270.905708627951	1
0	5399	1270.933716253816	0
0	5424	1273.285961261616	1
0	5426	1273.707978304422	2
0	5427	1275.739628733156	1
0	5435	1276.015242447881	2
0	5438	1278.122027695796	1
0	5444	1280.178119231356	0
0	5458	1284.990370249132	1
0	5460	1285.118723227173	2
0	5466	1289.901620256425	3
0	5468	1290.710737796476	4
0	5470	1291.044134584367	5
0	5472	1293.257922923947	6
0	5474	1293.912344246837	7
0	5476	1296.078274578069	8
0	5477	1296.611194364606	7
0	5482	1297.049869340418	6
0	5487	1297.309294813772	5
0	5492	1297.469800471592	4
0	5497	1298.324821395048	3
0	5502	1299.220101137113	2
0	5508	1302.894212860936	3
0	5515	1304.898200434517	2
0	5524	1308.82315486102	1
0	5530	1309.031584449142	2
0	5532	1309.151308586833	3
0	5535	1309.647278553646	4
0	5537	1310.242344417811	3
0	5542	1311.011521131236	2
0	5549	1312.791179196321	1
0	5555	1313.727657830578	0
0	5595	1319.285750342229	1
0	5598	1320.857148980506	0
0	5615	1326.952275742297	1
0	5617	1327.091016492219	2
0	5620	1328.338593143833	1
0	5626	1330.854054114653	0
0	5640	1332.411562935629	1
0	5641	1332.541395807359	0
0	5664	1335.290680399213	1
0	5666	1336.207661670579	2
0	5671	1339.664201113914	1
0	5677	1340.503906247282	0
0	5715	1348.298569620736	1
0	5719	1348.61860928968	2
0	5721	1348.869928426875	1
0	5727	1349.485959498341	2
0	5730	1350.077531771538	3
0	5731	1350.247070222761	2
0	5736	1351.125981619504	1
0	5743	1351.649399831524	0
0	5777	1357.409196388231	1
0	5780	1357.658697962757	0
0	5786	1358.426401093011	1
0	5790	1361.46124568595	0
0	5796	1361.576689062588	1
0	5798	1362.586046885913	0
0	5804	1364.296813832709	1
0	5805	1364.508975782264	0
0	5811	1366.006409794362	1
0	5812	1366.147841048536	0
0	5819	1367.836452553756	1
0	5822	1369.637446128777	0
0	5828	1371.833609840806	1
0	5829	1371.942024591484	0
0	5880	1390.28145572058	1
0	5881	1390.854208290173	0
0	5897	1391.883179863324	1
0	5898	1392.509175245971	0
0	5905	1394.246005788164	1
0	5907	1394.307729667693	2
0	5911	1395.33191823737	3
0	5913	1395.433205157649	4
0	5914	1395.767410672262	3
0	5920	1396.42555027138	2
0	5929	1397.225096386565	3
0	5930	1400.145720321947	2
0	5936	1400.551390923058	1
0	5942	1401.282004832341	0
0	5953	1404.074752092223	1
0	5955	1404.34473126018	2
0	5956	1404.462291863053	1
0	5962	1405.199933489049	2
0	5964	1407.109810535982	3
0	5965	1407.772414282004	2
0	5971	1408.34712788082	3
0	5973	1408.695721779745	2
0	5979	1409.104265548265	1
0	5984	1409.372222331242	0
0	5990	1412.115925071772	1
0	5991	1414.072045432743	0
0	6044	1423.41946210277	1
0	6047	1424.5257314097	0
0	6053	1424.860274591669	1
0	6056	1425.377236171594	0
0	6069	1426.116014698744	1
0	6071	1426.739913541479	2
0	6072	1427.698497364196	1
0	6080	1429.446991087752	2
0	6081	1429.459339696162	1
0	6086	1430.494478473536	0
0	6101	1433.658333316853	1
0	6105	1436.014091449584	0
0	6112	1436.989336574645	1
0	6113	1437.04642258616	0
0	6134	1440.628684057077	1
0	6138	1441.086633474771	2
0	6139	1441.432763732502	1
0	6147	1442.693112197786	2
0	6148	1442.732462653443	1
0	6154	1442.939295051353	2
0	6155	1443.327202138093	1
0	6161	1444.672687307036	2
0	6164	1445.978787833082	1
0	6169	1446.219625026906	0
0	6205	1456.268572069339	1
0	6206	1456.799018833233	0
0	6220	1459.934184224171	1
0	6222	1461.11655686851	2
0	6225	1462.507987848934	1
0	6231	1463.35894445887	0
0	6244	1465.213685065135	1
0	6245	1465.733130038031	0
0	6258	1466.511831919781	1
0	6259	1466.54910300225	0
0	6318	1483.239948392292	1
0	6321	1484.815989855769	0
0	6335	1487.93310536717	1
0	6336	1488.266653450499	0
0	6342	1488.543794493665	1
0	6343	1488.826276228317	0
0	6349	1489.256409870174	1
0	6352	1490.562695173868	0
0	6367	1495.315815411412	1
0	6368	1495.437890503872	0
0	6383	1498.81563345557	1
0	6384	1499.140169071586	0
0	6410	1503.135953677693	1
0	6415	1503.639559942717	0
0	6440	1509.684086262424	1
0	6441	1509.788387717341	0
0	6451	1510.28667051211	1
0	6452	1510.689725531332	0
0	6460	1512.591530745075	1
0	6461	1512.687590800625	0
0	6475	1513.52593163314	1
0	6479	1515.430408990628	0
0	6503	1518.755852915123	1
0	6505	1519.054822918917	2
0	6506	1519.749152009086	1
0	6511	1519.982548058231	0
0	6520	1521.527623757422	1
0	6522	1521.749355395613	2
0	6526	1522.634395780803	1
0	6532	1522.643144743562	2
0	6534	1522.797349967497	3
0	6535	1523.549560622504	2
0	6541	1525.139689829225	3
0	6546	1527.828910398548	2
0	6552	1528.975580201593	1
0	6557	1529.009658946502	0
0	6584	1540.941161257148	1
0	6586	1541.27480434132	2
0	6587	1542.535086746489	1
0	6596	1543.884803526781	0
0	6611	1546.470576829163	1
0	6613	1547.227269628212	2
0	6615	1547.322615988256	3
0	6619	1548.481685110477	4
0	6620	1549.030616961807	3
0	6632	1551.702100766208	4
0	6634	1552.099836470414	5
0	6635	1552.776144313301	4
0	6640	1552.871899668917	3
0	6648	1554.319692738379	4
0	6650	1554.353658066022	5
0	6651	1554.821792587646	4
0	6658	1557.088813941256	5
0	6659	1558.924127017549	4
0	6668	1561.020452488415	3
0	6674	1561.43386481968	4
0	6675	1561.80026558468	3
0	6679	1561.800404483782	4
0	6682	1562.96799864387	3
0	6689	1563.709546940311	2
0	6693	1564.083470380015	3
0	6695	1564.612993749886	4
0	6698	1565.657074300944	3
0	6705	1567.360378423976	2
0	6713	1568.338758653406	3
0	6714	1568.994176785508	2
0	6720	1571.914792954697	3
0	6725	1574.059532960038	4
0	6727	1575.14719077043	5
0	6730	1575.57274439539	4
0	6736	1575.710138113606	5
0	6737	1577.396446616063	4
0	6742	1577.508387828885	3
0	6748	1577.575673908863	4
0	6751	1577.98686006906	3
0	6760	1581.830629809579	2
0	6765	1582.173303765111	1
0	6771	1585.127705503577	2
0	6772	1586.583655112989	1
0	6776	1587.750891403641	2
0	6780	1588.637056776709	1
0	6785	1588.833682356118	0
0	6791	1590.425378412439	1
0	6792	1591.625088707169	0
0	6799	1592.422854036487	1
0	6802	1594.022373025288	2
0	6803	1594.317966986916	1
0	6809	1596.300628834947	0
0	6839	1600.395700356284	1
0	6848	1601.9326307834	0
0	6888	1607.512074447442	1
0	6893	1610.144179376248	0
0	6905	1612.822368954489	1
0	6907	1615.065495832545	2
0	6911	1617.252064116536	3
0	6912	1618.374615905805	2
0	6917	1618.536497766944	1
0	6923	1618.665924230678	0
0	6937	1620.961149887214	1
0	6941	1622.46877977705	0
0	6954	1624.929663402504	1
0	6958	1626.164329425947	2
0	6959	1626.854607999078	1
0	6964	1626.879043597645	0
0	6984	1629.158468123279	1
0	6986	1631.591793198509	2
0	6991	1635.140921372766	1
0	6997	1635.333703820529	0
0	7008	1638.683985584472	1
0	7013	1639.661366087357	0
0	7022	1641.717029788034	1
0	7024	1641.784665756206	2
0	7026	1643.062225920544	3
0	7031	1644.951143755629	2
0	7038	1645.574622070453	1
0	7044	1645.708161312214	2
0	7047	1645.939965067025	3
0	7051	1646.676348014507	2
0	7056	1646.807507366846	1
0	7060	1647.176428712372	2
0	7063	1647.920103031029	1
0	7067	1648.184616183303	2
0	7072	1649.323606581528	1
0	7078	1650.113596032336	2
0	7082	1654.284287150856	3
0	7087	1657.090938284543	2
0	7091	1657.365914731795	3
0	7093	1658.088230361514	4
0	7095	1658.497739822278	5
0	7097	1660.24369425952	6
0	7103	1661.175267904116	5
0	7107	1662.284231451135	6
0	7110	1663.491313711082	5
0	7117	1664.224433676345	4
0	7126	1667.735166873854	3
0	7132	1668.56965487517	4
0	7134	1670.064637059849	3
0	7139	1670.236303014382	2
0	7146	1671.075902249692	1
0	7152	1672.728451134445	2
0	7154	1673.037501715694	1
0	7159	1673.315071699222	0
0	7163	1673.691830060058	1
0	7166	1674.232505351124	0
0	7170	1674.470033630384	1
0	7174	1676.717692243266	2
0	7175	1676.854738607257	1
0	7180	1678.499220080241	0
0	7186	1680.738943494038	1
0	7188	1681.235241999784	2
0	7190	1682.452173797874	1
0	7198	1683.306947381936	2
0	7199	1683.438047384694	1
0	7205	1683.725315913376	2
0	7209	1684.381815814829	3
0	7211	1685.074934455605	4
0	7212	1685.472652474083	3
0	7218	1685.754849666264	4
0	7221	1686.948268821162	5
0	7222	1687.053943850727	4
0	7229	1687.15879284546	3
0	7235	1688.472674754149	4
0	7238	1689.583686490734	3
0	7244	1691.951832965527	4
0	7245	1693.956432300509	3
0	7253	1696.590503389461	2
0	7258	1696.763836116331	1
0	7263	1696.788370876251	0
0	7267	1698.965613512813	1
0	7271	1701.859981125265	2
0	7274	1703.690553100813	1
0	7279	1706.395918258586	0
0	7283	1706.776055877917	1
0	7286	1707.877702575385	0
0	7297	1712.406718388524	1
0	7298	1712.737858015968	0
0	7312	1717.741630924116	1
0	7313	1718.795093155028	0
0	7340	1725.75852373729	1
0	7341	1725.958585894694	0
0	7351	1727.231523532458	1
0	7354	1728.352371272263	0
0	7363	1732.021780219199	1
0	7366	1733.998834132327	0
0	7397	1742.413160033253	1
0	7399	1744.665629998443	0
0	7447	1753.122774509807	1
0	7450	1754.01096322884	0
0	7462	1755.559245672691	1
0	7464	1755.796616254248	2
0	7466	1756.35319779256	3
0	7468	1758.702881492512	4
0	7470	1759.179835063333	5
0	7473	1760.25276972237	4
0	7478	1761.851655534431	3
0	7483	1762.124899295272	2
0	7489	1763.004544331057	1
0	7494	1763.006328494058	0
0	7500	1763.989393905367	1
0	7504	1764.930365512431	2
0	7508	1767.81139875545	3
0	7512	1768.44034992383	2
0	7517	1769.800634228033	1
0	7522	1770.039213309453	0
0	7544	1772.488962860102	1
0	7546	1772.73247187753	2
0	7547	1773.660835561889	1
0	7554	1774.630925989968	0
0	7561	1776.700906749416	1
0	7562	1776.742436859984	0
0	7581	1782.653507820328	1
0	7583	1783.114819379575	2
0	7586	1784.365194734466	3
0	7588	1784.566190897752	2
0	7594	1786.759699268344	1
0	7599	1787.046614189042	0
0	7619	1790.822295738887	1
0	7621	1791.729425042276	2
0	7623	1792.704039851793	3
0	7629	1798.772886254046	4
0	7634	1799.183260479875	5
0	7636	1799.733342984865	6
0	7640	1806.421787302446	5
0	7646	1807.346623668797	4
0	7653	1807.697718680309	3
0	7659	1810.011438321911	4
0	7660	1810.021758389876	3
0	7665	1810.413469317571	2
0	7671	1810.800428569756	3
0	7672	1811.632813836505	2
0	7678	1813.774183260434	1
0	7683	1814.132750394336	0
0	7687	1814.675902116654	1
0	7690	1816.637302203867	0
0	7723	1823.222131649493	1
0	7726	1823.837793325126	0
0	7733	1824.445998975787	1
0	7739	1825.996411918111	2
0	7741	1827.485405795308	3
0	7742	1828.202333545985	2
0	7748	1828.736406969419	1
0	7754	1829.868234560628	0
0	7776	1832.277219219887	1
0	7778	1832.461947236706	2
0	7782	1835.316674468602	3
0	7785	1837.130877116537	2
0	7791	1838.539316098804	1
0	7798	1839.702386730499	0
0	7804	1839.963374744289	1
0	7805	1840.365823652842	0
0	7819	1842.083893033212	1
0	7821	1843.319666828492	2
0	7827	1847.1055232574	3
0	7828	1847.390414413245	2
0	7833	1847.740787115652	1
0	7840	1848.511484214195	2
0	7841	1848.817444319676	1
0	7850	1850.192779364196	0
0	7871	1852.548879022252	1
0	7873	1852.97942751571	2
0	7877	1854.770728915831	3
0	7881	1855.614254405495	2
0	7886	1856.74187769999	1
0	7892	1857.341189148375	0
0	7907	1859.854483769506	1
0	7913	1861.802383364833	2
0	7915	1861.971104000559	3
0	7917	1863.199704647468	4
0	7919	1863.856898410337	5
0	7921	1865.11797685538	6
0	7925	1866.7170739575	7
0	7927	1867.356217067402	8
0	7933	1868.690227459989	9
0	7935	1869.025373038742	10
0	7936	1870.455476249845	9
0	7941	1870.59544052642	8
0	7950	1876.635670455465	7
0	7959	1877.766802645091	6
0	7965	1878.446934216127	5
0	7975	1879.752444601531	6
0	7978	1881.300493798756	5
0	7984	1882.349651122208	4
0	7991	1882.854168588111	3
0	7996	1883.173871918648	2
0	8001	1883.910466298915	1
0	8006	1885.680729199962	0
0	8014	1888.050419621473	1
0	8015	1888.881366337958	0
0	8019	1890.125189833153	1
0	8024	1890.854032058528	0
0	8028	1891.387360236729	1
0	8030	1891.805703510883	2
0	8035	1894.691434154269	1
0	8040	1895.375937370378	0
0	8076	1907.150541554236	1
0	8082	1910.291560881375	2
0	8085	1910.786676888871	1
0	8092	1911.756326930435	0
0	8108	1915.503669122694	1
0	8110	1916.343175573955	2
0	8112	1918.120057739905	3
0	8114	1918.663378317446	4
0	8116	1918.73619922592	5
0	8117	1919.65459135469	4
0	8124	1920.44347452177	3
0	8130	1920.903553386572	2
0	8138	1922.874156752249	1
0	8144	1923.895734393532	0
0	8161	1928.252445321675	1
0	8163	1928.319448138957	2
0	8166	1928.614278697396	1
0	8171	1928.826563882048	0
0	8198	1935.304401263524	1
0	8204	1938.613145937779	2
0	8206	1939.240091564409	3
0	8207	1939.256685685866	2
0	8213	1939.693682215392	3
0	8221	1944.4056194299	4
0	8223	1944.971573409239	3
0	8230	1945.697492028656	4
0	8232	1948.070917081498	3
0	8242	1951.476262758797	2
0	8248	1952.060844498378	3
0	8251	1952.860506670435	4
0	8252	1953.480443664921	3
0	8258	1954.629140654885	4
0	8259	1955.045813557414	3
0	8264	1955.060496652542	2
0	8271	1957.068027674112	3
0	8273	1957.635319364751	4
0	8275	1958.221390178844	3
0	8280	1958.402464817559	2
0	8285	1959.581575546043	1
0	8292	1961.615710354606	0
0	8333	1970.973132273833	1
0	8335	1973.02033703114	2
0	8339	1975.464036147438	3
0	8346	1979.912258565794	2
0	8353	1980.350742812819	3
0	8356	1982.242172886288	2
0	8362	1982.46715434279	3
0	8363	1982.910633631242	2
0	8368	1982.977995264054	1
0	8373	1983.051365245636	0
0	8385	1986.96841183637	1
0	8389	1989.751413649748	0
0	8395	1989.969290288773	1
0	8398	1990.835544974944	0
0	8409	1992.417715452223	1
0	8411	1993.231080795851	0
0	8433	1996.080029729612	1
0	8439	1997.908946257224	2
0	8441	2000.908542583682	1
0	8446	2001.256300783598	0
0	8468	2006.64859396892	1
0	8471	2007.691504412489	0
0	8480	2008.949860740544	1
0	8482	2009.571117030907	0
0	8508	2015.288314844134	1
0	8511	2017.57484740419	0
0	8539	2023.653446031408	1
0	8540	2023.88736368473	0
0	8549	2024.635753260731	1
0	8555	2029.321635364067	0
0	8562	2030.398677538721	1
0	8564	2031.321963757907	0
0	8589	2034.452410875389	1
0	8591	2035.709496580312	2
0	8602	2040.157852145543	1
0	8609	2040.590248665376	2
0	8611	2040.764177846324	1
0	8617	2042.498432255252	0
0	8623	2042.851702767483	1
0	8625	2042.980113457881	2
0	8626	2043.077516577794	1
0	8631	2043.152101220138	0
0	8637	2044.071832868191	1
0	8638	2044.075410686243	0
0	8668	2047.045136022887	1
0	8671	2049.129198071157	0
0	8684	2053.213155270075	1
0	8689	2053.77934209083	2
0	8693	2054.85093682595	3
0	8695	2054.979224226727	4
0	8697	2055.32673852333	5
0	8699	2055.342007213579	6
0	8704	2058.499599851736	5
0	8710	2058.687077862827	6
0	8711	2059.078236766917	5
0	8716	2059.209422103779	4
0	8721	2059.348385955957	3
0	8728	2061.590450596184	2
0	8734	2062.166558060386	1
0	8741	2062.861966864061	2
0	8743	2063.242104832879	3
0	8745	2063.448943512462	2
0	8750	2064.689444357173	1
0	8756	2066.074511639164	2
0	8763	2067.399289634249	1
0	8771	2068.648831121327	0
0	8796	2069.929294248024	1
0	8799	2071.059355825414	0
0	8813	2072.57812922888	1
0	8816	2075.392161574569	0
0	8826	2077.14042043126	1
0	8829	2077.546239667865	0
0	8851	2082.23282434275	1
0	8856	2085.065033641118	2
0	8858	2087.865788659119	3
0	8860	2088.5443648798	4
0	8862	2088.913382937075	5
0	8863	2089.315997238666	4
0	8868	2089.410706860169	3
0	8874	2091.596863256872	2
0	8880	2091.871302247228	1
0	8886	2091.927242730651	2
0	8887	2092.129524708479	1
0	8894	2092.717207331903	0
0	8900	2093.526709194354	1
0	8901	2093.694958493733	0
0	8923	2099.407487573726	1
0	8925	2099.978590537217	2
0	8928	2100.559775411125	1
0	8935	2100.722195459562	2
0	8937	2100.850823140219	3
0	8939	2102.535382089335	2
0	8944	2102.613214073155	1
0	8949	2102.876322297328	0
0	8970	2104.814973270544	1
0	8972	2105.276999076525	2
0	8978	2106.35389231667	1
0	8984	2107.957003611537	0
0	9020	2113.919172290709	1
0	9021	2114.731101160472	0
0	9053	2123.229463625883	1
0	9056	2126.81007959336	0
0	9068	2127.620487034282	1
0	9070	2128.617895445873	0
0	9087	2132.897067240108	1
0	9090	2132.979223357993	0
0	9121	2137.738107845561	1
0	9122	2139.22248730189	0
0	9138	2146.754289632706	1
0	9139	2146.995324472388	0
0	9154	2151.266773432641	1
0	9156	2151.373943368033	2
0	9157	2153.110663105481	1
0	9163	2153.688453110158	2
0	9164	2154.063864466999	1
0	9171	2154.78481613385	0
0	9210	2166.033382267235	1
0	9214	2166.80107290706	0
0	9242	2176.29222504108	1
0	9243	2176.336575982132	0
0	9250	2178.390634558052	1
0	9251	2179.715038724422	0
0	9272	2182.068632988085	1
0	9274	2182.90633786358	0
0	9280	2183.685069771851	1
0	9282	2183.851422976077	2
0	9283	2184.242027882206	1
0	9288	2184.682585667139	0
0	9295	2186.283190140723	1
0	9296	2187.238295778957	0
0	9313	2192.007595174385	1
0	9316	2192.843522007928	2
0	9317	2193.056229590178	1
0	9324	2196.136732717937	0
0	9362	2208.20505648711	1
0	9363	2208.386919825859	0
0	9465	2232.376146828475	1
0	9468	2233.285411198522	2
0	9469	2234.593152683036	1
0	9475	2234.602088905201	2
0	9477	2235.242913987238	1
0	9483	2235.304049935494	0
0	9489	2235.471159208411	1
0	9490	2236.218347612057	0
0	9507	2241.416834863683	1
0	9508	2241.463090652024	0
0	9538	2251.983714634402	1
0	9541	2252.883228313874	0
0	9560	2256.276069892756	1
0	9562	2257.372831634868	2
0	9565	2260.342976976861	1
0	9571	2260.769717461032	2
0	9573	2260.981486376251	1
0	9579	2261.827709171914	0
0	9607	2268.960284649908	1
0	9608	2269.12281711365	0
0	9741	2307.810210680688	1
0	9743	2308.299306077338	2
0	9744	2308.561053791267	1
0	9748	2308.728278500223	2
0	9752	2313.085286568103	3
0	9757	2313.635349370307	4
0	9761	2315.614656605078	3
0	9767	2315.676206020707	4
0	9771	2316.28951691125	3
0	9776	2316.397463806346	2
0	9782	2316.679006429844	1
0	9787	2316.849605768768	0
0	9793	2317.555071136724	1
0	9798	2317.722749451661	0
0	9809	2318.332261268674	1
0	9812	2319.743198043599	2
0	9816	2320.542471634125	3
0	9817	2320.682487348853	2
0	9823	2321.763833437688	1
0	9828	2322.105155001811	0
0	9872	2331.847927163849	1
0	9874	2334.019397379507	2
0	9877	2334.457105429059	1
0	9885	2335.459879617338	0
0	9892	2335.995113025184	1
0	9894	2340.066664192755	0
0	9902	2341.902794064019	1
0	9903	2342.876860457033	0
0	9909	2343.099754745437	1
0	9913	2343.376463064019	2
0	9916	2343.775674937309	1
0	9922	2343.944748638122	2
0	9924	2344.538470770267	1
0	9929	2346.004927733398	0
0	9950	2347.5849215516	1
0	9952	2348.762070296592	0
0	10015	2370.178466686031	1
0	10016	2370.764951430987	0
0	10054	2375.140043904029	1
0	10055	2375.145410280713	0
0	10069	2376.943443560193	1
0	10073	2377.9647309677	0
0	10088	2379.643205437816	1
0	10090	2380.151679838227	0
0	10097	2380.839506942819	1
0	10099	2380.983620293326	0
0	10105	2382.388022356771	1
0	10106	2382.945221667621	0
0	10145	2390.443870386481	1
0	10146	2390.694451784151	0
0	10167	2395.219163473345	1
0	10169	2395.309869226929	2
0	10171	2395.418513652948	3
0	10173	2396.561545173447	4
0	10174	2398.495643595092	3
0	10181	2401.068483236125	4
0	10182	2401.359537324036	3
0	10187	2401.983099844584	2
0	10195	2402.925490767265	3
0	10196	2402.975169641843	2
0	10203	2403.863370942495	3
0	10206	2405.233300692211	2
0	10212	2405.247753893403	3
0	10215	2405.856916695435	2
0	10220	2406.283586589058	1
0	10224	2406.383381275069	2
0	10226	2406.451042340154	3
0	10228	2407.722331541062	4
0	10236	2411.181735261812	5
0	10238	2411.648646270922	4
0	10244	2412.674650861405	3
0	10249	2413.440349027352	2
0	10260	2414.710032506563	1
0	10265	2415.649852786805	0
0	10302	2421.996395157128	1
0	10305	2424.420608453882	2
0	10306	2425.081238612454	1
0	10313	2425.276887744777	0
0	10332	2429.234641686799	1
0	10333	2429.608292527638	0
0	10346	2432.355525473402	1
0	10348	2432.501844670227	0
0	10364	2435.639837303049	1
0	10367	2435.881251422273	0
0	10383	2439.073901592204	1
0	10387	2439.353480345352	0
0	10413	2444.959830955825	1
0	10414	2445.839169695961	0
0	10424	2449.16249229397	1
0	10425	2451.673449567068	0
0	10445	2455.316839995739	1
0	10448	2456.555995578532	0
0	10458	2457.597376207101	1
0	10463	2458.853458733454	0
0	10469	2458.921706705944	1
0	10470	2459.777228010265	0
0	10479	2461.18346443077	1
0	10482	2461.729814217853	0
0	10500	2463.959209091397	1
0	10502	2464.601712213292	2
0	10507	2466.560575855607	1
0	10512	2467.141645142396	0
0	10525	2474.131958954859	1
0	10529	2477.010215355686	0
0	10550	2481.879523764689	1
0	10551	2482.524687073804	0
0	10558	2482.859166600339	1
0	10559	2483.679601671474	0
0	10573	2485.142158539578	1
0	10576	2486.533813428583	0
0	10587	2487.011945397204	1
0	10590	2487.234078140043	2
0	10591	2489.4291760348	1
0	10596	2489.59995775809	0
0	10607	2491.446852060455	1
0	10610	2492.234633995809	0
0	10616	2492.528550562572	1
0	10618	2493.596508860067	0
0	10654	2501.869637918024	1
0	10657	2505.371186638886	0
0	10684	2515.12177013936	1
0	10687	2516.260244059949	2
0	10688	2516.40668304131	1
0	10695	2517.176630428303	2
0	10696	2517.680464718884	1
0	10702	2517.991149908272	0
0	10716	2520.453593849077	1
0	10717	2520.490052532353	0
0	10761	2528.97384508726	1
0	10762	2529.26241840975	0
0	10781	2531.203708133572	1
0	10783	2531.72368171056	2
0	10789	2535.780988673916	1
0	10794	2535.940848879352	0
0	10809	2538.697167102865	1
0	10810	2538.978127260391	0
0	10816	2539.735374195279	1
0	10818	2539.897452095043	2
0	10820	2540.722050583447	1
0	10827	2541.693819991089	0
0	10839	2543.721058816697	1
0	10840	2543.745912750223	0
0	10847	2544.740965535978	1
0	10850	2545.836094979261	2
0	10852	2546.329354524059	3
0	10853	2546.728819576111	2
0	10860	2547.009290824243	3
0	10862	2547.636975792266	2
0	10867	2550.145344260794	1
0	10873	2551.403354064262	0
0	10879	2552.084587840993	1
0	10880	2552.508877515901	0
0	10884	2553.034968173207	1
0	10890	2559.640547837348	0
0	10928	2568.777686430481	1
0	10931	2569.317689558157	0
0	10948	2571.975735983698	1
0	10951	2574.989773176763	0
0	10966	2577.564419614754	1
0	10968	2581.865420518572	2
0	10971	2582.358930320466	1
0	10978	2582.780893796051	0
0	10996	2585.706202669557	1
0	10999	2586.287499291299	2
0	11000	2586.475949547434	1
0	11006	2587.467900217559	0
0	11017	2589.661941091532	1
0	11019	2590.790418826611	2
0	11020	2590.959557882012	1
0	11026	2593.110084791299	0
0	11035	2594.376395808417	1
0	11037	2594.706581475677	2
0	11038	2596.25809228317	1
0	11043	2596.818622040904	0
0	11049	2597.734791245977	1
0	11050	2597.989962811346	0
0	11092	2605.897872078104	1
0	11093	2606.066645904514	0
0	11115	2610.237815489691	1
0	11117	2610.935871056748	0
0	11145	2617.785994274403	1
0	11148	2622.774405570203	0
0	11164	2626.474846139673	1
0	11165	2627.160431124414	0
0	11204	2641.127398468984	1
0	11205	2642.557412632141	0
0	11220	2646.689382031306	1
0	11222	2648.334332937735	0
0	11269	2655.896021150968	1
0	11270	2661.290739160628	0
0	11292	2665.409773550128	1
0	11293	2666.329964111841	0
0	11307	2675.450463176671	1
0	11311	2677.526862579924	2
0	11314	2678.145351611278	1
0	11320	2678.178719794209	2
0	11323	2678.315568585976	3
0	11324	2678.366595063582	2
0	11330	2678.567805216675	3
0	11338	2681.299373734417	4
0	11341	2682.175671012239	3
0	11347	2684.037739288157	2
0	11354	2685.370468676307	3
0	11356	2685.628872499283	4
0	11357	2685.695412374821	3
0	11363	2685.848461787693	4
0	11364	2685.862610482844	3
0	11372	2686.215162274707	2
0	11379	2688.076894012045	1
0	11385	2688.092611767557	2
0	11388	2690.380532447779	1
0	11393	2690.544551449319	0
0	11422	2693.4992471782	1
0	11423	2694.04532705521	0
0	11429	2694.138050979499	1
0	11431	2695.957542755308	0
0	11476	2703.438454130429	1
0	11480	2703.634087140751	0
0	11507	2711.806168571976	1
0	11508	2712.557204389292	0
0	11529	2718.147153801037	1
0	11532	2719.19877692382	2
0	11533	2720.193815462707	1
0	11538	2720.201468676652	0
0	11544	2720.559282573477	1
0	11546	2720.766073512469	2
0	11548	2721.000291769442	1
0	11554	2721.481736346529	0
0	11564	2723.797582943174	1
0	11568	2723.980666018974	2
0	11570	2724.844174532691	1
0	11575	2725.009679400366	0
0	11588	2726.16994864283	1
0	11589	2727.142539179122	0
0	11595	2728.284472285336	1
0	11597	2728.632622168991	0
0	11616	2732.74340679561	1
0	11619	2733.252192071995	2
0	11621	2733.955259857523	3
0	11625	2734.046154075465	4
0	11626	2734.695504421303	3
0	11632	2735.097317780069	2
0	11639	2735.5797010766	3
0	11641	2735.73121905674	2
0	11647	2736.076953157312	1
0	11652	2736.471724632539	0
0	11683	2744.962229968342	1
0	11686	2745.535297349767	0
0	11698	2745.789602098297	1
0	11699	2746.043629881214	0
0	11723	2749.538068904903	1
0	11725	2749.675440877667	2
0	11726	2749.950671542721	1
0	11732	2750.243486258296	2
0	11733	2751.34040620531	1
0	11741	2752.714866008476	0
0	11793	2766.615375135972	1
0	11796	2768.374596164454	0
0	11802	2768.487347251642	1
0	11809	2770.352818207192	0
0	11833	2774.644445593547	1
0	11835	2775.265410416301	2
0	11840	2776.045793866474	1
0	11846	2776.328445388619	2
0	11847	2776.756415394431	1
0	11853	2776.814788583008	2
0	11856	2777.945104223005	1
0	11862	2778.637924313043	2
0	11864	2778.967814871449	3
0	11866	2783.359809562294	2
0	11872	2783.484270665076	3
0	11873	2783.675044275976	2
0	11878	2784.0260163564	1
0	11884	2785.860820979145	0
0	11930	2796.342777109552	1
0	11931	2797.025855531143	0
0	11937	2797.043192456246	1
0	11939	2798.502969450386	2
0	11941	2799.779985888698	3
0	11942	2799.984876537899	2
0	11947	2800.23804538094	1
0	11955	2802.315197730148	0
0	11983	2809.713286633008	1
0	11985	2811.33591009804	2
0	11987	2813.059556967768	3
0	11988	2813.111438944788	2
0	11993	2813.15112958045	1
0	11998	2813.499040644529	0
0	12011	2816.401737670949	1
0	12013	2816.895018300192	2
0	12020	2819.921787593818	1
0	12027	2822.200749020169	0
0	12052	2825.096440125646	1
0	12053	2825.192473692981	0
0	12059	2825.22474605716	1
0	12064	2825.784190567665	2
0	12068	2827.00996948259	3
0	12069	2827.050668139704	2
0	12075	2827.272309435265	3
0	12078	2828.07037301149	2
0	12083	2828.401256369362	1
0	12090	2831.705657148044	0
0	12101	2832.076444909105	1
0	12108	2834.378953363632	0
0	12114	2834.464668946952	1
0	12115	2834.505850623744	0
0	12129	2837.427682823402	1
0	12130	2838.539980184585	0
0	12141	2839.698504207749	1
0	12143	2839.964082380027	2
0	12144	2840.124298865281	1
0	12150	2841.793805881008	0
0	12163	2843.474081179355	1
0	12166	2845.284899733371	0
0	12182	2846.539576025623	1
0	12183	2847.128107992744	0
0	12202	2850.450158646523	1
0	12212	2853.979328899662	0
0	12218	2854.026749713334	1
0	12219	2854.535628385426	0
0	12262	2863.194722103905	1
0	12264	2864.419948295131	2
0	12266	2864.483806973258	3
0	12270	2866.746427113989	4
0	12274	2868.892220517806	5
0	12275	2869.159587390585	4
0	12281	2869.66019562094	3
0	12287	2871.123102603367	2
0	12293	2871.650869828301	3
0	12294	2871.990676031754	2
0	12299	2872.12385675473	1
0	12306	2872.817780628231	0
0	12310	2872.94034027479	1
0	12315	2874.108228082263	0
0	12333	2877.662980487064	1
0	12338	2878.082480927905	0
0	12349	2880.137592294523	1
0	12350	2880.162652559451	0
0	12390	2893.294259441931	1
0	12392	2893.441182899911	2
0	12393	2893.504732559644	1
0	12398	2894.868704689542	0
0	12463	2912.113224683171	1
0	12464	2913.048102161803	0
0	12486	2923.48848006605	1
0	12487	2924.409057265338	0
0	12494	2924.757861377939	1
0	12496	2926.431629277567	2
0	12498	2928.299774666398	1
0	12506	2931.334942176769	0
0	12525	2943.04726406085	1
0	12526	2943.126084406179	0
0	12590	2960.124687517655	1
0	12591	2960.539039293689	0
0	12603	2964.395757915484	1
0	12605	2964.926515654752	2
0	12609	2965.576665032523	3
0	12611	2965.713171438153	4
0	12612	2967.012309676868	3
0	12619	2967.686203901176	2
0	12627	2972.098260344219	1
0	12632	2972.235361958755	0
0	12643	2973.366961950511	1
0	12647	2975.68225129822	2
0	12649	2977.131393034706	1
0	12657	2978.246048082576	2
0	12658	2979.349838071373	1
0	12669	2981.10458244142	0
0	12685	2984.350519134063	1
0	12687	2985.053193513675	0
0	12736	2995.966501268163	1
0	12737	2998.489396871237	0
0	12778	3007.233380255548	1
0	12779	3007.749564576262	0
0	12809	3013.575571688108	1
0	12810	3014.131131328458	0
0	12873	3027.793351984524	1
0	12878	3029.147466227852	0
0	12907	3034.640415617191	1
0	12909	3034.852142393534	2
0	12911	3036.714916539583	3
0	12916	3037.859570838455	4
0	12917	3038.368506943648	3
0	12925	3040.504151958346	2
0	12930	3040.913917587891	1
0	12937	3042.184577875	0
0	12951	3043.326890201863	1
0	12953	3043.65820421242	0
0	12982	3048.055994887612	1
0	12984	3048.875188054009	0
0	12990	3049.671404396108	1
0	12992	3050.727131285624	2
0	12996	3053.223106361564	1
0	13002	3054.19080838802	0
0	13008	3054.78578725687	1
0	13010	3055.343844864982	0
0	13047	3069.970444900507	1
0	13048	3070.350941167221	0
0	13071	3072.743622710156	1
0	13077	3076.051770661202	2
0	13079	3077.298866593977	3
0	13084	3079.182506068269	2
0	13089	3079.293457158166	1
0	13093	3080.111274215116	2
0	13096	3082.163339419353	1
0	13102	3082.78942926785	2
0	13104	3083.194702268119	3
0	13106	3084.107007025309	2
0	13113	3085.53373897007	1
0	13119	3086.455548280567	2
0	13120	3086.659037444923	1
0	13125	3087.094917149316	0
0	13129	3087.875922246314	1
0	13133	3092.966746946211	2
0	13138	3094.835892752245	1
0	13143	3094.866988716609	0
0	13150	3095.312013170349	1
0	13152	3095.856018981745	2
0	13153	3096.109691552609	1
0	13158	3096.597657403329	0
0	13162	3096.9500718828	1
0	13168	3100.049897815615	0
0	13177	3101.009244512138	1
0	13178	3102.304123596531	0
0	13187	3104.127811933439	1
0	13192	3105.623798506765	0
0	13206	3108.413491745127	1
0	13211	3112.490682500054	0
0	13240	3118.846881503972	1
0	13242	3119.060581328535	2
0	13244	3119.154783515608	3
0	13248	3120.355373204387	4
0	13252	3122.69857312011	5
0	13254	3122.757736387497	6
0	13255	3125.244706751194	5
0	13262	3125.727897022866	6
0	13263	3125.970894958247	5
0	13269	3126.959274646329	4
0	13276	3127.426097467522	5
0	13279	3129.792381614324	4
0	13285	3130.731154010701	3
0	13290	3130.97171140531	2
0	13298	3131.285233199291	3
0	13299	3132.19013642015	2
0	13304	3132.414013925501	1
0	13310	3132.704632463348	2
0	13311	3132.894697103472	1
0	13319	3133.633440251837	0
0	13330	3134.086807981505	1
0	13332	3134.656226919149	0
0	13338	3135.788188942054	1
0	13339	3135.857072267058	0
0	13390	3147.447916347116	1
0	13393	3148.338075253186	0
0	13403	3151.158228194382	1
0	13406	3152.891932936781	0
0	13414	3155.683154183379	1
0	13415	3155.692254034536	0
0	13424	3157.250206023673	1
0	13426	3157.719947610982	2
0	13429	3157.749695458472	1
0	13435	3160.209844479898	0
0	13469	3164.845976372131	1
0	13472	3167.412223086199	0
0	13488	3171.368770498096	1
0	13492	3171.736106246612	2
0	13496	3172.798904781679	1
0	13502	3172.883840312007	2
0	13503	3172.923729625616	1
0	13508	3174.176194191238	0
0	13514	3174.565445644765	1
0	13517	3175.514924898614	0
0	13521	3177.933382784646	1
0	13523	3179.533505318553	2
0	13530	3182.803311005944	1
0	13535	3183.696086884336	0
0	13552	3188.002844123275	1
0	13553	3188.239866409923	0
0	13563	3191.263851182338	1
0	13566	3193.020775607191	0
0	13577	3193.382752577083	1
0	13578	3194.621863167252	0
0	13582	3196.771007920657	1
0	13591	3200.434306170911	0
0	13595	3203.803150879947	1
0	13598	3204.545306695433	0
0	13602	3204.62245200207	1
0	13604	3206.418262177341	2
0	13606	3206.941697121932	3
0	13609	3207.283049019632	2
0	13615	3208.422767777633	3
0	13617	3208.648856809576	4
0	13619	3210.245473247842	3
0	13623	3211.246561646811	4
0	13625	3212.176422680875	5
0	13628	3213.55778837743	4
0	13640	3216.800842751751	3
0	13647	3218.406312986432	2
0	13653	3218.435248746482	3
0	13654	3218.861070219476	2
0	13659	3218.971167705638	1
0	13665	3220.42908643865	0
0	13684	3221.34048216748	1
0	13685	3221.632033460915	0
0	13700	3223.544139459644	1
0	13706	3224.616065747772	0
0	13723	3226.3792357504	1
0	13724	3226.410511602369	0
0	13741	3231.137317256061	1
0	13743	3231.539382574319	2
0	13750	3233.434455618138	1
0	13755	3233.795574482869	0
0	13773	3236.968800216503	1
0	13776	3237.213108306924	0
0	13791	3244.107594921431	1
0	13793	3244.435712295511	0
0	13829	3254.85641552852	1
0	13834	3257.797443245284	2
0	13837	3259.848131013532	1
0	13842	3260.195674163206	0
0	13848	3260.893905839184	1
0	13850	3261.320470039397	2
0	13851	3261.719964040425	1
0	13860	3263.883955440955	0
0	13864	3264.03310875905	1
0	13869	3265.962588538804	2
0	13871	3266.654952223663	3
0	13876	3267.62392068873	2
0	13881	3267.803478314565	1
0	13886	3268.030227658617	0
0	13890	3268.754614377596	1
0	13893	3269.176027171567	0
0	13910	3275.688744914584	1
0	13912	3275.844385624499	2
0	13916	3277.353516543222	3
0	13918	3278.9877234173	4
0	13919	3279.817881437958	3
0	13924	3279.819502763242	2
0	13930	3280.585721661096	1
0	13938	3282.017533520581	2
0	13939	3282.234280495314	1
0	13944	3283.041062775898	0
0	13959	3286.345566228921	1
0	13960	3286.982761460903	0
0	13972	3289.186900118422	1
0	13974	3291.08487289736	2
0	13977	3293.18755374927	1
0	13983	3293.272366993583	2
0	13985	3293.357958897069	3
0	13986	3293.980042848273	2
0	13991	3294.188062546835	1
0	13997	3294.452232937698	2
0	13998	3294.804669156509	1
0	14004	3294.919049573394	0
0	14018	3298.691730402909	1
0	14022	3300.316988405116	0
0	14045	3303.739104246904	1
0	14046	3303.86249890271	0
0	14052	3303.939520676843	1
0	14054	3304.309608095211	0
0	14065	3304.834590725191	1
0	14067	3305.184499510799	2
0	14069	3305.564125872612	1
0	14074	3305.835789287456	0
0	14078	3306.23737715108	1
0	14082	3308.531030481848	2
0	14083	3309.229904588711	1
0	14090	3312.231710597297	0
0	14097	3314.035911208405	1
0	14099	3314.281632920273	0
0	14115	3316.141188955969	1
0	14117	3317.507796628238	2
0	14118	3318.168682823605	1
0	14123	3318.457228105714	0
0	14130	3319.507834227217	1
0	14132	3320.013091308045	2
0	14134	3321.665567938206	1
0	14140	3321.867707335145	2
0	14143	3322.691976793707	1
0	14149	3322.968331941886	0
0	14176	3332.404312999099	1
0	14177	3332.528617397024	0
0	14207	3340.029710742521	1
0	14209	3340.40877753627	2
0	14210	3340.969450604048	1
0	14216	3341.194490758233	2
0	14218	3341.256751506116	3
0	14219	3341.535015444399	2
0	14224	3341.813695577701	1
0	14232	3343.360273987925	0
0	14287	3365.484718646578	1
0	14288	3368.767605195976	0
0	14294	3369.308634952494	1
0	14297	3370.347963671974	0
0	14311	3373.198869642176	1
0	14312	3373.763705848976	0
0	14334	3380.24323508142	1
0	14336	3380.271586122213	2
0	14337	3381.475883207641	1
0	14342	3381.866878072659	0
0	14370	3393.993648362565	1
0	14372	3394.179128015294	2
0	14376	3396.566185099706	3
0	14377	3398.836035559453	2
0	14382	3399.036789214096	1
0	14390	3400.105185478797	0
0	14459	3413.748384704883	1
0	14461	3413.760347687992	2
0	14462	3413.794096330622	1
0	14468	3413.794664147138	2
0	14472	3415.353897137298	1
0	14477	3415.655811586296	0
0	14509	3424.484822254998	1
0	14512	3425.278927511264	2
0	14513	3425.553519383182	1
0	14518	3425.580794720987	0
0	14525	3426.711629294681	1
0	14527	3427.646416711231	0
0	14533	3427.829534393085	1
0	14535	3427.871013274148	2
0	14540	3430.517844864174	3
0	14541	3430.947612969024	2
0	14546	3431.528342047642	1
0	14552	3431.560839613244	2
0	14554	3432.187102703994	1
0	14559	3432.468372062164	0
0	14565	3433.636272195815	1
0	14566	3434.811396542157	0
0	14572	3435.911530522513	1
0	14577	3438.122971683482	0
0	14626	3447.122267409645	1
0	14632	3448.509460393468	2
0	14635	3450.7553363813	3
0	14636	3451.014794875254	2
0	14641	3451.766460567725	1
0	14646	3452.173763175321	0
0	14650	3453.483669615996	1
0	14655	3454.623651527423	0
0	14673	3457.668484611021	1
0	14676	3459.682319617361	0
0	14685	3462.103873849334	1
0	14687	3462.715556026428	2
0	14690	3463.516375950092	1
0	14696	3464.174865815916	2
0	14698	3464.989067253793	1
0	14705	3466.594551483164	0
0	14718	3467.414093468608	1
0	14719	3467.599787001143	0
0	14742	3474.408857790081	1
0	14745	3474.800544477917	2
0	14747	3476.201676529556	1
0	14753	3476.572551168439	0
0	14759	3477.080068653386	1
0	14762	3478.205542015013	0
0	14786	3482.86517590623	1
0	14787	3486.234141356794	0
0	14803	3487.196373038967	1
0	14807	3492.032435237081	0
0	14821	3493.094867782174	1
0	14825	3493.356473361038	0
0	14852	3498.268832027007	1
0	14854	3498.282395275497	2
0	14855	3499.566175673631	1
0	14860	3499.808109507497	0
0	14868	3500.670057350075	1
0	14869	3501.174397786535	0
0	14875	3501.386449488717	1
0	14879	3502.550405118031	2
0	14882	3502.767537593063	3
0	14883	3503.251988950319	2
0	14889	3503.476003981837	1
0	14894	3503.681675547068	0
0	14907	3505.326431026009	1
0	14908	3506.605344801386	0
0	14957	3517.039306213668	1
0	14960	3518.33215181062	0
0	14986	3520.614545098017	1
0	14988	3520.991808229169	0
0	15013	3537.312302288331	1
0	15015	3537.739094786692	2
0	15016	3538.020241569114	1
0	15023	3538.092290940575	2
0	15024	3539.106390408023	1
0	15029	3539.153709459892	0
0	15039	3540.484898307113	1
0	15045	3541.280825584888	0
0	15051	3542.50900541881	1
0	15056	3543.69879852807	0
0	15062	3544.454821647221	1
0	15063	3544.511442878945	0
0	15074	3545.831378881279	1
0	15076	3546.743988515783	0
0	15091	3549.189827894608	1
0	15093	3551.185838684105	0
0	15107	3552.959037253561	1
0	15109	3553.645917115518	0
0	15117	3554.515955699293	1
0	15118	3555.463811010675	0
0	15150	3565.323948186297	1
0	15154	3565.492832011787	0
0	15161	3565.694386529133	1
0	15162	3567.374093842722	0
0	15170	3568.679112992482	1
0	15171	3570.03084934031	0
0	15180	3572.125497796681	1
0	15182	3572.576106310195	2
0	15185	3573.696355834738	1
0	15190	3573.989962155203	0
0	15207	3575.169245840602	1
0	15208	3576.636225150235	0
0	15258	3589.840915414174	1
0	15260	3591.722743901749	2
0	15263	3592.397605394178	1
0	15270	3593.56683592911	2
0	15271	3593.669039516712	1
0	15279	3594.451913827009	0
0	15285	3594.790796616229	1
0	15288	3597.249446727344	0
0	15294	3597.365051876548	1
0	15295	3597.798416971862	0
0	15308	3599.706186364953	1
0	15310	3601.707840895437	0
0	15319	3603.419852144454	1
0	15325	3605.943548675462	0
0	15336	3608.649036989737	1
0	15340	3609.369188872816	2
0	15341	3609.822728956215	1
0	15347	3609.95276976713	2
0	15349	3610.258609068283	1
0	15355	3611.357117047588	0
0	15405	3621.15246177502	1
0	15408	3621.391081185996	0
0	15418	3623.252533315686	1
0	15420	3624.299815168394	0
0	15426	3624.589547533205	1
0	15429	3624.807399626017	2
0	15430	3625.202097513192	1
0	15435	3625.240313085693	0
0	15443	3626.869606348815	1
0	15449	3628.49013202885	2
0	15450	3628.50703718957	1
0	15461	3630.793236156982	2
0	15462	3632.057790395888	1
0	15467	3632.635098383759	0
0	15490	3635.879021702247	1
0	15491	3636.251100541991	0
0	15513	3638.354875266744	1
0	15516	3639.012968180953	0
0	15527	3640.640054353397	1
0	15529	3642.87692581932	0
0	15552	3644.449363138744	1
0	15554	3644.633745139973	2
0	15558	3645.521419485233	3
0	15561	3646.72975956637	2
0	15568	3651.503362443862	1
0	15574	3652.613983083339	0
0	15604	3657.843324426974	1
0	15606	3658.144007601817	2
0	15607	3659.720763758129	1
0	15613	3660.237296168137	2
0	15615	3660.345396208322	1
0	15622	3661.022780547363	0
0	15630	3661.830841096616	1
0	15631	3663.690706354616	0
0	15671	3675.744031882432	1
0	15672	3675.813370398397	0
0	15695	3680.461229964995	1
0	15696	3681.150245844358	0
0	15727	3694.144869223623	1
0	15732	3695.324459125551	0
0	15742	3696.889506823584	1
0	15754	3702.557089262412	2
0	15755	3703.216952291897	1
0	15760	3703.404566819645	0
0	15769	3704.700032599535	1
0	15775	3712.405761483285	2
0	15777	3712.660265251934	1
0	15782	3712.980939878293	0
0	15786	3713.117423732147	1
0	15789	3714.214938352878	0
0	15805	3716.912840430899	1
0	15807	3717.540134157755	0
0	15818	3718.968899957788	1
0	15819	3718.993144442577	0
0	15828	3720.51775138951	1
0	15833	3720.83455311311	0
0	15844	3723.978319845082	1
0	15855	3725.750818909821	0
0	15861	3725.912033878277	1
0	15863	3725.955393284679	2
0	15865	3726.412330103855	3
0	15866	3726.48570206457	2
0	15871	3727.578814342608	1
0	15877	3728.232398308366	2
0	15878	3728.495494481637	1
0	15884	3729.956430926735	0
0	15929	3743.24999883387	1
0	15933	3744.097096836794	0
0	15961	3747.814669241719	1
0	15964	3749.018979784007	0
0	15980	3752.132534458704	1
0	15981	3752.999736359644	0
0	15987	3753.008899467381	1
0	15989	3754.092346548536	0
0	15995	3754.26099231746	1
0	15996	3754.457082848453	0
0	16002	3754.675751906366	1
0	16007	3755.786762648138	0
0	16035	3762.257893501716	1
0	16036	3762.688496736595	0
0	16064	3776.029998670688	1
0	16066	3776.919880653666	2
0	16068	3777.071149225009	3
0	16072	3779.030569767912	2
0	16079	3779.458819704464	3
0	16080	3779.510451322428	2
0	16086	3779.604465192195	3
0	16088	3780.789434969543	2
0	16094	3783.327079578146	1
0	16100	3783.351803005114	0
0	16106	3784.220304902968	1
0	16107	3784.778293802276	0
0	16114	3785.091655481508	1
0	16115	3785.135682650725	0
0	16130	3786.931980403598	1
0	16132	3786.966988024679	2
0	16133	3787.104338561833	1
0	16139	3788.063756566315	0
0	16150	3791.287898616789	1
0	16154	3791.956103587309	2
0	16156	3792.554530922849	1
0	16161	3792.818610738968	0
0	16167	3793.513667498987	1
0	16168	3793.554214523647	0
0	16217	3811.401452902252	1
0	16220	3813.988748201636	0
0	16320	3841.512664704124	1
0	16321	3841.741358033499	0
0	16344	3848.073032425029	1
0	16345	3848.579370378593	0
0	16351	3848.745418045636	1
0	16352	3849.052072200751	0
0	16366	3855.608954335217	1
0	16367	3855.657220095965	0
0	16373	3856.679641166146	1
0	16375	3856.969802925293	0
0	16390	3860.404263914502	1
0	16391	3861.05430707508	0
0	16395	3862.63446478865	1
0	16398	3863.925272225021	0
0	16404	3866.321361503266	1
0	16405	3866.55048554827	0
0	16441	3874.610213199762	1
0	16442	3875.694244905857	0
0	16448	3875.847208504821	1
0	16449	3876.131194894792	0
0	16491	3884.971971852533	1
0	16492	3886.142036746075	0
0	16527	3897.876116923921	1
0	16532	3900.011514304833	0
0	16538	3900.629292907996	1
0	16539	3901.071570384039	0
0	16552	3903.094879539647	1
0	16557	3903.46553035223	2
0	16558	3905.476867485482	1
0	16563	3905.718256362928	0
0	16569	3905.809703831182	1
0	16570	3907.296964480794	0
0	16605	3914.54411736046	1
0	16606	3914.825330936447	0
0	16610	3916.18109917896	1
0	16613	3917.900077795192	0
0	16625	3924.713149634478	1
0	16631	3928.286393563017	0
0	16645	3929.529701907245	1
0	16647	3930.734614232395	2
0	16648	3930.872304827548	1
0	16652	3931.17989179037	2
0	16655	3931.501960481267	1
0	16660	3932.393383288713	0
0	16666	3935.131150516915	1
0	16667	3935.133937035322	0
0	16671	3935.136401337727	1
0	16674	3935.802929177427	0
0	16702	3941.42342081852	1
0	16704	3942.941309507438	0
0	16760	3965.750917979452	1
0	16761	3966.978820936203	0
0	16776	3970.912683931274	1
0	16778	3971.513120713317	2
0	16779	3971.626048286264	1
0	16785	3972.740999037411	0
0	16820	3987.392282631455	1
0	16821	3987.518283943853	0
0	16833	3990.04905250936	1
0	16834	3990.204381510363	0
0	16854	3992.444783645927	1
0	16857	3995.827041902241	0
0	16876	4001.61337866863	1
0	16877	4001.744301197694	0
0	16891	4005.148535347539	1
0	16892	4005.25560163801	0
0	16917	4014.361680483777	1
0	16920	4015.066630370472	0
0	16978	4030.053083573313	1
0	16979	4030.249721885802	0
0	17009	4043.569896318018	1
0	17011	4044.108637165409	0
0	17025	4050.969679452383	1
0	17027	4051.360578195545	0
0	17041	4052.803626007475	1
0	17042	4053.486773913929	0
0	17074	4061.621455358385	1
0	17076	4061.682332678433	2
0	17077	4062.859148454577	1
0	17085	4064.124077990222	0
0	17096	4064.355348890043	1
0	17100	4065.42090970285	0
0	17110	4066.638705774446	1
0	17111	4066.718187883351	0
0	17117	4066.970352600452	1
0	17120	4067.388816395685	2
0	17121	4067.739055256411	1
0	17130	4069.962925881998	0
0	17146	4075.315321602608	1
0	17147	4077.674457525253	0
0	17158	4078.224204197816	1
0	17159	4079.298685472449	0
0	17166	4079.351925252178	1
0	17168	4079.362512044273	2
0	17170	4079.931442156253	3
0	17173	4082.731784000362	2
0	17178	4083.761454764642	1
0	17183	4084.531022815997	0
0	17210	4091.53956529181	1
0	17212	4091.734788725687	2
0	17214	4091.901536221353	3
0	17215	4092.301279114369	2
0	17221	4093.7348730822	1
0	17226	4093.930041429996	0
0	17241	4095.058883363545	1
0	17244	4095.276620868883	0
0	17252	4096.629452145985	1
0	17254	4097.275728054669	0
0	17266	4098.45003907191	1
0	17267	4098.577191000324	0
0	17283	4100.711381293653	1
0	17284	4101.321292231226	0
0	17308	4111.003009234814	1
0	17309	4111.206502435603	0
0	17325	4114.7349667941	1
0	17327	4114.913162348295	0
0	17338	4115.931381600761	1
0	17341	4116.854342979797	2
0	17342	4117.707124531556	1
0	17347	4117.738597443532	0
0	17389	4131.790781562356	1
0	17392	4131.858515136352	0
0	17398	4132.053562497139	1
0	17401	4132.531276053504	2
0	17403	4132.59241690131	3
0	17404	4132.614936505793	2
0	17409	4132.627629635864	1
0	17415	4134.287235231404	0
0	17439	4138.999277457309	1
0	17441	4139.404217171968	2
0	17443	4139.480274020073	3
0	17446	4143.150332161692	2
0	17453	4143.52201491154	1
0	17459	4144.823980387347	0
0	17468	4145.413167691	1
0	17473	4148.332734545615	0
0	17483	4149.330275348759	1
0	17485	4149.936188164287	2
0	17487	4151.736308831803	3
0	17489	4151.823835748553	4
0	17491	4153.325123260758	5
0	17493	4155.669728743875	6
0	17495	4156.232973432886	7
0	17499	4157.663331206987	6
0	17504	4158.462284261202	5
0	17509	4158.994697152005	4
0	17514	4160.839127414243	3
0	17518	4161.200607573618	4
0	17527	4164.083517845737	3
0	17533	4164.4668374445	2
0	17539	4164.791282464087	1
0	17545	4165.040207462119	2
0	17547	4165.76203670232	1
0	17552	4165.778515771566	0
0	17558	4166.936193642308	1
0	17561	4168.159714377306	0
0	17574	4169.827020830365	1
0	17575	4169.845011560546	0
0	17582	4171.310917940063	1
0	17584	4172.495225654468	0
0	17606	4178.567560166967	1
0	17607	4179.686132902931	0
0	17614	4181.221110041142	1
0	17615	4183.359376662728	0
0	17621	4183.459925678252	1
0	17623	4185.962727659007	0
0	17642	4189.390303458682	1
0	17644	4189.692903078112	0
0	17679	4201.755105771374	1
0	17680	4202.411719294528	0
0	17720	4211.854025840453	1
0	17721	4211.893878414535	0
0	17727	4212.163117001518	1
0	17731	4213.545821915369	0
0	17742	4214.104173539775	1
0	17745	4215.494929009538	0
0	17770	4221.108826718557	1
0	17772	4221.232007734676	2
0	17774	4223.862340829622	1
0	17780	4224.162105916604	0
0	17817	4229.655714539299	1
0	17821	4230.154730967562	2
0	17823	4233.230138962203	1
0	17828	4233.630056174264	0
0	17845	4235.992942166569	1
0	17846	4236.757379399995	0
0	17859	4241.327129653837	1
0	17860	4241.358953092815	0
0	17890	4248.193024030439	1
0	17892	4249.009309830765	0
0	17925	4256.550155902522	1
0	17926	4258.237450297946	0
0	17932	4258.670996695868	1
0	17933	4258.736854228502	0
0	17951	4261.980625780311	1
0	17952	4262.584481862734	0
0	17958	4262.659009357321	1
0	17960	4262.825429351956	0
0	17972	4264.994369853828	1
0	17975	4266.19533908835	0
0	17994	4274.409357837301	1
0	17999	4275.219469651067	2
0	18001	4275.337301532724	3
0	18002	4276.046363764278	2
0	18010	4277.739172764487	1
0	18015	4277.763167523611	0
0	18034	4280.872740139302	1
0	18035	4280.88236881692	0
0	18054	4283.593953461954	1
0	18057	4283.834311624649	2
0	18059	4284.282252379827	3
0	18062	4285.253905594551	2
0	18068	4286.07847810431	1
0	18077	4287.992189138673	0
0	18083	4288.590168041893	1
0	18085	4289.624824391632	2
0	18086	4289.939429568146	1
0	18092	4290.35870923458	0
0	18099	4291.12867891494	1
0	18101	4292.217030689506	0
0	18122	4294.447983774509	1
0	18123	4294.498456288396	0
0	18134	4295.391548750463	1
0	18135	4295.819291632811	0
0	18144	4297.736635519015	1
0	18147	4302.335001889089	0
0	18159	4303.401391935782	1
0	18165	4306.903091784299	2
0	18168	4308.155924599324	3
0	18169	4308.781137491681	2
0	18178	4311.451858587631	1
0	18185	4312.107523734534	0
0	18196	4312.235874879163	1
0	18197	4312.51781440307	0
0	18210	4316.224129101854	1
0	18214	4317.439903837333	2
0	18220	4320.828565668679	3
0	18223	4323.054880785904	2
0	18228	4323.069722462842	1
0	18234	4324.377377316894	0
0	18246	4327.187670565374	1
0	18247	4327.507574914288	0
0	18263	4328.815553349384	1
0	18265	4328.893561120645	2
0	18268	4329.146503889824	1
0	18273	4329.181917260378	0
0	18279	4330.928380069334	1
0	18282	4331.419860970353	0
0	18288	4331.708414899898	1
0	18290	4332.636279050323	0
0	18301	4337.413191957529	1
0	18302	4338.295205343116	0
0	18313	4341.173157034283	1
0	18315	4342.050153714897	2
0	18320	4343.160302163772	1
0	18324	4343.166743418612	2
0	18329	4344.003385204992	1
0	18337	4345.189920544114	2
0	18339	4345.25427115725	3
0	18340	4345.522142611927	2
0	18349	4347.340597755521	1
0	18355	4348.060722961189	0
0	18377	4350.207320499453	1
0	18380	4353.326748444218	0
0	18439	4368.26053066169	1
0	18440	4369.353558289289	0
0	18452	4373.249467936561	1
0	18454	4375.612308743862	2
0	18457	4375.88657246541	1
0	18465	4377.737235720667	0
0	18500	4388.781532877996	1
0	18503	4389.202354079807	0
0	18536	4393.436363775365	1
0	18538	4393.480539797514	2
0	18540	4396.079004477251	3
0	18542	4396.381987988126	4
0	18545	4397.673558672423	3
0	18553	4398.788020834244	2
0	18558	4398.899127639353	1
0	18567	4400.435302245657	0
0	18595	4403.180492413318	1
0	18598	4404.838960472411	0
0	18618	4407.775631451038	1
0	18620	4407.920439222049	2
0	18621	4408.210646904223	1
0	18628	4408.747160224506	2
0	18631	4409.864987714064	1
0	18636	4410.278007808963	0
0	18640	4410.693008164679	1
0	18644	4413.343500057935	0
0	18648	4413.664120745705	1
0	18653	4415.111059340532	0
0	18660	4415.815041386485	1
0	18661	4416.044303304191	0
0	18665	4416.455819255388	1
0	18669	4418.234386244295	2
0	18675	4420.369963567188	1
0	18683	4421.700404293292	0
0	18694	4421.854220837825	1
0	18695	4421.970027570917	0
0	18720	4423.834995837659	1
0	18722	4423.883711974079	0
0	18792	4439.295574743427	1
0	18793	4439.983833096605	0
0	18818	4453.257976971108	1
0	18821	4453.901374183237	0
0	18854	4458.516562073661	1
0	18855	4458.591476274562	0
0	18868	4459.502470796932	1
0	18870	4461.055212740554	0
0	18895	4467.176086872546	1
0	18897	4470.208711169159	0
0	18928	4476.01569115344	1
0	18929	4477.033177295899	0
0	18935	4478.150475973704	1
0	18939	4480.048341568741	2
0	18941	4480.171407453254	3
0	18946	4481.776312578939	2
0	18953	4482.142156632252	1
0	18958	4482.485496874963	0
0	18976	4486.352092769093	1
0	18978	4486.394467322977	2
0	18984	4489.649790918212	3
0	18985	4490.8025667124	2
0	18994	4492.12178758327	1
0	19001	4493.001950292565	0
0	19013	4494.630605658441	1
0	19014	4494.9398568953	0
0	19031	4496.749396908204	1
0	19032	4497.47015256047	0
0	19048	4500.497332897797	1
0	19053	4503.494304004691	0
0	19062	4505.504027042785	1
0	19066	4506.817268140389	0
0	19075	4507.942026613397	1
0	19077	4507.971994805818	2
0	19081	4509.41316005163	3
0	19085	4511.472917915389	4
0	19089	4512.069361810554	5
0	19090	4514.981290617781	4
0	19096	4515.249324449956	3
0	19105	4517.57963181925	2
0	19112	4517.607501686283	3
0	19116	4519.185534629026	2
0	19122	4519.74469851708	1
0	19127	4521.352927696778	0
0	19167	4529.728735650673	1
0	19169	4530.34216012169	0
0	19178	4531.216671302241	1
0	19182	4531.389645000772	2
0	19183	4531.971941347182	1
0	19190	4533.084499162929	0
0	19205	4534.538109869301	1
0	19209	4535.434308351384	2
0	19210	4539.329254342867	1
0	19216	4539.654998676304	0
0	19231	4541.010366605959	1
0	19232	4541.286020484996	0
0	19239	4541.411337674636	1
0	19240	4541.637920890275	0
0	19264	4546.191129831928	1
0	19265	4546.212784602652	0
0	19275	4547.281400691731	1
0	19278	4547.88591611565	0
0	19291	4552.482087978097	1
0	19293	4554.762638930962	0
0	19322	4561.13308483685	1
0	19326	4562.698118517054	2
0	19327	4562.78773093195	1
0	19334	4563.328095281965	2
0	19336	4563.574935275287	3
0	19337	4563.905844493949	2
0	19342	4565.01124231574	1
0	19348	4565.40605573106	0
0	19359	4566.500287289407	1
0	19365	4568.031119629461	0
0	19377	4568.454914358879	1
0	19378	4568.58762686728	0
0	19402	4574.624190423482	1
0	19405	4575.07769580016	2
0	19406	4575.204230714521	1
0	19413	4576.14513091816	0
0	19422	4578.236339227628	1
0	19423	4578.888598012222	0
0	19431	4579.774382078614	1
0	19432	4580.441381458324	0
0	19438	4580.513934898322	1
0	19440	4581.9869100838	0
0	19449	4583.01193485558	1
0	19450	4583.497095984566	0
0	19469	4588.747516652794	1
0	19476	4590.428844911111	0
0	19483	4592.549151104375	1
0	19484	4593.153347826717	0
0	19506	4596.404722065439	1
0	19507	4598.435882677195	0
0	19536	4605.429084383712	1
0	19538	4606.025591890647	0
0	19554	4608.896335869077	1
0	19555	4609.795663286339	0
0	19598	4623.485819184699	1
0	19601	4625.296044557185	0
0	19620	4630.797658723443	1
0	19621	4630.896934732429	0
0	19648	4638.445557376483	1
0	19653	4641.951509409128	0
0	19668	4646.103009240937	1
0	19669	4648.304900598298	0
0	19675	4648.553385120805	1
0	19678	4649.534183954054	0
0	19695	4652.243872147996	1
0	19697	4652.284441543501	2
0	19700	4653.743401092118	1
0	19705	4654.476933302782	0
0	19736	4660.935541430235	1
0	19740	4663.314086157348	2
0	19744	4664.920155614741	1
0	19749	4665.151727774585	0
0	19756	4666.368325809522	1
0	19758	4668.906181687092	0
0	19767	4669.41035236417	1
0	19770	4670.216768527883	0
0	19784	4672.799785494964	1
0	19786	4674.65407825653	2
0	19789	4675.141534684161	1
0	19793	4676.838114071578	2
0	19795	4677.691977926399	3
0	19797	4678.047462699902	4
0	19799	4678.830002940936	5
0	19801	4679.066230184748	6
0	19807	4682.275825189432	5
0	19812	4682.589002887026	4
0	19819	4683.693775884179	5
0	19820	4684.002140138328	4
0	19831	4686.898434570904	3
0	19836	4687.816676510458	2
0	19841	4688.723007628614	1
0	19846	4689.915732468684	0
0	19852	4692.119832769812	1
0	19855	4692.985695266421	0
0	19859	4693.967301109891	1
0	19862	4694.900472054756	0
0	19866	4695.508895653858	1
0	19869	4696.84117185388	0
0	19914	4703.466452489033	1
0	19916	4704.007370122689	2
0	19917	4704.239111657623	1
0	19923	4704.775204166149	0
0	19955	4714.056431333906	1
0	19956	4714.228502950009	0
0	19975	4719.57748989599	1
0	19976	4720.591357026614	0
0	20079	4761.735226771773	1
0	20081	4761.989936487388	2
0	20082	4762.56950084339	1
0	20089	4764.860679409805	2
0	20092	4766.006109349205	1
0	20099	4767.496315316577	2
0	20100	4767.559974655937	1
0	20106	4767.838612893878	0
0	20114	4768.473161642606	1
0	20116	4770.199259578412	0
0	20122	4771.403722902309	1
0	20126	4772.090914808096	2
0	20128	4772.313992274698	3
0	20129	4772.483102407442	2
0	20135	4772.821189419428	3
0	20136	4773.700520742999	2
0	20141	4774.272464925762	1
0	20151	4777.690511884705	2
0	20158	4782.039994569074	1
0	20163	4782.311496686076	0
0	20192	4785.798395414565	1
0	20196	4786.484672338447	0
0	20214	4788.434383827733	1
0	20217	4788.730214015601	0
0	20227	4790.536182429736	1
0	20229	4791.47893009446	2
0	20232	4793.288559435528	1
0	20237	4793.297329447023	0
0	20253	4796.817623079784	1
0	20254	4797.418984281045	0
0	20260	4797.494343717715	1
0	20261	4798.3611577434	0
0	20265	4798.46957294144	1
0	20286	4803.446035081307	0
0	20298	4805.998161516931	1
0	20302	4809.112957848955	2
0	20304	4809.140050430867	3
0	20305	4809.576182022405	2
0	20313	4809.718787059947	3
0	20314	4810.043753515897	2
0	20322	4810.92875350323	3
0	20324	4812.471432467091	4
0	20325	4815.457679485245	3
0	20331	4816.188318531568	2
0	20336	4817.423869540269	1
0	20341	4818.155105861624	0
0	20354	4818.923690172782	1
0	20355	4819.074777627526	0
0	20361	4820.957685797634	1
0	20362	4821.080014184172	0
0	20368	4822.354171511845	1
0	20371	4822.680080831642	0
0	20378	4823.874026777839	1
0	20381	4827.007284529105	0
0	20407	4834.844107001882	1
0	20408	4836.051387418135	0
0	20417	4837.317484573735	1
0	20421	4838.83641029575	0
0	20469	4847.836293351902	1
0	20476	4850.585377468994	0
0	20483	4852.374160917122	1
0	20487	4855.278708417589	0
0	20503	4856.980981534469	1
0	20505	4858.817249376784	0
0	20522	4861.574052110556	1
0	20526	4863.792929904976	2
0	20527	4864.384683561524	1
0	20533	4865.04943006569	2
0	20534	4865.306415767364	1
0	20542	4867.655868019287	2
0	20543	4869.228787872379	1
0	20548	4870.209763081535	0
0	20580	4876.713631857654	1
0	20583	4878.119885522979	0
0	20596	4880.596870984862	1
0	20597	4880.797836838962	0
0	20652	4894.234889726742	1
0	20654	4894.362642869809	2
0	20656	4896.069915315916	1
0	20662	4896.649085966371	0
0	20731	4916.394148289273	1
0	20732	4916.543832414297	0
0	20754	4918.877788239249	1
0	20755	4919.157925963923	0
0	20762	4921.021398092577	1
0	20765	4921.393439829019	2
0	20767	4923.758543996477	1
0	20773	4923.92282713177	2
0	20774	4925.263384746925	1
0	20780	4925.332132642353	2
0	20783	4925.521181473904	1
0	20790	4926.430865447907	0
0	20827	4936.227229988333	1
0	20828	4936.284832608239	0
0	20841	4938.564411809698	1
0	20843	4938.654962675743	2
0	20844	4938.828820533142	1
0	20849	4938.851186565508	0
0	20853	4938.898628462223	1
0	20857	4939.459611566501	2
0	20858	4940.000293439215	1
0	20863	4940.427196001751	0
0	20879	4942.651740284612	1
0	20882	4945.426071056182	0
0	20902	4951.89001488375	1
0	20904	4952.280483234091	0
0	20927	4958.975343655525	1
0	20928	4958.984221996218	0
0	20962	4966.638588825745	1
0	20964	4966.726787957966	2
0	20965	4967.500471026598	1
0	20970	4968.188450574493	0
0	20988	4970.290984028282	1
0	20990	4972.694392890929	0
0	20996	4975.66853107891	1
0	21000	4976.236892581868	2
0	21001	4978.043280133551	1
0	21007	4978.719690876612	0
0	21013	4979.021851702409	1
0	21016	4980.009159859364	0
0	21037	4986.704003659595	1
0	21039	4986.908235891459	0
0	21086	4997.14939590228	1
0	21087	4997.336864093993	0
0	21130	5005.083236639914	1
0	21131	5006.642174312972	0
0	21158	5014.987858096818	1
0	21160	5015.354748900696	2
0	21164	5016.149676450333	1
0	21171	5017.515130530216	0
0	21291	5055.444383180066	1
0	21292	5056.329360292425	0
0	21305	5057.341095605984	1
0	21310	5060.562874741584	2
0	21312	5062.18663400464	3
0	21313	5063.09112697044	2
0	21320	5063.942075621377	1
0	21325	5064.355370834038	0
0	21340	5064.971711685703	1
0	21344	5065.868153108672	0
0	21356	5070.537467683459	1
0	21360	5070.978915065285	0
0	21392	5081.848540398635	1
0	21394	5082.107334138933	2
0	21395	5082.569389857121	1
0	21402	5084.943141377243	2
0	21405	5086.464955314688	3
0	21406	5088.381324857734	2
0	21411	5088.543017668794	1
0	21417	5089.816036166199	0
0	21437	5092.99216368034	1
0	21438	5093.07036224894	0
0	21489	5105.487356676947	1
0	21493	5106.02436076918	0
0	21500	5107.069743543709	1
0	21503	5107.277674839325	2
0	21505	5107.550868280685	1
0	21512	5108.009647066031	2
0	21515	5109.105643320756	1
0	21522	5110.431987914631	2
0	21524	5111.880960755744	3
0	21525	5112.236120313712	2
0	21530	5112.500537150527	1
0	21537	5113.421585659779	2
0	21538	5114.740824197225	1
0	21545	5115.937709955725	0
0	21578	5126.106224731059	1
0	21584	5127.84311497825	0
0	21590	5128.927958780881	1
0	21594	5130.395490343807	0
0	21615	5138.800653600058	1
0	21618	5139.704673456265	0
0	21624	5139.89314929682	1
0	21626	5140.04900058227	2
0	21627	5140.318683162244	1
0	21634	5141.15694969052	0
0	21677	5150.473544027305	1
0	21680	5152.078503425561	0
0	21703	5155.620773310891	1
0	21704	5155.757881125669	0
0	21710	5156.56315964677	1
0	21712	5157.185995845281	0
0	21736	5160.73832411119	1
0	21738	5161.619075268248	0
0	21769	5172.451275345803	1
0	21770	5173.153945710892	0
0	21787	5175.895244867575	1
0	21789	5176.73687285113	2
0	21793	5176.994973341655	3
0	21797	5179.310817235985	2
0	21806	5184.313107337216	1
0	21811	5184.437914773957	0
0	21817	5184.603511133446	1
0	21819	5185.388528615824	2
0	21820	5185.462319719971	1
0	21827	5187.050949313269	0
0	21838	5187.730046195674	1
0	21839	5188.49266013728	0
0	21845	5188.997578488725	1
0	21846	5190.139844287952	0
0	21855	5192.066696788972	1
0	21856	5192.248088582653	0
0	21870	5194.905397164992	1
0	21874	5195.66011949511	2
0	21875	5195.76167335661	1
0	21881	5198.479979968163	0
0	21892	5199.226653548693	1
0	21894	5199.339098782525	2
0	21900	5200.903057138796	1
0	21906	5200.945713262028	2
0	21907	5201.696382782526	1
0	21913	5202.956074839759	0
0	21932	5204.890720154295	1
0	21934	5205.973304234598	2
0	21936	5205.988127695008	3
0	21937	5206.052257629146	2
0	21944	5207.898839715696	1
0	21949	5209.103472028359	0
0	21978	5221.134428732844	1
0	21980	5221.156434540831	2
0	21982	5223.710127886662	3
0	21983	5224.320693890784	2
0	21991	5226.814329052185	1
0	21997	5226.838619145162	2
0	21998	5227.450865405045	1
0	22003	5227.745207078507	0
0	22009	5227.805980375361	1
0	22012	5228.213302781432	2
0	22018	5230.147543691001	1
0	22023	5230.448542268922	0
0	22027	5231.463615551142	1
0	22031	5232.243520165115	2
0	22035	5234.917442031311	3
0	22045	5237.368204723137	2
0	22050	5239.380449427032	1
0	22055	5239.762119313477	0
0	22068	5243.457411518952	1
0	22072	5245.398154190061	0
0	22079	5245.767495700393	1
0	22082	5246.924911720597	0
0	22088	5246.931646134105	1
0	22089	5248.009063469891	0
0	22093	5248.032492361884	1
0	22095	5249.246035055848	2
0	22097	5249.943790197134	3
0	22101	5250.539155243628	2
0	22107	5251.332074290095	1
0	22115	5252.088150483868	0
0	22122	5253.000049951481	1
0	22131	5255.114289229553	2
0	22132	5255.716785571708	1
0	22140	5259.084998916606	2
0	22141	5259.721187407977	1
0	22146	5259.781060490214	0
0	22152	5260.892658022453	1
0	22154	5261.428977929681	2
0	22156	5261.871941123662	3
0	22158	5262.555932649821	2
0	22163	5264.118269548813	1
0	22170	5269.935777375201	0
0	22181	5270.679767289978	1
0	22189	5272.27183082841	2
0	22190	5272.558131228227	1
0	22195	5272.94953595119	0
0	22213	5275.377326666947	1
0	22214	5276.303599924073	0
0	22229	5277.614618586953	1
0	22231	5278.714957063576	2
0	22235	5278.97646527714	3
0	22239	5281.607681567914	4
0	22242	5282.371086018813	3
0	22248	5282.705036539392	4
0	22249	5282.750006265592	3
0	22257	5284.464466771738	4
0	22259	5284.798017336796	5
0	22261	5284.814714417068	6
0	22264	5285.820204774714	5
0	22270	5286.170627242857	6
0	22273	5286.737164167292	7
0	22275	5287.769953416702	8
0	22276	5289.666496537712	7
0	22282	5289.760957310366	8
0	22283	5289.961561629841	7
0	22288	5290.383832401302	6
0	22293	5290.871448119449	5
0	22298	5292.438161520613	4
0	22302	5292.999208380384	5
0	22304	5296.380314222573	6
0	22310	5297.159632605318	7
0	22314	5298.928534067107	6
[...]
4	115176	27583.014048969052	2.739015072954
4	115220	27590.01363961163	9.439070661615
4	115229	27590.652511699034	1.630498904698
4	115239	27594.9760801116	4.840251035745
4	115255	27596.520489451367	6.368167474249
4	115331	27606.991483067013	13.763298123095
4	115369	27619.12056691991	19.397701582946
4	115379	27622.176951762381	18.800479421012
4	115399	27625.169043379444	19.716389243284
4	115427	27626.670138064362	15.607724530375
4	115432	27626.736845598255	14.311614281872
4	115439	27627.70573421478	13.618617457664
4	115452	27631.427496986925	13.704586158649
4	115486	27640.828663337102	22.911981110015
4	115500	27642.998013208789	25.04916996245
4	115581	27658.947384707058	32.874526973382
4	115586	27659.533978285053	27.096238667212
4	115592	27659.680730281206	24.500950647402
4	115599	27664.406227562473	26.038910282535
4	115611	27665.00168301444	26.620125977243
4	115621	27667.010939538336	25.20740308716
4	115626	27667.413838609717	25.475517442871
4	115631	27668.182806285709	24.230374758376
4	115644	27671.583719212923	24.179098386899
4	115680	27675.268298248035	26.014673413413
4	115685	27676.963638426005	25.755528955508
4	115690	27679.062010854838	27.756289564729
4	115701	27682.433128029938	17.299535426698
4	115737	27690.286312548314	23.972965990616
4	115742	27690.445398002049	20.004934322887
4	115752	27693.979130063191	23.465081202555
4	115775	27696.136944018981	21.403097782927
4	115792	27697.613380969075	11.586770646385
4	115796	27697.676474204815	9.003753609919
4	115846	27708.49475678929	7.583378571217
4	115865	27714.316576141315	2.915608762365
4	115881	27719.226884703915	2.719325188695
4	115899	27721.29952196541	0.922334168711
4	115910	27722.535311348382	0.740899810498
4	115917	27723.107217967718	0.775696259659
4	115963	27728.693707243035	0.702163672664
4	115970	27731.777884447721	0.076789868378
4	115989	27742.441374405443	7.0173909396
4	116006	27745.511939683376	5.405040939023
4	116013	27746.954461268166	6.269790647264
4	116018	27747.342183149654	5.593421244548
4	116042	27752.355702337556	0.228777103884
4	116076	27761.321016814158	2.672555398124
4	116083	27763.117350827337	1.140808495567
4	116153	27777.528976367142	11.214947482993
4	116167	27779.183139407929	6.777142011408
4	116177	27779.949754600471	2.509644978489
4	116190	27785.439968732365	6.904289735574
4	116231	27792.426746755122	5.157407993725
4	116242	27796.307844056399	6.554455886712
4	116258	27799.136100752217	4.608677937721
4	116273	27802.371802045608	7.459607081406
4	116279	27802.903912437248	3.896915276936
4	116286	27803.32226638234	4.19351444414
4	116295	27806.07215486015	4.517651200713
4	116322	27812.057625513489	8.75889871703
4	116349	27816.856707191596	11.8845862211
4	116368	27823.813762476564	16.292484479307
4	116405	27831.877237200085	21.115611346097
4	116473	27843.537711693898	28.90849368937
4	116486	27847.457956601005	28.144379141966
4	116491	27847.689403854088	23.857094041866
4	116498	27849.372989412222	14.232435109874
4	116505	27851.829029966468	7.016176989722
4	116525	27854.694075209077	1.044699323964
4	116532	27859.57302716899	2.516411717251
4	116546	27863.659054674855	2.30595983636
4	116551	27865.961387954768	2.548756269519
4	116555	27866.980409057833	3.549093806506
4	116579	27879.158788952331	5.07706126773
4	116622	27888.768131783644	11.25169381889
4	116628	27890.234272118306	8.804486501894
4	116692	27918.457848274395	2.198817861904
4	116706	27921.828984083028	0.54327381121
4	116713	27922.547335611348	0.216944303732
4	116781	27940.842809333367	2.594250120534
4	116811	27951.464210184714	8.842360854708
4	116836	27955.748277605764	11.391995274013
4	116869	27960.24847010787	12.013521250649
4	116890	27966.62039854759	17.750909069507
4	116959	27979.657815420233	27.696993624422
4	116964	27980.022905070209	17.548955140235
4	116971	27982.81895755664	18.599633495116
4	116989	27990.047647900389	23.507695439857
4	117029	27996.013381883331	22.094387676794
4	117034	27996.096210602141	14.724109584931
4	117042	27998.35069219222	14.559940262989
4	117066	28004.476608797789	14.502414281728
4	117114	28014.992362817418	22.876503371893
4	117135	28016.75989545407	17.366778362829
4	117140	28017.653641637636	3.088033255177
4	117144	28019.536081219923	4.530776247562
4	117154	28026.213898804342	1.448523461781
4	117213	28040.868642997172	3.86455960986
4	117219	28041.43018017939	3.41716112088
4	117234	28046.122300191058	7.339869243313
4	117273	28054.798350453105	10.904581368613
4	117289	28060.19419304054	11.480122099605
4	117312	28062.297160247113	4.077686361937
4	117317	28062.393722616244	3.419913009117
4	117324	28063.967361990126	4.081843529951
4	117337	28068.09906750038	7.681585171638
4	117342	28068.41226930595	6.558394006741
4	117347	28072.65521309258	6.908037876337
4	117374	28081.449266132323	3.427840435631
4	117391	28085.191834774461	1.363510597568
4	117405	28091.085672255958	6.668784811043
4	117445	28103.847976701105	0.258855054855
4	117449	28104.51653810529	0.920691176822
4	117457	28106.922315817726	1.013364061561
4	117503	28132.783605880243	1.991117057345
4	117538	28141.341651412347	8.765069520319
4	117547	28142.040273915939	8.2628090746
4	117557	28143.926429062054	10.018038601191
4	117562	28144.835788322679	8.762979454012
4	117634	28161.371961264035	8.76063059235
4	117682	28171.620275350357	17.528327394907
4	117703	28173.137228374841	18.672655099923
4	117713	28181.580606212939	21.428170374443
4	117734	28182.953185168834	15.021399831949
4	117753	28185.081889738697	12.498845466191
4	117758	28193.095791446214	10.853645822956
4	117808	28201.465856603435	1.25201555284
4	117812	28201.971081864626	1.406320100099
4	117822	28207.067685590816	4.495925151628
4	117840	28210.650572207169	3.085818245832
4	117845	28211.417019017905	2.584431298484
4	117855	28216.643129019578	7.54031917533
4	117875	28219.895974928968	4.428051788167
4	117900	28229.254255538369	1.635965197363
4	117986	28260.329215618142	4.132854552677
4	118018	28271.507152368827	14.90331089067
4	118061	28280.102086683625	16.504280171605
4	118069	28281.940704420247	17.716065314914
4	118082	28286.006383741825	21.547507033538
4	118088	28287.223041152842	21.60324092471
4	118095	28288.09300822831	13.201111367802
4	118109	28293.324194674213	8.676197478883
4	118120	28298.173874806206	6.426304294583
4	118175	28306.636475003312	14.433233698362
4	118180	28308.553162192516	10.112354569098
4	118187	28311.848201784588	9.748683952793
4	118198	28318.381506164034	7.100386928761
4	118254	28330.455720862978	10.221219956914
4	118269	28336.107680561415	6.067088552011
4	118285	28338.885610764621	3.475275214286
4	118301	28345.68283136169	1.723317388183
4	118395	28367.703696253849	15.429386457507
4	118405	28371.460384164761	12.780823633251
4	118424	28373.082017138112	14.351239566465
4	118429	28373.486490546307	6.584526367017
4	118436	28374.343510724847	2.066198914913
4	118447	28377.680058639827	3.945556312635
4	118512	28386.518973355267	7.315289899456
4	118517	28386.875811727572	1.78816878114
4	118534	28392.666312649062	2.568250633258
4	118565	28402.902772403577	4.156449338001
4	118579	28404.364929108844	5.450803173809
4	118614	28410.597949285812	6.362826320003
4	118619	28410.770414118675	4.820822894396
4	118637	28415.241929731664	6.818859805836
4	118675	28422.621757287336	12.822497270623
4	118713	28426.561590888405	16.039626902194
4	118723	28428.68311962653	15.918118772901
4	118731	28431.692735971145	14.698373687095
4	118741	28435.337166282745	18.298315536706
4	118750	28436.624608149339	13.794864444807
4	118760	28437.425900891636	14.578509788181
4	118767	28438.037947425653	2.414143627119
4	118771	28438.259652700774	0.69470056018
4	118788	28443.143353394829	0.377424707195
4	118818	28457.623568969724	4.523296867881
4	118830	28459.40996365206	0.85223701059
4	118844	28462.41570628778	1.130395493004
4	118878	28472.654045214892	1.892717142656
4	118886	28473.436247205229	0.226772759945
4	118898	28476.019050844354	1.862461735756
4	118938	28481.947817842524	4.419009221606
4	118947	28483.058583270644	5.11445171491
4	118968	28488.4434216964	1.59508402779
4	118979	28494.527341083406	6.630891898098
4	119000	28499.265355232719	6.447947352127
4	119019	28505.975012484533	5.784800689737
4	119092	28517.723513815001	4.902080354126
4	119096	28518.104193633088	3.632232430017
4	119169	28531.53323079205	11.051224946902
4	119174	28532.061493116178	9.767337530637
4	119180	28532.781649298875	7.051218982588
4	119191	28537.479421801554	11.143275649669
4	119221	28553.43204523372	2.605664509454
4	119347	28583.198730276985	27.760139586786
4	119354	28584.1164232838	19.27476526894
4	119362	28585.172932469041	20.193082471963
4	119393	28588.388084596591	20.410580952194
4	119403	28588.720190846191	15.389682493364
4	119407	28589.632174449177	5.68351659739
4	119432	28594.245048452652	1.621701736268
4	119445	28597.869473615283	1.818035886599
4	119457	28600.212882328013	1.93925548313
4	119475	28604.155955113411	3.37783648927
4	119486	28605.221802646038	3.762626421483
4	119493	28605.792931879804	4.040498096034
4	119508	28608.837912148658	5.978626316978
4	119520	28610.72120252531	4.046055578924
4	119594	28631.542300187798	2.22803890578
4	119648	28645.072919313649	0.500571202884
4	119655	28646.771571842738	0.103998809562
4	119668	28652.087026056349	4.611942895897
4	119696	28658.50538472643	2.212233895919
4	119701	28659.563592076783	2.578633934082
4	119708	28662.367727517688	1.123858771872
4	119727	28665.823864384735	2.749601775462
4	119751	28674.63520188735	2.008453610018
4	119775	28683.374755790522	2.198048512253
4	119822	28692.696720737201	8.592525753826
4	119830	28694.119684134295	6.428569810082
4	119838	28699.947546756617	10.641145918525
4	119850	28700.615406240888	10.719118315762
4	119855	28700.64662813787	6.566867678182
4	119859	28700.720431709309	0.770758622247
4	119867	28706.292480126385	0.159382792205
4	119945	28720.645615046043	6.744467816771
4	119952	28721.566499732681	5.663463597568
4	119962	28723.237098136352	4.358194876764
4	119969	28734.807729126851	6.675822189249
4	120001	28745.972249621183	3.290512312194
4	120044	28756.41940235572	9.948283307026
4	120056	28762.760125561632	0.872439284783
4	120088	28772.892462508365	0.101422834301
4	120112	28785.165996692423	1.152074089562
4	120135	28787.713946330234	0.495163702705
4	120169	28799.164243967938	5.670669288357
4	120189	28804.386509971323	0.661771039976
4	120337	28850.898725282411	42.312739756836
4	120348	28852.741867032844	29.540657834524
4	120371	28856.865477494152	19.410333568258
4	120376	28856.905958356894	16.278788795715
4	120383	28857.71820532845	16.138858618461
4	120394	28860.548997354433	15.821617967916
4	120401	28861.971965656642	10.78585047961
4	120439	28874.690557478012	18.641145653937
4	120471	28880.829301318447	10.70197272089
4	120478	28882.401919868857	10.917166449448
4	120487	28882.734915502306	3.38684079066
4	120502	28888.906170149463	4.46248531188
4	120536	28901.772793244149	1.403187355885
4	120543	28902.467901395726	0.527495004832
4	120555	28905.031427417814	1.782362085553
4	120572	28914.555067890284	9.931079987788
4	120595	28922.724390032386	9.260589471108
4	120606	28925.431518224421	9.825452287061
4	120627	28929.229809758918	13.108285320427
4	120641	28933.634897709752	17.43379872363
4	120648	28936.168238871561	2.53878538663
4	120671	28944.033605090994	1.437339072578
4	120690	28945.952276576728	1.651389078095
4	120710	28954.507045852237	5.947536877324
4	120786	28973.064612989792	0.507635671655
4	120801	28980.573934111071	2.780630974543
4	120825	28984.530540212675	3.369132839884
4	121233	29089.450177984619	87.09989292158
4	121243	29090.491731169742	84.290494851899
4	121248	29091.855611715866	81.87545130307
4	121260	29096.842767817489	81.074411907852
4	121276	29099.140374807027	74.985140095276
4	121283	29103.303021195441	67.74047801443
4	121289	29107.099009935407	67.489331750617
4	121296	29108.814506643883	52.560353184077
4	121313	29111.223084440849	52.297935362562
4	121375	29117.778086428339	52.45374758748
4	121385	29120.271404782255	53.270639207001
4	121398	29122.949018718074	54.11987294058
4	121411	29123.573946141927	54.401715730797
4	121482	29133.296532201084	57.515230732969
4	121494	29134.746518811451	57.089477891118
4	121534	29139.191783703682	57.64519560897
4	121547	29141.681493888279	55.593315648306
4	121604	29148.983624891093	61.903285031082
4	121611	29149.803934490713	57.848851292835
4	121618	29151.011555024969	50.331255076223
4	121631	29153.484009668229	41.359688919592
4	121640	29157.232748726055	44.598769019624
4	121647	29158.064963154219	41.610639575775
4	121667	29159.011183128876	37.779487197324
4	121678	29162.29898734259	38.975800697222
4	121689	29163.773616929053	37.878660366612
4	121711	29167.660642261109	32.065072714402
4	121735	29170.646389422057	32.019697735149
4	121740	29171.732757147125	31.808164936456
4	121745	29176.579799043866	36.421749011749
4	121754	29181.843999499306	39.880809427884
4	121766	29181.959443075762	38.058256057274
4	121771	29182.877887527048	36.540312180525
4	121778	29184.409355187503	37.929236236635
4	121785	29185.532212229964	38.349730438828
4	121837	29197.03151185533	48.833571660987
4	121915	29219.272487377253	65.740444231868
4	121924	29220.648517785236	54.619744707117
4	121946	29223.525850328355	56.90846137872
4	121953	29223.997251875446	53.719129859477
4	121958	29224.098845560718	43.394140681853
4	121971	29226.562875829406	42.24491496895
4	122027	29240.09000613635	53.984449882034
4	122035	29240.752072046119	52.709468366903
4	122049	29244.15160859946	52.243336062591
4	122082	29249.095084200662	55.041923958209
4	122092	29249.979489276243	54.431926777673
4	122099	29252.492320536537	46.150510829054
4	122113	29254.718302263362	47.398275605084
4	122128	29258.123414104887	36.04681380238
4	122159	29265.484389096703	43.322253938721
4	122175	29271.528294915237	47.637210164128
4	122359	29318.152693091277	87.104167795077
4	122364	29318.475033501207	83.75425432203
4	122371	29320.100141538214	83.893567601428
4	122392	29326.149485987106	88.387712087792
4	122397	29326.443127464482	86.732326549469
4	122402	29326.655869618969	86.503004039004
4	122411	29328.880261474639	87.753488040752
4	122444	29334.121166176417	80.497980303646
4	122465	29342.332466103267	82.829573549681
4	122494	29348.523008231259	76.823623213893
4	122501	29351.284642594139	75.501397134827
4	122618	29382.407336988702	98.207590932468
4	122624	29383.22503239901	97.885206075555
4	122629	29384.812701587581	98.974629920955
4	122634	29386.316700473664	95.166065604773
4	122641	29389.532162922906	89.987866595339
4	122656	29393.497128649956	92.483170903492
4	122694	29399.680371415565	97.815037983045
4	122702	29402.095524129928	92.935904336137
4	122714	29403.966478694017	90.975420773381
4	122741	29407.278114551388	94.145159464488
4	122748	29407.829863896471	93.067807886116
4	122759	29411.942537453927	91.124208621208
4	122788	29417.910648133241	89.534361300914
4	122805	29419.170356126719	88.205010461955
4	122812	29421.493808657536	85.769132624648
4	122819	29423.448843328493	87.140064698906
4	122830	29424.28956981744	81.345625833517
4	122841	29430.89480286726	85.75266744319
4	122852	29434.637329778389	87.193920249434
4	122858	29436.69761365279	82.278505859146
4	122863	29438.25840933629	59.977579063273
4	122872	29440.654476421935	59.236126833763
4	122893	29443.940207272131	56.788350782504
4	122908	29446.244362145156	55.200232407971
4	122930	29450.938055092731	58.921922314981
4	122943	29454.289060551152	57.267144668145
4	122950	29456.299094869949	56.212148605991
4	122976	29459.156178192808	55.313693260046
4	122990	29463.755278583732	56.260836222254
4	123068	29478.570951913343	65.088267510579
4	123080	29481.891356415632	62.992843749066
4	123086	29484.150176290699	57.197823803763
4	123092	29484.908358212572	54.611134319947
4	123100	29485.429856964123	44.354202908614
4	123150	29494.862988759838	44.160930835242
4	123163	29496.796492785743	43.778676606304
4	123176	29498.451195710395	33.476418933265
4	123181	29499.009311762666	31.06443266113
4	123195	29505.873821319976	29.686619301775
4	123216	29507.422302510276	17.845609586769
4	123225	29511.62419387675	14.279632011183
4	123240	29513.464084174945	8.600074875337
4	123244	29514.085298206788	2.254155161479
4	123264	29519.570687132258	1.050440493903
4	123298	29527.619096434293	5.040827404448
4	123356	29536.97195959443	10.566560247913
4	123360	29537.569292513522	9.314587911398
4	123377	29541.933127875694	0.684131998554
4	123389	29547.870685742599	2.827316005494
4	123427	29553.899351874776	6.291830668946
4	123442	29559.793101012794	7.819760329901
4	123461	29569.305905098289	3.625167068982
4	123550	29584.918464411758	4.698256694421
4	123589	29593.439540565876	9.281900734986
4	123599	29595.189019691364	10.644480502344
4	123606	29600.322149706076	2.841633356124
4	123621	29602.982903724309	0.930388964056
4	123648	29609.039408131118	4.374716786001
4	123681	29614.425546716115	9.731452383792
4	123711	29620.687632604818	2.379938091955
4	123783	29637.713257441033	4.602349633673
4	123805	29646.173075137118	3.019833991068
4	123850	29658.414775428546	4.817529586271
4	123876	29666.588699820713	0.206323899785
4	123883	29668.611335207745	0.02594949543
4	123894	29677.079260268997	6.035582043181
4	123906	29678.566812730519	0.441773218703
4	123940	29683.735116671289	1.850446637101
4	123949	29687.373358443829	4.21465768828
4	123960	29688.165193325377	0.193191865958
4	124003	29693.761097929093	3.978319982182
4	124019	29697.383392520358	0.057974250419
4	124086	29709.797260859293	3.492471202255
4	124110	29715.604230286488	7.430560141153
4	124127	29722.703706051	13.252007091965
4	124143	29724.650589401838	7.822799140624
4	124147	29724.891040060175	2.430495278051
4	124158	29730.598442728679	0.460912226065
4	124165	29732.278178101871	1.260623509726
4	124172	29733.491431741298	0.429297933079
4	124184	29738.614234600472	1.770398482928
4	124237	29749.138710169207	2.65858693418
4	124307	29765.999477026268	10.497978680028
4	124312	29768.223018742272	11.295120746653
4	124316	29769.048065678494	9.461086476061
4	124381	29784.44878592073	12.563831292412
4	124393	29787.645539688974	12.525121674631
4	124413	29793.229772197222	13.167080346068
4	124432	29796.424401271665	12.36776507542
4	124471	29800.334441433528	14.65166524653
4	124486	29807.593140364844	20.952520912574
4	124491	29808.043033297097	16.153495381754
4	124498	29809.257002180603	16.663113043609
4	124512	29811.55950688759	14.3586478864
4	124543	29820.78995657555	18.96633847883
4	124572	29824.427642444448	10.596542344386
4	124579	29824.934746019406	10.984224703757
4	124586	29826.921010493812	12.251500005335
4	124619	29831.266676546966	13.305314913383
4	124656	29840.667679892991	16.645935396053
4	124690	29843.301709133538	18.470414711869
4	124695	29844.139239104294	14.411366063228
4	124705	29847.915859161813	11.429303082936
4	124712	29848.856590230146	12.262040723333
4	124717	29850.163967849515	10.607946491622
4	124724	29851.347034486832	9.564094725798
4	124739	29853.042995132485	4.427415047851
4	124788	29858.528393177016	5.526768401231
4	124793	29859.624083529908	3.177914390625
4	124797	29859.917661679293	1.754939531281
4	124843	29876.577440969894	3.561563741089
4	124878	29887.443172485469	3.18962791969
4	124908	29893.497587304096	0.887438076919
4	124918	29897.741407361177	3.467844455196
4	124931	29901.350575547509	6.419734621585
4	124952	29905.370527869133	6.761450177719
4	124961	29909.240413221143	9.822205228143
4	125030	29925.758271798852	21.533900839751
4	125035	29925.831008577568	15.944696823132
4	125044	29929.477600313955	9.416839757567
4	125055	29934.09176887489	6.618289506199
4	125077	29936.059301911357	0.264898013966
4	125092	29941.833371741916	4.647157275079
4	125120	29946.111795815727	8.610045201778
4	125125	29947.75340093296	4.689718162229
4	125140	29958.294506775115	2.370075211614
4	125147	29959.859340078404	0.48319185462
4	125161	29962.759757301154	1.92300266755
4	125185	29967.677677159533	6.696771248281
4	125205	29971.371766248888	7.875052355818
4	125210	29972.676480415849	1.862818223888
4	125217	29977.670808779159	4.468210909657
4	125229	29979.541986486089	1.85111399638
4	125260	29994.052840037075	12.223932092278

