version 2
run Second-n4-12-20191016-17:04:23-13816
attr configname Second-n4
attr datetime 20191016-17:04:23
attr experiment Second-n4
attr inifile omnetpp.ini
attr iterationvars ""
attr iterationvarsf ""
attr measurement ""
attr network org.omnetpp.queueing.Pizza
attr processid 13816
attr repetition 12
attr replication ""
attr resultdir results
attr runnumber 12
attr seedset 12
param **.PS.maxInventoriedPS 4
param **.U1.interArrivalTime exponential(3s)
param **.U2.interArrivalTime exponential(5s)
param **.PS.serviceTimeForInventoryU1 exponential(1.0s)
param **.PS.serviceTimeForInventoryU2 exponential(1.2s)
param **.PS.serviceTimeDirectU1 exponential(1.4s)
param **.PS.serviceTimeDirectU2 exponential(1.4s)
param **.PS.probabilityProducing 0.7
param **.CS.serviceTimeU1 exponential(1.1s)
param **.CS.serviceTimeU2 exponential(1.4s)

vector 0 Pizza.EntryQueueU1 queueLength:vector ETV
attr interpolationmode sample-hold
attr title "queue length, vector"
vector 1 Pizza.CS queueLength:vector ETV
attr interpolationmode sample-hold
attr title "queue length, vector"
vector 2 Pizza.EntryQueueU2 queueLength:vector ETV
attr interpolationmode sample-hold
attr title "queue length, vector"
vector 3 Pizza.sink lifeTime:vector ETV
attr interpolationmode none
attr title "lifetime of arrived jobs, vector"
attr unit s
vector 4 Pizza.sink lifeTimeU1:vector ETV
attr interpolationmode none
attr title "lifetime of arrived jobs, vector"
attr unit s
vector 5 Pizza.sink lifeTimeU2:vector ETV
attr interpolationmode none
attr title "lifetime of arrived jobs, vector"
attr unit s
0	0	0	0
0	12	4.544079627315	1
0	15	4.647742685778	2
0	17	4.749720756831	3
0	18	4.810059113956	2
0	23	4.972400601896	1
0	29	5.008108668951	2
0	31	6.212105333864	1
0	37	7.802955186689	2
0	39	7.809740571748	3
0	43	8.441445705322	4
0	44	8.892321783	3
0	51	10.434410184801	4
0	56	12.372334263112	3
0	62	13.596715998213	2
0	69	14.773313454113	3
0	70	15.45982406714	2
0	75	15.519669569404	1
0	82	15.799038923792	2
0	84	15.913480297219	3
0	85	15.956211691969	2
0	96	20.696777456058	1
0	101	21.259844227406	0
0	114	27.371549049922	1
0	117	28.459776417533	2
0	121	30.114992438218	3
0	123	31.518880671193	4
0	124	31.719217664405	3
0	129	31.75859938358	2
0	135	32.095631657033	1
0	140	33.207897736222	0
0	195	42.782324640137	1
0	196	43.155220628546	0
0	203	43.578985467811	1
0	204	43.874638715846	0
0	228	51.979641327425	1
0	231	53.746203598315	0
0	258	60.50289736032	1
0	260	61.85053484376	2
0	263	62.324311075719	1
0	269	63.412952355542	2
0	271	64.354922970117	3
0	272	64.465179608285	2
0	280	65.773801084274	1
0	286	66.195785885028	0
0	295	67.858112454906	1
0	298	68.434077106245	0
0	307	70.689152650204	1
0	310	72.199394752442	0
0	326	75.598453356914	1
0	328	76.062038960254	2
0	329	76.125833167322	1
0	335	77.349142415321	0
0	358	79.194063346733	1
0	361	79.800687177304	0
0	398	87.081365213263	1
0	400	87.724978600024	0
0	462	108.077504725589	1
0	463	108.575284338147	0
0	489	115.862085565079	1
0	490	116.594899602933	0
0	496	116.623889175477	1
0	497	117.139183293766	0
0	508	117.720815605897	1
0	511	120.866895344855	2
0	512	121.046097234287	1
0	518	121.405998192474	2
0	519	121.575745772207	1
0	524	121.819659572826	0
0	550	129.052450902673	1
0	553	131.029371852206	0
0	563	132.108360528775	1
0	566	133.352208958761	0
0	611	147.959829867981	1
0	616	150.948871907146	0
0	623	151.691377953747	1
0	624	152.350317826586	0
0	644	157.535060326966	1
0	645	157.63829682558	0
0	665	162.192940115289	1
0	667	163.226855042408	2
0	670	163.682457511772	1
0	675	164.67802417204	0
0	716	170.769810438211	1
0	721	171.898274867752	2
0	722	172.328462712143	1
0	728	172.804935785129	0
0	734	173.18524678843	1
0	736	173.293215256475	0
0	766	176.076864718896	1
0	768	177.335427605693	0
0	776	178.394098809186	1
0	777	178.504638448814	0
0	804	187.044532835742	1
0	806	188.517128963012	2
0	809	188.812859787079	1
0	813	189.363796133968	2
0	819	191.005197948136	3
0	820	191.015459981337	2
0	825	191.100139866164	1
0	835	193.907981737667	2
0	836	194.386698662853	1
0	842	196.2900783917	2
0	843	196.335295990709	1
0	848	196.541658565772	0
0	854	196.62904984812	1
0	857	197.459693335702	2
0	858	197.508735549609	1
0	863	198.516123703009	0
0	871	200.444166073684	1
0	872	200.509068150715	0
0	909	207.746758152164	1
0	911	208.135279668009	2
0	913	208.627872852249	3
0	915	208.777883156924	4
0	916	210.24474312769	3
0	922	210.926732511034	2
0	930	211.584875343333	3
0	931	212.867923414615	2
0	936	213.314989790545	1
0	942	213.844924095333	2
0	943	213.867181301127	1
0	950	214.340598917691	0
0	1024	249.365648614504	1
0	1025	250.106149769541	0
0	1031	250.853636398669	1
0	1032	250.888329012091	0
0	1069	256.473991976724	1
0	1071	257.824506225776	2
0	1074	258.631357136237	3
0	1076	259.677731053337	4
0	1078	261.422967258035	3
0	1083	261.609490492508	2
0	1088	261.877575855251	1
0	1095	263.011016229357	2
0	1096	263.645242468044	1
0	1101	263.822168324615	0
0	1108	264.129977936839	1
0	1110	264.843352669416	2
0	1112	265.210687308719	3
0	1115	267.25146844261	2
0	1122	270.033256371783	1
0	1127	271.318274840362	0
0	1143	273.951945741679	1
0	1144	274.175578397555	0
0	1159	280.387414727878	1
0	1160	280.894712515654	0
0	1191	295.429122968863	1
0	1192	295.68729460316	0
0	1198	296.297191663317	1
0	1200	296.555778042733	2
0	1201	296.814573989745	1
0	1207	297.099553674938	2
0	1208	297.135908386729	1
0	1213	297.489771858984	0
0	1219	300.697051960903	1
0	1220	300.954170079979	0
0	1233	302.621582968725	1
0	1234	303.098199738159	0
0	1250	307.047261040991	1
0	1251	307.069655739347	0
0	1265	309.47741599483	1
0	1266	310.25853635969	0
0	1325	320.550492281991	1
0	1326	320.741753241815	0
0	1369	328.949545593553	1
0	1371	329.250949225572	2
0	1373	331.477242385386	1
0	1378	332.666334564268	0
0	1395	336.074885620183	1
0	1396	336.197531536419	0
0	1417	339.913276559188	1
0	1419	341.274335233327	2
0	1420	341.73312130584	1
0	1426	342.295372767053	2
0	1428	342.863277528868	1
0	1434	343.578860827409	0
0	1472	352.646382037947	1
0	1476	353.311685722862	0
0	1487	354.211311024539	1
0	1489	355.453769161054	2
0	1495	356.007553324833	3
0	1498	356.169035183841	4
0	1499	357.185525648761	3
0	1504	357.859339961886	2
0	1512	360.082477296585	1
0	1519	361.095561720679	0
0	1527	362.595279770943	1
0	1528	362.820182738579	0
0	1592	378.860588043998	1
0	1595	379.960491956692	2
0	1597	380.424179109851	3
0	1599	380.877410378647	4
0	1600	382.010300193732	3
0	1605	382.09513878253	2
0	1610	382.631142633314	1
0	1617	383.775511294406	0
0	1656	399.842924915865	1
0	1657	400.052458414804	0
0	1666	402.653320080231	1
0	1668	403.146283902673	2
0	1671	403.972965879491	1
0	1682	408.223794921501	0
0	1698	409.615164219326	1
0	1701	410.906802285301	0
0	1742	420.565725166551	1
0	1743	422.050459178783	0
0	1783	432.182265423216	1
0	1784	432.679679927296	0
0	1823	447.207109069435	1
0	1824	447.769324351294	0
0	1831	448.373610140704	1
0	1832	448.554264751464	0
0	1876	463.646527234798	1
0	1878	464.683946692689	0
0	1907	476.474456330207	1
0	1908	477.147595933484	0
0	1923	480.743209784285	1
0	1924	480.837952437712	0
0	1940	483.584026885175	1
0	1941	483.801262115937	0
0	1952	486.573772243469	1
0	1954	486.826270746734	2
0	1958	490.593127964336	1
0	1966	492.070929238678	2
0	1968	492.379149932488	1
0	1974	492.692806256646	0
0	2012	505.36829122893	1
0	2016	506.101771180714	0
0	2063	516.993861833351	1
0	2064	517.252858257029	0
0	2112	532.21544731353	1
0	2121	538.112659926998	0
0	2128	538.275339053193	1
0	2130	539.916303561503	0
0	2160	544.68476296006	1
0	2161	547.960192790865	0
0	2168	549.245451505517	1
0	2170	551.754840825051	2
0	2171	552.671606736755	1
0	2177	553.629715564412	0
0	2200	555.572428695015	1
0	2201	556.327539629504	0
0	2234	568.565537362968	1
0	2235	569.640255732017	0
0	2293	590.564526868547	1
0	2299	593.573983015689	2
0	2300	594.48138959713	1
0	2315	596.590979058899	2
0	2316	597.667849341472	1
0	2321	597.74753833294	0
0	2328	598.13974096437	1
0	2331	598.227572169923	2
0	2334	599.329168957528	3
0	2335	599.770755541364	2
0	2341	600.380089515175	3
0	2342	600.81342668164	2
0	2348	600.8306168017	3
0	2349	601.329012995643	2
0	2354	601.482044102343	1
0	2360	602.759329009841	0
0	2373	604.312582194003	1
0	2377	605.714570133872	2
0	2380	607.109054109592	3
0	2381	610.833711829311	2
0	2386	610.885376394448	1
0	2391	611.64593305603	0
0	2494	638.551326716371	1
0	2497	639.706535591516	2
0	2499	640.184226367357	3
0	2502	641.018141449704	2
0	2509	641.653543298699	3
0	2510	642.100958739505	2
0	2516	642.121829224714	3
0	2517	642.203741913487	2
0	2525	644.870100461989	1
0	2530	645.514592628014	0
0	2542	648.06069104395	1
0	2543	648.860085015088	0
0	2556	650.784235045347	1
0	2558	652.673134662201	0
0	2564	652.717686165259	1
0	2565	653.618585848078	0
0	2585	663.181274784615	1
0	2587	663.78518508555	2
0	2592	664.765659039239	1
0	2597	665.24698178053	0
0	2625	670.19727499206	1
0	2628	671.718047690474	2
0	2631	677.34614244988	1
0	2638	678.10178394275	2
0	2639	678.587672566484	1
0	2647	681.031222243141	0
0	2654	682.015238916526	1
0	2655	682.793826845083	0
0	2666	683.782797925881	1
0	2668	685.376479638526	0
0	2681	686.926292570132	1
0	2683	686.93827353068	2
0	2685	688.031875079061	1
0	2690	688.882354230469	0
0	2706	692.072248128778	1
0	2708	694.793152470168	2
0	2709	695.070528056623	1
0	2719	697.290759879894	2
0	2720	697.614759905735	1
0	2729	699.492643927283	2
0	2730	699.50110972188	1
0	2735	699.605549274347	0
0	2757	701.682789740414	1
0	2759	702.153586940712	2
0	2760	702.163558202076	1
0	2765	703.400960880654	0
0	2795	708.331253951751	1
0	2798	708.673660809371	0
0	2810	710.559509041695	1
0	2813	712.597535201602	0
0	2830	714.771169432475	1
0	2832	714.951288999758	2
0	2834	715.348746786416	3
0	2837	717.381463190367	2
0	2843	719.895047081682	1
0	2850	721.612334362754	2
0	2851	721.710137625716	1
0	2857	722.036672577749	2
0	2859	722.373061950492	1
0	2865	722.831071864331	2
0	2870	724.605925126622	1
0	2877	727.074919296276	2
0	2878	729.65374647041	1
0	2885	730.794832722348	2
0	2886	731.515510034948	1
0	2893	732.805354270017	2
0	2894	733.381081441719	1
0	2899	733.392594451164	0
0	2922	735.229451658557	1
0	2924	736.89763338025	0
0	2930	737.016928323881	1
0	2932	738.32075345873	0
0	2940	739.30730276532	1
0	2942	741.116558015639	0
0	2974	746.025735841205	1
0	2976	746.170987002623	2
0	2977	747.236861221053	1
0	2982	747.474005408825	0
0	3030	755.327568602021	1
0	3031	756.57108598135	0
0	3045	762.310463255806	1
0	3047	762.805156746444	0
0	3120	789.882342188602	1
0	3123	790.662602000663	0
0	3147	796.586794917751	1
0	3149	796.780865860192	2
0	3152	797.018594090356	1
0	3157	797.322685370516	0
0	3231	823.691522365409	1
0	3232	824.542200729487	0
0	3280	839.295902710628	1
0	3281	840.280574582369	0
0	3340	857.807810745006	1
0	3344	862.754619766543	0
0	3364	864.929015356044	1
0	3365	866.342088655298	0
0	3371	867.880568794401	1
0	3374	869.009479456054	0
0	3425	882.425971003153	1
0	3427	882.586373350815	2
0	3428	884.087511689256	1
0	3434	884.478342321283	0
0	3441	884.739002740812	1
0	3444	886.462550817393	0
0	3450	886.993876044553	1
0	3452	889.080446043703	0
0	3474	894.043600918822	1
0	3477	895.43654233237	0
0	3509	900.863766146012	1
0	3510	901.156534309435	0
0	3519	902.332016119961	1
0	3523	902.578286494827	2
0	3529	904.398652411286	3
0	3530	904.862322596783	2
0	3535	905.039845283	1
0	3543	906.593739228653	0
0	3563	910.610801853997	1
0	3565	911.101230560185	0
0	3577	913.080430467683	1
0	3580	913.276528498029	0
0	3587	914.156441424639	1
0	3588	914.32356950196	0
0	3617	920.502216616256	1
0	3618	920.981346009209	0
0	3628	922.444985029746	1
0	3633	923.600514925016	0
0	3647	924.493920606684	1
0	3648	925.022655911173	0
0	3663	930.53580365358	1
0	3664	930.701953357527	0
0	3670	931.120938698392	1
0	3671	932.091071011881	0
0	3682	932.668629917317	1
0	3684	933.685118784465	0
0	3693	934.279983603932	1
0	3696	935.149541996749	0
0	3712	937.601800247394	1
0	3713	937.802530042988	0
0	3726	939.384927761337	1
0	3728	939.693730079052	2
0	3729	939.816050327479	1
0	3737	940.874858212657	2
0	3742	943.046910415813	1
0	3750	944.642109538457	2
0	3752	944.663445477561	3
0	3753	945.047149323837	2
0	3759	945.486500806247	1
0	3764	945.881015329451	0
0	3778	947.466996099357	1
0	3780	947.470181775542	2
0	3783	948.532114509764	3
0	3786	949.326375183474	2
0	3791	949.374712476436	1
0	3796	949.834262655132	0
0	3815	950.400137280497	1
0	3822	952.716594373337	0
0	3834	953.288958648877	1
0	3836	953.327954059403	2
0	3838	954.1305297635	1
0	3843	954.310603137806	0
0	3849	954.442095467573	1
0	3850	954.617528157854	0
0	3881	961.411039732108	1
0	3882	961.526793364658	0
0	3921	970.398259367	1
0	3926	973.918403756318	2
0	3928	975.40210447297	3
0	3930	976.147015814639	4
0	3931	977.300219569677	3
0	3936	977.433589133434	2
0	3944	979.643552095967	1
0	3950	979.86364317535	0
0	3956	980.500010729005	1
0	3961	981.447831681704	0
0	3973	985.154314035337	1
0	3975	985.182894948378	2
0	3977	988.245595247092	3
0	3983	990.303146919283	4
0	3984	991.164028598851	3
0	3990	991.573481668786	4
0	3991	991.905919373572	3
0	3998	992.143514661506	2
0	4005	994.245893250943	1
0	4012	995.722178692361	0
0	4024	998.847160091872	1
0	4026	999.123387833767	0
0	4052	1004.646349796838	1
0	4054	1004.77311319923	2
0	4056	1005.346240028254	3
0	4059	1006.785595746587	2
0	4066	1008.078487199191	3
0	4069	1009.454510199133	2
0	4075	1009.541870569704	3
0	4077	1009.868693795737	2
0	4082	1010.18645737766	1
0	4087	1011.544500755036	0
0	4110	1015.290158253438	1
0	4112	1015.576989654885	2
0	4114	1015.754896409137	3
0	4115	1016.425291354491	2
0	4121	1017.39763460318	1
0	4129	1019.881865790038	2
0	4130	1020.391626448067	1
0	4136	1022.415950037734	2
0	4137	1022.438727216571	1
0	4143	1022.765807926752	2
0	4145	1023.601861969307	1
0	4151	1023.80233495418	2
0	4153	1025.034114996986	3
0	4156	1027.271119613825	2
0	4161	1027.832513630313	1
0	4166	1028.35938948049	0
0	4181	1037.592864498662	1
0	4182	1038.197526781232	0
0	4190	1039.20540251676	1
0	4191	1040.37907967449	0
0	4197	1040.647643169467	1
0	4198	1041.052129475147	0
0	4215	1042.722463812332	1
0	4219	1044.270773286101	0
0	4225	1044.919983112442	1
0	4226	1045.009205796354	0
0	4252	1051.084498971141	1
0	4253	1051.608327660305	0
0	4284	1060.170201147504	1
0	4285	1060.900855088501	0
0	4294	1063.646126492017	1
0	4295	1063.704004600467	0
0	4316	1069.469491354939	1
0	4322	1070.469778919085	0
0	4342	1076.301575109934	1
0	4343	1076.723687191504	0
0	4349	1076.767633152162	1
0	4350	1077.22968439944	0
0	4360	1077.422237089099	1
0	4366	1079.667831474728	2
0	4368	1080.026284448066	1
0	4374	1080.219262994484	0
0	4387	1080.616783198114	1
0	4388	1080.949351064965	0
0	4467	1093.364139586787	1
0	4468	1093.365749318242	0
0	4481	1094.694317666067	1
0	4482	1095.061427919838	0
0	4513	1102.178651094338	1
0	4514	1102.683021348712	0
0	4557	1115.946971833872	1
0	4561	1121.369505398435	2
0	4564	1123.251803312213	1
0	4570	1123.377262533039	2
0	4572	1124.126736980301	1
0	4578	1124.307994293191	2
0	4581	1125.26475756791	3
0	4582	1125.766482034265	2
0	4587	1126.359760807044	1
0	4595	1126.5755543487	0
0	4639	1138.077101899146	1
0	4640	1138.799564229488	0
0	4667	1144.764715283902	1
0	4672	1145.975346515723	0
0	4681	1146.432438722575	1
0	4685	1148.979080750311	0
0	4707	1156.700830760629	1
0	4709	1156.813412704631	0
0	4741	1162.808686114745	1
0	4744	1164.34381951227	0
0	4765	1168.199728573045	1
0	4766	1169.207630897833	0
0	4776	1176.463717854848	1
0	4784	1177.971849264927	2
0	4787	1179.317154021663	1
0	4792	1179.388417254505	0
0	4808	1181.373413358158	1
0	4810	1182.150286406007	0
0	4821	1182.483411382529	1
0	4823	1183.448603654618	0
0	4860	1196.935021864256	1
0	4862	1197.513733921085	0
0	4930	1219.791269110336	1
0	4931	1220.075330626394	0
0	4939	1220.225297139239	1
0	4941	1220.294102746344	2
0	4942	1220.392250152523	1
0	4949	1221.558301803547	0
0	4961	1225.102033445196	1
0	4962	1226.117965824075	0
0	4969	1227.714631849531	1
0	4971	1228.208611172438	2
0	4972	1229.71366426299	1
0	4981	1231.901891045156	0
0	5000	1235.158155963387	1
0	5002	1235.570643587368	0
0	5064	1247.723251608295	1
0	5065	1248.8246023729	0
0	5088	1251.643746398756	1
0	5090	1251.811076355192	2
0	5092	1251.818622395896	3
0	5093	1252.111841073277	2
0	5098	1252.545200725945	1
0	5103	1253.010421330785	0
0	5135	1258.660071720688	1
0	5137	1259.689664029826	0
0	5149	1262.154369759281	1
0	5150	1262.572156643843	0
0	5156	1262.766768333722	1
0	5157	1262.942641629124	0
0	5199	1275.474022439876	1
0	5201	1276.503303981206	2
0	5202	1276.867892396243	1
0	5207	1277.138669900301	0
0	5226	1280.602768273842	1
0	5229	1280.968307171724	0
0	5260	1290.037262752118	1
0	5264	1294.547388401074	0
0	5288	1303.29150146389	1
0	5290	1303.494294035527	2
0	5291	1303.89579480002	1
0	5297	1304.119709810032	0
0	5323	1315.344061165073	1
0	5324	1315.629659828655	0
0	5342	1319.636420664838	1
0	5344	1320.077628200601	2
0	5346	1321.710498453652	3
0	5350	1322.054238555052	2
0	5355	1322.636491107814	1
0	5363	1323.680585820656	0
0	5372	1324.146292013538	1
0	5379	1329.333568210384	2
0	5380	1329.740244760229	1
0	5386	1330.027420786492	2
0	5388	1330.853316392951	1
0	5394	1332.073781393975	0
0	5402	1333.61841741978	1
0	5403	1333.769429884185	0
0	5416	1335.978383289315	1
0	5417	1336.566570939546	0
0	5432	1339.278506461352	1
0	5438	1342.107255918204	0
0	5467	1348.868824294718	1
0	5469	1350.392388873894	2
0	5471	1351.373755016104	1
0	5477	1351.408942981556	2
0	5479	1351.774075407375	1
0	5484	1352.065226939804	0
0	5527	1374.156902581138	1
0	5529	1375.014591533889	0
0	5559	1386.42693237747	1
0	5560	1389.078907989257	0
0	5632	1411.499527938197	1
0	5633	1413.338892327571	0
0	5647	1414.779739582417	1
0	5648	1415.275244379613	0
0	5702	1450.859033184548	1
0	5705	1452.355035935499	0
0	5711	1452.388555879032	1
0	5712	1452.496265212684	0
0	5737	1455.638356750034	1
0	5740	1456.233472411804	0
0	5753	1463.723180605912	1
0	5757	1465.24758963327	0
0	5790	1472.256190849417	1
0	5794	1475.033789398977	2
0	5796	1476.208952427551	3
0	5797	1476.58763974537	2
0	5802	1477.137200971401	1
0	5809	1478.372278195537	0
0	5824	1481.289799081607	1
0	5826	1482.519214461575	0
0	5836	1483.653517198668	1
0	5841	1487.918151240965	0
0	5848	1488.676607326957	1
0	5849	1488.709211294625	0
0	5869	1491.739116912126	1
0	5872	1493.300174371041	0
0	5892	1496.721701056319	1
0	5893	1497.288605167209	0
0	5899	1497.323655600716	1
0	5902	1497.909875635033	0
0	5910	1498.994725858709	1
0	5911	1499.700808702472	0
0	5972	1516.013540297373	1
0	5974	1518.787912017441	0
0	6041	1536.021796416406	1
0	6043	1536.618464011586	0
0	6090	1546.105107545045	1
0	6092	1546.386684785755	0
0	6106	1547.458548358498	1
0	6108	1548.723821274122	2
0	6110	1550.608162235429	1
0	6116	1550.990828689941	2
0	6118	1551.718108578425	1
0	6124	1551.826852270546	2
0	6131	1553.624150880804	1
0	6137	1554.51963799604	0
0	6164	1563.820579148259	1
0	6167	1564.106624715156	0
0	6174	1564.843675726521	1
0	6175	1564.880462094578	0
0	6189	1571.966592027171	1
0	6191	1572.053598593168	0
0	6274	1596.420809746504	1
0	6275	1596.973098654552	0
0	6291	1599.156530239368	1
0	6293	1600.684346865082	0
0	6299	1601.081883529263	1
0	6302	1601.156004196508	2
0	6303	1602.478541852665	1
0	6310	1605.676286503218	0
0	6332	1611.195514860466	1
0	6333	1612.479875889297	0
0	6354	1616.890168668263	1
0	6355	1617.410645614631	0
0	6391	1626.129011664078	1
0	6393	1626.19702661306	2
0	6394	1626.67459018803	1
0	6399	1626.674609269435	0
0	6455	1634.847459510021	1
0	6456	1635.031055048171	0
0	6497	1643.346441366772	1
0	6498	1643.8799066113	0
0	6547	1655.61259626014	1
0	6548	1657.075671097225	0
0	6562	1659.256883865709	1
0	6565	1660.31685019488	0
0	6576	1660.93841826286	1
0	6577	1661.313635319707	0
0	6583	1661.90817953153	1
0	6586	1662.580296469182	0
0	6623	1670.358428490272	1
0	6624	1671.191347315614	0
0	6640	1676.677286037255	1
0	6641	1676.805319497435	0
0	6655	1676.92070310054	1
0	6656	1677.186372073042	0
0	6694	1683.067589412725	1
0	6695	1683.28929095156	0
0	6706	1684.877327056018	1
0	6708	1686.514418122614	2
0	6710	1687.371431935102	3
0	6711	1687.659851713728	2
0	6717	1689.274682577137	1
0	6723	1689.445311436003	2
0	6724	1689.733661250849	1
0	6729	1690.181122208133	0
0	6746	1696.782825997577	1
0	6749	1700.312244943173	0
0	6788	1719.708892754807	1
0	6789	1719.718497408815	0
0	6795	1719.793139570613	1
0	6796	1720.26068940845	0
0	6806	1721.085569038134	1
0	6808	1721.184566081884	2
0	6814	1724.082540140517	3
0	6815	1724.127359957059	2
0	6821	1724.890919368046	3
0	6823	1725.268294518988	2
0	6828	1725.488556649369	1
0	6833	1726.231640225501	0
0	6840	1726.784653910267	1
0	6844	1727.442078982607	2
0	6845	1727.51887247722	1
0	6853	1729.051989910232	0
0	6898	1733.922299160113	1
0	6899	1734.052735077809	0
0	6915	1736.038461844802	1
0	6920	1736.870869921955	2
0	6921	1737.359658564611	1
0	6928	1737.659262632059	2
0	6930	1738.398823606052	1
0	6937	1738.735581792347	0
0	6949	1739.442141176642	1
0	6953	1739.70884961885	2
0	6954	1740.974011871937	1
0	6960	1742.066305209655	0
0	6979	1744.274871540504	1
0	6981	1744.938694088399	2
0	6983	1745.327869325189	3
0	6984	1747.764542651128	2
0	6991	1749.455610405585	3
0	6992	1749.710531507064	2
0	7001	1751.041490949154	1
0	7006	1751.407961477894	0
0	7019	1753.373424541242	1
0	7021	1753.417348923841	2
0	7022	1753.845070822635	1
0	7027	1754.560428789592	0
0	7036	1756.523759305411	1
0	7038	1756.95959797427	2
0	7039	1757.51760086324	1
0	7045	1759.22356950426	0
0	7129	1773.458519250443	1
0	7130	1773.617113625929	0
0	7153	1779.844004840838	1
0	7156	1780.988989039552	0
0	7170	1783.162732055955	1
0	7171	1783.615839830539	0
0	7224	1806.978588777905	1
0	7227	1807.368707450179	2
0	7228	1808.079976872722	1
0	7235	1809.474989957735	2
0	7236	1810.148672692868	1
0	7241	1810.310274301759	0
0	7265	1815.157147436042	1
0	7266	1815.224403468534	0
0	7290	1823.138474714944	1
0	7291	1823.409267383872	0
0	7337	1833.677365580877	1
0	7338	1834.158672770357	0
0	7356	1839.323444770779	1
0	7360	1840.486249515521	2
0	7361	1840.972511432387	1
0	7368	1841.123984776248	2
0	7369	1841.196775954368	1
0	7375	1841.831588709884	2
0	7377	1841.932546381528	1
0	7382	1843.091408379474	0
0	7396	1845.049955144708	1
0	7398	1845.544302111133	2
0	7399	1846.361206922941	1
0	7404	1846.554772404539	0
0	7410	1846.619911986619	1
0	7413	1847.707914628304	0
0	7421	1850.45530581621	1
0	7423	1851.628118171798	0
0	7429	1851.968486787565	1
0	7430	1852.908043605245	0
0	7480	1861.395957550525	1
0	7481	1864.564148432453	0
0	7498	1869.781020715124	1
0	7501	1871.325781126997	0
0	7507	1871.533926039084	1
0	7509	1871.569844818003	2
0	7512	1873.053023798731	1
0	7519	1874.972069078314	2
0	7520	1875.314690594977	1
0	7526	1875.34909355427	2
0	7532	1876.804400037734	1
0	7540	1881.052146881824	0
0	7547	1882.082904701564	1
0	7548	1882.675051339645	0
0	7615	1893.809215380443	1
0	7616	1893.91574711474	0
0	7622	1894.768680914611	1
0	7623	1895.536763999226	0
0	7767	1933.355156588253	1
0	7768	1933.62822521476	0
0	7795	1937.998773246118	1
0	7798	1938.328319278535	0
0	7823	1947.616864138761	1
0	7825	1947.745770604273	0
0	7886	1965.736441804174	1
0	7887	1966.6305426402	0
0	7894	1966.77682258821	1
0	7895	1967.074504961835	0
0	7966	1997.591708797364	1
0	7967	1997.718155161135	0
0	7987	2005.957201474787	1
0	7991	2007.476151293863	2
0	7992	2007.917354143472	1
0	7999	2008.614799598163	2
0	8000	2009.029341848638	1
0	8005	2009.154468537609	0
0	8034	2015.744767607438	1
0	8038	2017.054842927431	2
0	8042	2017.831404902984	3
0	8045	2018.88171938865	2
0	8052	2019.637978232805	1
0	8057	2020.698726570004	0
0	8069	2023.861474225778	1
0	8074	2025.568420384436	0
0	8081	2026.658425622346	1
0	8082	2026.671324052386	0
0	8099	2029.237201494331	1
0	8105	2032.299624957027	2
0	8107	2032.41521725117	3
0	8109	2032.488166141405	4
0	8110	2034.912132399617	3
0	8117	2035.563864524564	4
0	8119	2036.285702453435	5
0	8120	2036.6007614108	4
0	8128	2037.688864427674	3
0	8134	2038.927947342634	2
0	8139	2039.215579369242	1
0	8145	2039.331595991233	2
0	8148	2039.593325293135	1
0	8154	2040.102623159224	0
0	8161	2040.834122621645	1
0	8163	2041.286797857911	2
0	8168	2042.158593248752	3
0	8169	2042.271225317639	2
0	8174	2042.377947720615	1
0	8179	2043.319096591921	0
0	8198	2046.77623607966	1
0	8199	2047.109943272173	0
0	8205	2047.20758848045	1
0	8207	2048.666358886062	0
0	8229	2056.717761601979	1
0	8235	2057.870542672059	2
0	8239	2058.484531880541	3
0	8240	2058.523765631822	2
0	8245	2059.034674500061	1
0	8253	2061.407862576348	2
0	8254	2062.143037995111	1
0	8262	2062.347734954347	0
0	8278	2066.450639412174	1
0	8281	2068.430235060707	0
0	8287	2068.594660347616	1
0	8289	2070.705613000699	0
0	8300	2071.031714256967	1
0	8304	2072.126055764678	0
0	8335	2080.500162448757	1
0	8337	2080.730531024465	2
0	8340	2081.171696046618	3
0	8341	2083.49165446651	2
0	8348	2083.990341388625	3
0	8350	2083.995038500752	4
0	8351	2084.757826046831	3
0	8360	2086.038607285322	2
0	8369	2087.323758669399	1
0	8377	2088.155054929532	0
0	8408	2093.041607673743	1
0	8411	2094.568294655772	0
0	8420	2097.847830635782	1
0	8421	2097.997506346698	0
0	8474	2119.502590997225	1
0	8476	2119.536667906405	2
0	8479	2120.446821016304	3
0	8480	2120.462833059171	2
0	8485	2120.503238514111	1
0	8490	2120.603877901654	0
0	8496	2122.334629329738	1
0	8498	2123.172829518797	0
0	8546	2135.813045154863	1
0	8547	2136.595651045338	0
0	8561	2140.220245965768	1
0	8562	2140.939952684649	0
0	8582	2151.195457744565	1
0	8584	2151.226915923059	2
0	8589	2152.378680635084	1
0	8595	2152.867309729553	0
0	8642	2167.516918535023	1
0	8644	2167.61074213614	2
0	8649	2170.069235674347	3
0	8650	2171.903654873287	2
0	8655	2171.956917940577	1
0	8661	2173.616132741555	0
0	8689	2177.481821305385	1
0	8693	2178.320698791083	2
0	8696	2179.86865518418	1
0	8702	2181.176986824764	0
0	8721	2192.725478101174	1
0	8722	2193.342276103995	0
0	8778	2208.049654076964	1
0	8780	2210.426009246906	0
0	8801	2216.716773626791	1
0	8802	2216.765986233917	0
0	8817	2221.601786888414	1
0	8819	2222.596776289338	2
0	8820	2222.81863908884	1
0	8827	2224.892358150262	0
0	8846	2228.096456190909	1
0	8848	2229.986651198137	0
0	8854	2230.580782467502	1
0	8855	2231.926676910769	0
0	8867	2232.272406134692	1
0	8868	2233.673157369536	0
0	8884	2237.364710110704	1
0	8885	2237.862785683677	0
0	8898	2238.445470818951	1
0	8900	2238.839960965543	2
0	8911	2244.133716143748	1
0	8920	2247.355788864989	0
0	8949	2249.72034456052	1
0	8951	2250.8629652879	2
0	8953	2251.196741369497	1
0	8959	2252.857314481376	0
0	8970	2253.519734366505	1
0	8973	2254.28924257911	0
0	8994	2259.550758630335	1
0	8995	2259.586916371063	0
0	9019	2264.803627320937	1
0	9020	2264.852810592244	0
0	9034	2266.908384649386	1
0	9039	2267.84486254625	2
0	9040	2268.332521056565	1
0	9046	2268.612426840745	2
0	9048	2269.640938665975	1
0	9053	2269.797709147341	0
0	9059	2270.215334692577	1
0	9060	2270.447818981123	0
0	9108	2288.051990444329	1
0	9109	2289.874162874413	0
0	9115	2289.921366515362	1
0	9117	2290.753034473433	0
0	9132	2294.912054416165	1
0	9133	2295.080745484892	0
0	9147	2300.710132022983	1
0	9150	2302.093727805541	0
0	9173	2308.825899872459	1
0	9174	2309.129593460909	0
0	9214	2331.192488549681	1
0	9216	2332.414666489735	2
0	9217	2332.722789465522	1
0	9222	2332.999667364766	0
0	9228	2333.481686231695	1
0	9229	2333.731754708353	0
0	9246	2335.395828143796	1
0	9250	2336.491874804042	2
0	9252	2336.700757571545	3
0	9254	2338.059621684514	4
0	9260	2341.771852680149	3
0	9265	2342.164140516467	2
0	9270	2342.323820177164	1
0	9279	2342.699494509948	0
0	9309	2346.591783852324	1
0	9313	2349.379019856495	0
0	9342	2354.451055905608	1
0	9346	2356.775652935602	2
0	9347	2356.844859395234	1
0	9352	2357.000818807173	0
0	9362	2359.718563980805	1
0	9366	2361.892793384038	2
0	9368	2362.182169216893	3
0	9369	2362.435680243974	2
0	9375	2363.044099733824	3
0	9377	2363.148585949081	4
0	9378	2363.225845513981	3
0	9383	2363.295904173964	2
0	9388	2363.399826612724	1
0	9394	2363.460192813475	2
0	9396	2364.24249205786	3
0	9399	2365.43706434432	4
0	9401	2365.680755422297	3
0	9406	2365.828980249771	2
0	9412	2366.672563565819	3
0	9413	2367.172694868265	2
0	9419	2371.174316426241	1
0	9426	2372.055865029174	0
0	9434	2374.782466925568	1
0	9439	2375.160565478868	0
0	9452	2377.907944693161	1
0	9453	2378.193604097773	0
0	9457	2378.823438880271	1
0	9461	2380.385488360454	0
0	9496	2388.675309652279	1
0	9497	2388.994073194427	0
0	9503	2389.126087918244	1
0	9504	2389.170190714549	0
0	9513	2389.425714713516	1
0	9516	2389.802005516766	0
0	9530	2390.727190534795	1
0	9531	2390.973038757258	0
0	9543	2391.596693211676	1
0	9547	2392.377175159959	2
0	9548	2393.279552830272	1
0	9553	2393.937780020836	0
0	9568	2396.086463874632	1
0	9571	2396.31236981172	0
0	9577	2396.378264636764	1
0	9580	2397.039928248503	2
0	9581	2397.734593765697	1
0	9592	2399.36154104109	2
0	9593	2399.473423572764	1
0	9598	2400.217571957538	0
0	9625	2404.719395914941	1
0	9627	2405.226446515776	2
0	9629	2405.839904608498	3
0	9632	2406.854678623652	2
0	9637	2407.162961677699	1
0	9642	2407.525397597939	0
0	9648	2408.521890579658	1
0	9649	2409.39025338753	0
0	9669	2412.228713056691	1
0	9671	2412.835140036726	0
0	9691	2421.265799460275	1
0	9692	2421.505618332777	0
0	9698	2422.96462506381	1
0	9702	2423.745154508639	0
0	9708	2423.758852388365	1
0	9709	2424.698066748789	0
0	9723	2428.603653089007	1
0	9724	2429.026755213308	0
0	9730	2430.175260831354	1
0	9732	2430.580415584582	2
0	9735	2431.366892131377	1
0	9743	2433.298712269628	0
0	9758	2434.870525574334	1
0	9761	2435.419261236211	0
0	9767	2435.965306520756	1
0	9769	2436.554455684196	0
0	9791	2440.022893280302	1
0	9794	2441.485419269055	0
0	9816	2447.845972763178	1
0	9823	2451.073577075984	0
0	9834	2451.544308022103	1
0	9837	2453.464993556569	2
0	9838	2457.846831328857	1
0	9843	2458.033723908809	0
0	9852	2459.070655402334	1
0	9857	2459.841520208028	2
0	9858	2460.276959680255	1
0	9863	2460.525091631525	0
0	9872	2460.98744320466	1
0	9874	2462.364463570946	0
0	9889	2465.733511422725	1
0	9894	2468.316638223379	0
0	9900	2469.030167753328	1
0	9903	2470.393245099365	2
0	9904	2470.806285499434	1
0	9911	2471.799633618199	0
0	9917	2474.697334259124	1
0	9919	2475.113088568591	0
0	9923	2477.005742412308	1
0	9927	2478.623945186461	0
0	9948	2482.400769888564	1
0	9950	2483.231354186683	2
0	9952	2484.616070941853	1
0	9958	2485.707649357939	0
0	9967	2486.084748630363	1
0	9969	2487.347718533369	2
0	9970	2489.20387815426	1
0	9976	2489.846401676645	2
0	9980	2491.353949667308	1
0	9989	2491.546598169137	0
0	10000	2492.228133495375	1
0	10005	2496.038845643624	2
0	10009	2496.939463250245	3
0	10011	2498.915677318799	4
0	10012	2499.318931022338	3
0	10017	2500.519216672752	2
0	10023	2501.51986088542	1
0	10030	2502.444485767221	0
0	10046	2505.12074356106	1
0	10048	2506.06927693908	2
0	10052	2508.882644015795	3
0	10053	2509.762214470713	2
0	10059	2510.628671837993	1
0	10066	2511.02621542295	0
0	10077	2512.152734234627	1
0	10079	2512.518929908933	2
0	10080	2512.927405186885	1
0	10085	2512.984841873113	0
0	10096	2513.865979183962	1
0	10099	2514.039887430703	2
0	10101	2515.302627873319	3
0	10104	2517.091066040779	2
0	10110	2517.787660107182	1
0	10115	2518.48749005986	0
0	10151	2522.730534784394	1
0	10153	2523.628140657907	0
0	10227	2559.684578445255	1
0	10229	2561.572841294273	2
0	10230	2562.422716991946	1
0	10236	2564.044520995778	0
0	10262	2568.905230560903	1
0	10267	2571.780425955669	0
0	10274	2572.357080351725	1
0	10280	2577.147283395087	2
0	10283	2580.773228423046	1
0	10289	2580.901205218187	2
0	10290	2580.935941914492	1
0	10297	2583.118029396133	0
0	10311	2586.506936155158	1
0	10313	2588.620994346372	2
0	10315	2589.279456694402	3
0	10317	2589.422800128121	4
0	10318	2591.2837637662	3
0	10323	2591.305025152473	2
0	10331	2594.02487766105	3
0	10333	2594.705609041154	2
0	10341	2596.475577242975	3
0	10344	2596.81229155684	2
0	10350	2596.866780969442	3
0	10351	2597.284756016885	2
0	10356	2597.593156075257	1
0	10362	2597.666073290688	2
0	10364	2597.798701553642	3
0	10365	2597.823755450472	2
0	10369	2598.400558189244	3
0	10373	2599.160821017101	2
0	10382	2600.943093359608	3
0	10383	2601.007790578907	2
0	10396	2604.446413893459	1
0	10403	2604.600934275255	2
0	10404	2605.237487394044	1
0	10409	2605.555652844968	0
0	10441	2611.800964569776	1
0	10443	2611.910679317253	2
0	10444	2611.934140141151	1
0	10449	2611.965863349906	0
0	10456	2613.131552024806	1
0	10457	2613.42172960952	0
0	10478	2616.725429312051	1
0	10479	2618.175639601287	0
0	10487	2618.613765150326	1
0	10492	2619.767121826134	0
0	10505	2621.576375029419	1
0	10506	2622.735595592273	0
0	10512	2622.809607480577	1
0	10515	2624.12761747213	2
0	10517	2624.700728563309	3
0	10518	2625.946752237557	2
0	10526	2628.147897061043	1
0	10532	2628.42753789249	0
0	10543	2629.862935876595	1
0	10545	2630.215172110611	0
0	10555	2634.903169729218	1
0	10557	2635.418381637002	2
0	10558	2635.603226329286	1
0	10566	2636.854724090182	0
0	10577	2638.904089999232	1
0	10579	2639.065260447454	0
0	10585	2639.305622671559	1
0	10586	2639.427242407947	0
0	10613	2646.498027664949	1
0	10615	2646.550577839901	2
0	10617	2647.162460645483	3
0	10619	2647.51999104151	4
0	10620	2647.550496550688	3
0	10625	2647.567176458854	2
0	10630	2648.406476542422	1
0	10640	2649.912175210986	0
0	10654	2652.040895203257	1
0	10661	2654.319232109459	0
0	10672	2656.094989996236	1
0	10673	2657.801079527416	0
0	10686	2659.64765192488	1
0	10690	2660.818744387288	0
0	10711	2663.401945455555	1
0	10715	2663.792683826691	2
0	10719	2664.813062854271	3
0	10721	2664.919847205486	4
0	10724	2664.971146463286	3
0	10730	2665.105011940861	4
0	10732	2665.504557380906	3
0	10739	2666.077772218133	4
0	10741	2666.970148833652	5
0	10742	2668.024274026433	4
0	10751	2668.525867818732	5
0	10754	2670.328891246254	4
0	10759	2670.430460388619	3
0	10765	2670.697645619897	2
0	10774	2672.605948391392	1
0	10781	2672.987118705461	0
0	10803	2675.78532832814	1
0	10806	2676.802093152824	2
0	10807	2677.108616237997	1
0	10814	2678.065409035344	2
0	10816	2679.376602978977	1
0	10823	2680.983932165629	2
0	10826	2682.607124866796	1
0	10832	2682.704396061387	2
0	10833	2682.961565871435	1
0	10838	2683.061297275181	0
0	10861	2685.116505202869	1
0	10866	2686.407212772595	2
0	10868	2686.843516164745	1
0	10874	2687.167205851081	2
0	10876	2688.20577834862	3
0	10877	2688.36982175466	2
0	10883	2688.555603764581	3
0	10887	2692.219383330885	4
0	10891	2692.900430189589	5
0	10892	2692.962022913504	4
0	10898	2693.566212355824	3
0	10904	2694.102016702372	2
0	10910	2694.583333638266	3
0	10911	2696.891378986901	2
0	10917	2697.091756219136	3
0	10921	2697.569855572209	2
0	10927	2697.965950243434	1
0	10932	2698.917638875793	0
0	10946	2702.689333424972	1
0	10953	2704.801580459484	0
0	10984	2710.93177015831	1
0	10986	2712.049631469774	2
0	10988	2713.247185178889	3
0	10989	2713.764130728768	2
0	10997	2714.285356384466	3
0	10998	2714.469189983449	2
0	11004	2714.552839670058	3
0	11011	2716.812238987858	2
0	11016	2717.041142334821	1
0	11023	2717.386533800425	0
0	11031	2720.332180427166	1
0	11033	2720.765652892875	2
0	11035	2720.813525209288	3
0	11039	2722.140477512555	4
0	11042	2722.987324804781	3
0	11047	2723.240216469195	2
0	11051	2723.473834414969	3
0	11054	2725.727531360553	2
0	11061	2727.208753834508	1
0	11066	2727.412520303697	0
0	11072	2727.431358781295	1
0	11074	2727.961465781587	2
0	11076	2729.283230067089	1
0	11082	2729.512379215885	2
0	11083	2729.738689963328	1
0	11094	2732.020711088895	0
0	11115	2737.901181576538	1
0	11118	2738.279810031756	2
0	11120	2738.675742612736	1
0	11126	2740.360028134802	0
0	11158	2749.831064380529	1
0	11160	2750.014268687732	2
0	11166	2752.80482898483	1
0	11171	2752.969082165823	0
0	11182	2753.230875190546	1
0	11185	2754.528120821449	0
0	11191	2754.67319643981	1
0	11192	2755.698689266453	0
0	11209	2756.982542469582	1
0	11212	2757.444850137347	0
0	11244	2763.058139226377	1
0	11245	2764.080970017083	0
0	11254	2764.79354610318	1
0	11257	2765.361002243483	0
0	11273	2768.897971886411	1
0	11276	2770.069439996428	0
0	11285	2773.589637328325	1
0	11289	2774.655034932773	2
0	11291	2775.10293940596	3
0	11293	2777.25028655305	4
0	11297	2778.478740040515	3
0	11302	2779.043059169174	2
0	11308	2780.549073495295	1
0	11314	2781.36664193322	2
0	11316	2781.642805634358	1
0	11325	2783.534360278613	0
0	11350	2788.740344900351	1
0	11351	2788.928719328171	0
0	11362	2789.581022352433	1
0	11364	2792.166946985278	0
0	11400	2799.730002822419	1
0	11405	2801.083527268511	0
0	11426	2807.378211388929	1
0	11427	2809.975194212213	0
0	11436	2811.58861577983	1
0	11440	2813.897578089899	0
0	11451	2816.253260983155	1
0	11453	2816.797840572299	0
0	11477	2820.627949547533	1
0	11481	2821.671765706437	2
0	11482	2821.919311006039	1
0	11488	2822.481547794034	2
0	11491	2823.712041291191	3
0	11492	2824.511156258629	2
0	11497	2825.006247501795	1
0	11503	2825.011354346802	2
0	11506	2825.87969668513	3
0	11508	2826.566255918503	2
0	11516	2827.348154435077	1
0	11521	2829.867712714816	0
0	11527	2830.141877832694	1
0	11529	2830.834467941453	0
0	11561	2837.508798629658	1
0	11563	2837.594951446113	2
0	11567	2838.221425271155	3
0	11571	2842.891752303373	4
0	11572	2843.745523622188	3
0	11578	2843.791857871067	2
0	11584	2844.719515562784	3
0	11587	2844.972965420657	2
0	11593	2845.396321739932	3
0	11595	2847.601898959759	2
0	11600	2848.686065761629	1
0	11608	2850.979371291425	0
0	11621	2852.191867496353	1
0	11624	2852.954207650282	2
0	11636	2856.034711668698	3
0	11637	2857.228843618498	2
0	11642	2857.60492703757	1
0	11650	2858.926386190608	2
0	11651	2859.020683850649	1
0	11656	2860.384940310923	0
0	11686	2863.432149193196	1
0	11690	2864.393537390974	2
0	11692	2864.620589435597	1
0	11698	2864.707545716615	0
0	11728	2869.338621321374	1
0	11730	2869.896569889519	2
0	11736	2872.022170486359	3
0	11738	2872.265530929384	4
0	11739	2872.283870725705	3
0	11747	2873.888920491752	2
0	11752	2873.974802174932	1
0	11757	2874.386586942648	0
0	11763	2874.785441335123	1
0	11768	2875.527810299529	2
0	11770	2876.599883507685	3
0	11772	2876.950105799067	4
0	11774	2877.855395432251	3
0	11784	2879.031446399974	2
0	11790	2880.132071190498	1
0	11799	2882.729790051168	2
0	11800	2883.68561919381	1
0	11806	2884.258969685059	2
0	11807	2884.624356952532	1
0	11816	2885.611054132013	0
0	11836	2888.14919731882	1
0	11840	2888.784525284869	2
0	11841	2889.206665393949	1
0	11846	2889.682159573623	0
0	11852	2889.842505117473	1
0	11857	2892.439097886034	2
0	11858	2892.63342232906	1
0	11864	2892.730832427511	2
0	11870	2894.261317628961	3
0	11874	2895.224131526847	2
0	11879	2895.543527480434	1
0	11884	2895.918280049594	0
0	11890	2896.669428225757	1
0	11893	2898.179858484511	0
0	11910	2899.556203070932	1
0	11911	2899.995755988289	0
0	11923	2902.01202786915	1
0	11928	2904.986411588721	0
0	11940	2907.970658544962	1
0	11941	2909.383786243548	0
0	11974	2923.48210884252	1
0	11979	2924.482692523965	0
0	11988	2924.518177838404	1
0	11994	2927.51573712155	0
0	12013	2932.933340664113	1
0	12016	2935.661005285288	0
0	12022	2935.779790018715	1
0	12025	2937.960842143562	0
0	12034	2938.783604005469	1
0	12038	2940.005902434122	0
0	12061	2944.49646749026	1
0	12062	2945.182971779778	0
0	12096	2957.619806539636	1
0	12097	2957.704954258322	0
0	12104	2958.197152080352	1
0	12108	2958.471457600124	2
0	12109	2958.591732328669	1
0	12114	2958.617388034247	0
0	12142	2963.637891660185	1
0	12144	2964.875324580712	2
0	12150	2968.042334920505	3
0	12156	2970.760102383796	2
0	12161	2971.334330016914	1
0	12167	2971.403611392591	2
0	12169	2971.662188551072	3
0	12170	2971.769241166919	2
0	12177	2972.543747313728	3
0	12178	2973.126433311588	2
0	12186	2974.383983744311	1
0	12191	2974.41569488835	0
0	12225	2980.13963893938	1
0	12229	2980.434045169963	0
0	12238	2982.343734524476	1
0	12241	2985.498495651347	2
0	12242	2989.270553932333	1
0	12248	2991.5472326069	0
0	12256	2992.382900363018	1
0	12257	2993.796010159799	0
0	12273	2997.788693730891	1
0	12276	2998.217994833989	0
0	12282	2998.383943703316	1
0	12283	2998.783517846556	0
0	12315	3005.404327149331	1
0	12318	3008.149655351412	0
0	12325	3008.828679139468	1
0	12327	3010.674984698729	2
0	12332	3012.870746904208	1
0	12337	3013.747694349124	0
0	12350	3018.686425706193	1
0	12351	3018.935834200943	0
0	12377	3027.987274264571	1
0	12379	3028.132955579322	2
0	12382	3029.236495783309	1
0	12387	3030.140597885582	0
0	12398	3033.084730266215	1
0	12399	3034.059906032247	0
0	12413	3037.362686831661	1
0	12414	3037.452684751627	0
0	12425	3037.660313464678	1
0	12427	3039.128630378715	0
0	12450	3041.799566445689	1
0	12456	3042.77696463649	0
0	12465	3043.290899534055	1
0	12471	3047.743359119697	0
0	12493	3052.338056552884	1
0	12494	3052.748190406502	0
0	12505	3053.248063794938	1
0	12506	3053.257434585868	0
0	12536	3059.971212744499	1
0	12540	3063.906868778742	2
0	12541	3063.99942696543	1
0	12546	3064.02778320642	0
0	12558	3065.251150314364	1
0	12562	3066.844061000986	2
0	12563	3067.252870992947	1
0	12568	3067.755758465562	0
0	12574	3068.843929804196	1
0	12575	3068.9316864729	0
0	12598	3074.942551145629	1
0	12602	3077.263388373596	0
0	12619	3079.344075271731	1
0	12623	3080.232476099433	0
0	12634	3083.2836817291	1
0	12636	3083.289105171207	2
0	12637	3083.334415030913	1
0	12642	3083.375726073696	0
0	12648	3084.049761170953	1
0	12651	3085.553164407037	0
0	12662	3088.58121916899	1
0	12664	3090.886192558525	0
0	12701	3103.332715532564	1
0	12704	3104.362788872135	0
0	12711	3105.217148547877	1
0	12717	3107.614555882281	0
0	12723	3108.095771304628	1
0	12724	3108.112857318283	0
0	12730	3108.379426859417	1
0	12734	3109.618810768234	0
0	12740	3109.844237622347	1
0	12741	3110.248859924161	0
0	12752	3111.040806687417	1
0	12753	3111.394543519712	0
0	12757	3113.226538979007	1
0	12760	3113.840190410739	0
0	12766	3115.308063585063	1
0	12768	3117.169299531348	2
0	12771	3117.959910680146	1
0	12775	3118.272930474013	2
0	12777	3118.345466077556	3
0	12780	3119.671665602177	2
0	12785	3120.598215192558	1
0	12789	3124.402903215985	2
0	12797	3129.810722914129	1
0	12802	3130.174732031994	0
0	12810	3130.976143605479	1
0	12814	3133.055591885059	0
0	12848	3136.967112204476	1
0	12849	3137.492183477139	0
0	12858	3137.841294722979	1
0	12860	3139.014765433616	2
0	12866	3139.78267732325	3
0	12867	3139.872442527443	2
0	12876	3141.755610767057	1
0	12881	3143.286172929606	0
0	12893	3144.069494301856	1
0	12897	3144.41421631353	0
0	12911	3146.424485150705	1
0	12912	3146.860894567487	0
0	12918	3147.215667871006	1
0	12920	3147.502860772803	2
0	12922	3148.478373238602	1
0	12927	3149.058723845845	0
0	12940	3150.489135356011	1
0	12942	3150.513949361362	2
0	12943	3151.271327245028	1
0	12949	3151.538956788764	0
0	12965	3154.632398000966	1
0	12969	3155.234704391184	2
0	12971	3155.301120684125	3
0	12972	3156.383758864121	2
0	12978	3156.469527196569	3
0	12980	3160.833442255517	2
0	12986	3161.164080705725	3
0	12987	3161.95731747261	2
0	12993	3162.22922362488	3
0	12994	3162.421310881067	2
0	12999	3162.714497227734	1
0	13004	3162.736265021553	0
0	13008	3163.017207924925	1
0	13010	3164.620272755007	2
0	13014	3167.181573363283	3
0	13020	3169.061059461092	2
0	13025	3171.567865662983	1
0	13029	3171.867938392614	2
0	13037	3173.41937706193	3
0	13039	3173.539037575653	4
0	13041	3175.066493076849	3
0	13046	3175.559706639543	2
0	13055	3177.96324077304	3
0	13058	3178.301609617611	2
0	13064	3180.743941471214	1
0	13071	3181.126961213785	0
0	13087	3186.519761232358	1
0	13089	3189.007847149038	2
0	13091	3189.092198222306	3
0	13092	3189.896819088965	2
0	13097	3190.122871946361	1
0	13110	3194.146883079315	2
0	13115	3196.136131534904	1
0	13120	3196.265803902781	0
0	13126	3197.230780545937	1
0	13130	3198.122583025807	0
0	13142	3200.44681908672	1
0	13144	3200.678670206815	2
0	13146	3201.032094884316	3
0	13149	3201.481103102409	2
0	13157	3202.032355610612	1
0	13164	3203.982622782932	2
0	13165	3204.132129595325	1
0	13172	3204.650489743618	2
0	13173	3206.378281453696	1
0	13181	3209.072066770712	2
0	13183	3209.457910356101	3
0	13184	3209.478382470884	2
0	13189	3209.920849340605	1
0	13194	3210.713655411696	0
0	13213	3213.60202180919	1
0	13216	3214.538089337052	0
0	13240	3217.679886267725	1
0	13241	3218.234238493661	0
0	13275	3225.394761058824	1
0	13278	3225.960496787341	0
0	13291	3227.29783914638	1
0	13297	3227.780120689585	2
0	13299	3227.893219791505	3
0	13302	3228.567467682007	2
0	13310	3228.740531404607	1
0	13315	3229.236588412708	0
0	13322	3229.814505881285	1
0	13323	3230.06908910328	0
0	13329	3230.442652593087	1
0	13332	3230.617539561481	2
0	13334	3230.856828782611	3
0	13336	3231.479259311601	4
0	13339	3233.892349403691	3
0	13347	3235.210616880449	2
0	13353	3235.707199246398	1
0	13361	3236.395722918061	2
0	13363	3236.517311128399	3
0	13365	3237.293926113197	2
0	13374	3240.00799020456	1
0	13379	3240.926138512176	0
0	13434	3253.178839082937	1
0	13436	3253.69086598864	2
0	13438	3254.171002446905	3
0	13446	3258.019913725873	4
0	13448	3258.593338810809	5
0	13449	3259.332291079731	4
0	13456	3259.936593899692	3
0	13462	3260.546449898525	2
0	13467	3261.51835023763	1
0	13473	3263.407843984914	0
0	13495	3270.287088122972	1
0	13497	3271.03248665906	0
0	13509	3271.895263382986	1
0	13510	3271.917939166872	0
0	13523	3273.526927487767	1
0	13527	3275.403670783927	0
0	13534	3276.164876144259	1
0	13536	3277.351348838551	2
0	13537	3278.041821603484	1
0	13542	3278.227522668324	0
0	13554	3278.811812522726	1
0	13557	3280.133490254877	0
0	13564	3280.744734257197	1
0	13568	3281.838159788863	0
0	13596	3289.894614460689	1
0	13597	3291.479314976604	0
0	13617	3296.655006376012	1
0	13620	3298.8685030091	0
0	13632	3301.150339170813	1
0	13633	3301.813930205117	0
0	13639	3301.928654837693	1
0	13641	3302.99425747356	0
0	13675	3318.546580881093	1
0	13679	3319.415457938996	2
0	13680	3319.780472113786	1
0	13686	3320.437625253259	2
0	13688	3320.935880414186	3
0	13689	3321.037692403842	2
0	13694	3321.486807098223	1
0	13700	3321.5707694423	2
0	13702	3322.152381665926	1
0	13707	3322.481754690944	0
0	13722	3326.273370953251	1
0	13724	3329.098448859807	2
0	13729	3330.574269098408	3
0	13730	3331.292135354371	2
0	13735	3331.585942234475	1
0	13739	3333.801516887193	2
0	13743	3335.757659114679	3
0	13746	3336.886366816359	2
0	13751	3337.360259710487	1
0	13758	3340.10601236056	0
0	13785	3344.310707877434	1
0	13786	3345.180869628234	0
0	13795	3345.468468039052	1
0	13798	3345.903006511464	0
0	13812	3349.048050258246	1
0	13815	3350.489431608878	0
0	13824	3351.582312500572	1
0	13829	3353.230550507941	2
0	13830	3353.63928005966	1
0	13839	3356.193794323146	0
0	13864	3363.385120341318	1
0	13865	3364.230514816001	0
0	13874	3365.158576778533	1
0	13876	3365.87292152612	2
0	13882	3367.978138118187	1
0	13887	3368.54268914096	0
0	13894	3369.042129484747	1
0	13896	3369.21217866585	2
0	13900	3370.632930463237	1
0	13905	3371.114047212429	0
0	13914	3372.453807799493	1
0	13917	3378.02054563889	0
0	13931	3381.836633003555	1
0	13937	3382.9222363797	2
0	13939	3383.509962604798	1
0	13945	3384.145386481375	0
0	13951	3384.185941006007	1
0	13953	3384.605887668626	2
0	13954	3385.020888318147	1
0	13959	3385.050172582304	0
0	13973	3385.932587550782	1
0	13975	3386.013410756397	2
0	13976	3386.605037740401	1
0	13984	3387.612605898904	0
0	13988	3387.989970214366	1
0	13992	3389.082204608558	0
0	14007	3391.179238822652	1
0	14011	3392.538700057733	2
0	14014	3392.572341320545	1
0	14019	3393.047590676134	0
0	14027	3393.113847585985	1
0	14029	3393.957518057956	2
0	14030	3394.474759654919	1
0	14035	3394.650209700135	0
0	14039	3394.975544614381	1
0	14042	3396.949050592269	0
0	14073	3401.486359499836	1
0	14074	3401.639805084951	0
0	14082	3402.229543869623	1
0	14086	3406.03172929297	0
0	14093	3406.707596061613	1
0	14095	3406.862150473528	2
0	14097	3406.983578561688	1
0	14103	3410.42326416877	0
0	14128	3412.953336957075	1
0	14131	3414.952236754159	0
0	14140	3415.724980841342	1
0	14142	3416.704267170153	2
0	14145	3417.892284031186	1
0	14152	3418.269276194154	2
0	14154	3418.724427101157	3
0	14155	3419.416052985018	2
0	14162	3419.619112658067	1
0	14171	3420.572785373128	0
0	14178	3420.723560300083	1
0	14180	3421.021706763477	2
0	14182	3422.485290666918	1
0	14188	3423.415332892102	0
0	14199	3425.578092708466	1
0	14200	3426.339014107039	0
0	14217	3431.270456086051	1
0	14221	3432.323080477659	2
0	14223	3432.333445279345	3
0	14227	3435.297997155709	4
0	14231	3435.610835088996	5
0	14235	3437.473598652034	6
0	14238	3438.891300313146	5
0	14244	3439.997835268017	6
0	14247	3441.037564993408	5
0	14252	3441.436047894054	4
0	14257	3441.730878388504	3
0	14263	3441.911212164272	4
0	14264	3441.982214155897	3
0	14269	3442.870393182143	2
0	14273	3442.903741191205	3
0	14288	3448.473950855242	4
0	14289	3448.707092566981	3
0	14295	3449.019172712182	2
0	14300	3449.155742988773	1
0	14305	3450.610661551794	0
0	14334	3455.543251229963	1
0	14336	3456.626258772724	2
0	14337	3457.281812466009	1
0	14343	3459.260521331606	0
0	14358	3460.795027495531	1
0	14360	3461.030633719695	2
0	14366	3464.701531899033	3
0	14368	3465.554861372319	4
0	14370	3469.799611311639	3
0	14375	3470.105464631263	2
0	14380	3471.014790641351	1
0	14388	3472.381813461825	0
0	14416	3477.795685880724	1
0	14418	3477.88334060265	2
0	14421	3478.804889610447	1
0	14427	3479.808717122445	0
0	14466	3489.027824597422	1
0	14468	3489.133990306852	0
0	14490	3495.229458549605	1
0	14494	3496.241496271439	2
0	14496	3496.763301142686	3
0	14497	3497.35879480945	2
0	14503	3497.743783873959	1
0	14508	3497.878584205102	0
0	14524	3502.959430129988	1
0	14525	3503.153222747846	0
0	14595	3523.647344689017	1
0	14596	3524.120732347172	0
0	14638	3535.770104226974	1
0	14640	3536.080834200648	2
0	14643	3536.551954930096	1
0	14652	3537.019229663068	0
0	14671	3541.770927360305	1
0	14673	3542.90764406303	2
0	14676	3543.83998223657	1
0	14683	3545.08575053656	0
0	14725	3566.307296040643	1
0	14728	3569.221805763716	0
0	14742	3571.592432869034	1
0	14746	3572.670375981415	2
0	14748	3573.064099142351	3
0	14756	3577.345794195695	2
0	14761	3577.38071479015	1
0	14766	3578.244205377804	0
0	14789	3580.641327060872	1
0	14790	3580.677261347122	0
0	14804	3581.786189222127	1
0	14808	3583.131340271238	0
0	14851	3594.423983519327	1
0	14852	3594.439654861628	0
0	14914	3605.472192467123	1
0	14918	3606.578471655027	2
0	14919	3607.8386480632	1
0	14924	3608.17263372472	0
0	14976	3621.817371722497	1
0	14977	3622.114746800806	0
0	14987	3623.298520649886	1
0	14993	3625.354010451886	2
0	14994	3625.591115390909	1
0	15000	3626.267079809637	2
0	15002	3626.992222432393	3
0	15003	3629.027810794363	2
0	15008	3631.418615385676	1
0	15020	3632.861550133043	2
0	15021	3632.976534811754	1
0	15028	3634.695492296245	2
0	15029	3634.940598503739	1
0	15034	3635.483658666033	0
0	15060	3639.102334811177	1
0	15061	3639.835108114595	0
0	15080	3643.20005206884	1
0	15081	3643.873971393514	0
0	15092	3644.638494864361	1
0	15097	3645.15785114467	0
0	15104	3645.375959925744	1
0	15105	3645.728035502791	0
0	15126	3650.71766095397	1
0	15127	3650.874071228328	0
0	15134	3650.90028680866	1
0	15135	3651.310525422726	0
0	15187	3660.76549477356	1
0	15189	3662.078936247691	2
0	15190	3662.212612571175	1
0	15195	3662.233476654619	0
0	15302	3687.938469488677	1
0	15305	3689.72525100156	0
0	15336	3699.054809945713	1
0	15339	3701.113478240581	0
0	15380	3714.017865652387	1
0	15385	3714.725806240202	0
0	15409	3725.041547447482	1
0	15411	3725.296079233369	2
0	15416	3730.724125968049	1
0	15422	3731.06338987074	2
0	15425	3731.133103806686	3
0	15432	3733.245796889409	2
0	15438	3733.782571300266	1
0	15444	3734.13691714516	2
0	15445	3734.255100430714	1
0	15452	3734.759003191747	0
0	15456	3734.864274654954	1
0	15458	3734.969181020008	2
0	15461	3735.613206768363	1
0	15466	3736.538296350739	0
0	15472	3738.356943880595	1
0	15474	3740.698250205616	2
0	15476	3740.867358569926	3
0	15483	3742.405405041188	2
0	15487	3743.643031148613	3
0	15493	3745.012333598154	2
0	15498	3745.361157630589	1
0	15504	3747.494871162907	2
0	15506	3747.726884533453	1
0	15515	3749.030877338342	2
0	15517	3749.898066206735	1
0	15523	3751.170230951709	0
0	15549	3753.803716676383	1
0	15551	3754.320250528378	0
0	15576	3761.456796367312	1
0	15579	3761.869231333602	0
0	15594	3766.666524378763	1
0	15598	3767.882812389056	2
0	15600	3768.753675284191	1
0	15607	3769.893186155463	2
0	15608	3770.999322779226	1
0	15613	3771.057102657657	0
0	15625	3773.236777878863	1
0	15627	3773.404685784908	2
0	15629	3773.596334167688	3
0	15630	3773.816744964531	2
0	15636	3774.294335220967	1
0	15643	3774.552623940213	2
0	15648	3778.52901335358	1
0	15653	3778.819256148939	0
0	15670	3780.96810209793	1
0	15671	3780.984704204246	0
0	15677	3781.223270500062	1
0	15680	3781.515255106292	2
0	15683	3783.409135923461	1
0	15690	3784.807119469942	2
0	15691	3785.280980151155	1
0	15697	3785.406354780589	0
0	15729	3794.314474066385	1
0	15731	3795.674476884001	2
0	15734	3796.868307329582	1
0	15741	3797.47687187441	0
0	15749	3798.623885135535	1
0	15750	3799.629597518959	0
0	15761	3800.720890820722	1
0	15767	3802.327089422868	0
0	15858	3820.069153127899	1
0	15859	3820.161949145535	0
0	15892	3826.873400692885	1
0	15894	3827.449378992078	0
0	15917	3831.531105064743	1
0	15918	3832.990385303183	0
0	15932	3834.896775678586	1
0	15933	3835.31367969818	0
0	15972	3839.122524768613	1
0	15974	3839.316101470794	2
0	15975	3839.611694469742	1
0	15982	3840.394325903124	2
0	15985	3842.87004023897	1
0	15990	3843.838408487631	0
0	16023	3850.008464783729	1
0	16024	3850.421664690648	0
0	16033	3851.222414840851	1
0	16035	3851.367484031448	2
0	16036	3854.104613193299	1
0	16042	3855.903188703531	0
0	16071	3863.800568038323	1
0	16072	3866.636521358833	0
0	16097	3869.878507237681	1
0	16100	3871.187610957902	0
0	16112	3873.070733266259	1
0	16116	3874.722858501636	2
0	16119	3877.021667529127	3
0	16120	3877.257180858835	2
0	16125	3877.742167195433	1
0	16132	3878.330175502511	0
0	16140	3878.901711611067	1
0	16142	3879.477053980085	0
0	16153	3879.88062653724	1
0	16156	3880.92649946504	2
0	16157	3882.039594278681	1
0	16162	3883.771025693051	0
0	16184	3886.08321745196	1
0	16185	3886.677707674328	0
0	16219	3896.391588816808	1
0	16220	3897.528349527828	0
0	16229	3900.721816734271	1
0	16230	3901.331161620801	0
0	16266	3910.750038357252	1
0	16267	3911.572317576941	0
0	16297	3921.229919543468	1
0	16298	3921.902030580357	0
0	16309	3923.323773467212	1
0	16310	3924.709594224384	0
0	16322	3927.430210898059	1
0	16324	3927.444747068958	2
0	16326	3927.829762177035	3
0	16330	3931.036182610211	4
0	16332	3932.177585401511	5
0	16333	3932.181200747426	4
0	16340	3932.535663863232	5
0	16341	3932.732405367703	4
0	16346	3933.270293316771	3
0	16358	3934.800693438128	2
0	16364	3935.019069768338	1
0	16371	3935.803692350621	2
0	16372	3936.360788539783	1
0	16378	3936.832058811216	0
0	16390	3940.461160175174	1
0	16391	3940.486212915174	0
0	16410	3944.234585478391	1
0	16411	3944.312434256749	0
0	16417	3944.498205991414	1
0	16418	3944.672709349999	0
0	16439	3947.245115007775	1
0	16441	3948.083880352427	0
0	16464	3953.914601374854	1
0	16465	3953.961812721852	0
0	16515	3961.865460871262	1
0	16518	3962.809615482561	2
0	16519	3964.112939364527	1
0	16524	3964.28895198662	0
0	16587	3984.312663268834	1
0	16589	3985.469760947029	0
0	16646	3994.532518478355	1
0	16648	3994.78738510611	2
0	16650	3995.754237475192	3
0	16651	3996.48424281902	2
0	16660	3998.170847262788	1
0	16665	3998.276107785053	0
0	16707	4004.68754900636	1
0	16708	4004.843798631927	0
0	16719	4006.302228708843	1
0	16721	4006.576864352677	0
0	16734	4007.835739667509	1
0	16738	4009.696650102369	0
0	16771	4017.622352828439	1
0	16773	4018.922350136309	2
0	16774	4020.187316375064	1
0	16780	4021.24772873073	0
0	16786	4021.321974526635	1
0	16787	4021.509608054765	0
0	16895	4051.315284271672	1
0	16897	4052.516770970922	2
0	16900	4053.423835245167	1
0	16906	4054.809388480212	0
0	16912	4054.81419295716	1
0	16913	4055.162273451964	0
0	16926	4057.285090138185	1
0	16928	4058.401427362003	0
0	16947	4060.777835292417	1
0	16948	4061.189036396466	0
0	16998	4067.229267413715	1
0	16999	4067.243303438095	0
0	17012	4068.04411161345	1
0	17013	4068.056964657676	0
0	17029	4074.880666011449	1
0	17030	4075.329534507749	0
0	17050	4081.264330694271	1
0	17054	4082.125352573531	2
0	17057	4082.630006401053	1
0	17062	4083.2025664928	0
0	17068	4083.668652587691	1
0	17069	4083.957133246633	0
0	17080	4084.835384712722	1
0	17087	4086.336829426779	2
0	17088	4088.004797644597	1
0	17093	4088.85647607368	0
0	17137	4098.452310459984	1
0	17139	4099.530663454085	0
0	17161	4105.707498132918	1
0	17163	4106.931601156907	0
0	17196	4120.487354426211	1
0	17197	4121.543889930026	0
0	17242	4144.233363343295	1
0	17244	4145.761640082885	0
0	17259	4151.598718574659	1
0	17266	4152.863346161796	2
0	17267	4152.886175236921	1
0	17274	4153.469437797396	0
0	17280	4153.793536839311	1
0	17281	4154.408536510353	0
0	17294	4155.425414454385	1
0	17295	4156.163255900975	0
0	17314	4158.216553442588	1
0	17316	4158.488849948176	0
0	17342	4162.197207621399	1
0	17344	4162.430289074623	2
0	17348	4164.805390689874	3
0	17349	4166.62371582497	2
0	17354	4166.915902269786	1
0	17359	4167.057033386815	0
0	17395	4177.295787451607	1
0	17397	4177.3822102592	2
0	17401	4179.371071780985	3
0	17402	4180.129447619143	2
0	17407	4180.352799499399	1
0	17412	4180.831322116643	0
0	17461	4189.730473439203	1
0	17465	4190.559399951748	0
0	17480	4192.785113106419	1
0	17481	4193.248732536405	0
0	17490	4194.311320675641	1
0	17491	4194.796730635299	0
0	17497	4195.697986375175	1
0	17498	4195.864224980865	0
0	17513	4200.994816970518	1
0	17514	4201.163526824228	0
0	17526	4202.247916660319	1
0	17529	4203.067765546626	2
0	17530	4203.213403719115	1
0	17537	4204.523896134643	0
0	17543	4204.625692409828	1
0	17544	4204.644121970784	0
0	17575	4217.142994656862	1
0	17576	4218.224538374006	0
0	17609	4234.684342892385	1
0	17611	4235.926043739603	0
0	17663	4249.535824462865	1
0	17665	4249.634651378027	2
0	17666	4250.379218963286	1
0	17671	4251.302004296856	0
0	17732	4263.726498875094	1
0	17733	4264.367411057631	0
0	17740	4264.919979531493	1
0	17742	4265.070109661292	2
0	17743	4265.546837681208	1
0	17749	4267.174879057242	0
0	17756	4268.433574306815	1
0	17757	4268.67501673803	0
0	17766	4269.613104528624	1
0	17768	4270.910824915071	0
0	17776	4271.320877619897	1
0	17780	4273.215552638624	0
0	17793	4274.442437549041	1
0	17795	4276.215720212577	2
0	17796	4276.558678849485	1
0	17802	4278.318001978581	0
0	17816	4282.308223304084	1
0	17817	4284.23061559555	0
0	17823	4284.330254539088	1
0	17824	4284.673147012701	0
0	17835	4285.291898252792	1
0	17838	4285.872581882717	2
0	17840	4286.550686646594	1
0	17846	4287.52989277202	0
0	17852	4287.980018170161	1
0	17853	4288.076743966385	0
0	17885	4294.079775475913	1
0	17886	4294.6097075048	0
0	17892	4295.3733244491	1
0	17893	4295.65086090121	0
0	17909	4300.249573705423	1
0	17913	4300.952073270141	2
0	17915	4301.973009773992	1
0	17922	4302.715669432752	0
0	18004	4324.749293512375	1
0	18012	4329.822712681396	2
0	18017	4332.508561600523	3
0	18019	4333.804707998142	4
0	18020	4336.306877113628	3
0	18025	4336.963439519743	2
0	18035	4338.339218567956	3
0	18037	4339.061125970917	2
0	18042	4339.103620588614	1
0	18050	4340.47646560491	0
0	18089	4350.624849246578	1
0	18091	4351.680015879712	2
0	18092	4354.856840560317	1
0	18097	4354.995638111607	0
0	18103	4355.677508147679	1
0	18104	4355.891275166737	0
0	18126	4361.985585334259	1
0	18131	4363.522926004609	2
0	18136	4365.172273424005	3
0	18142	4365.700723480041	4
0	18144	4366.212116221489	5
0	18147	4367.510040218601	4
0	18152	4367.693982479737	3
0	18164	4369.471358305721	2
0	18170	4370.172866637483	3
0	18171	4371.026521197074	2
0	18177	4371.160000078301	1
0	18182	4371.711247735982	0
0	18195	4372.862825082105	1
0	18196	4373.187382989462	0
0	18200	4373.780000305332	1
0	18205	4375.773213253067	0
0	18217	4376.837143846636	1
0	18219	4377.540872582641	2
0	18222	4380.382931099329	1
0	18227	4380.909224816843	0
0	18248	4387.667824020945	1
0	18249	4390.118188494143	0
0	18260	4390.42625240892	1
0	18261	4391.290393425852	0
0	18269	4391.956560210543	1
0	18271	4392.029198047345	2
0	18272	4392.087296655919	1
0	18277	4392.094547814057	0
0	18285	4392.632871679215	1
0	18286	4392.857119866035	0
0	18306	4397.18941322434	1
0	18308	4397.563343148504	0
0	18320	4399.409172933438	1
0	18323	4399.623983146382	2
0	18325	4400.299282243013	1
0	18330	4400.664662194071	0
0	18354	4405.931887455329	1
0	18356	4405.97629078282	2
0	18361	4407.812592035107	1
0	18366	4408.087749337894	0
0	18375	4408.942931581084	1
0	18379	4410.047593973177	2
0	18383	4410.675523700797	3
0	18385	4411.004258174628	2
0	18393	4411.595274220443	3
0	18394	4411.723211000247	2
0	18400	4412.282416369796	1
0	18405	4413.397915176884	0
0	18470	4427.18927845773	1
0	18473	4427.347873694975	2
0	18475	4429.289509987325	3
0	18476	4429.627218422814	2
0	18481	4429.75828466908	1
0	18488	4430.348125386008	2
0	18490	4432.733147755049	1
0	18499	4434.616706763998	2
0	18500	4436.15620483988	1
0	18505	4437.008607373099	0
0	18514	4437.800020157202	1
0	18515	4438.077254897996	0
0	18521	4438.335560327831	1
0	18522	4439.86260133582	0
0	18528	4441.580037831602	1
0	18529	4442.291061495763	0
0	18560	4446.141555950536	1
0	18564	4446.800347787307	2
0	18566	4447.137229780405	3
0	18567	4447.889824021019	2
0	18573	4449.18330842919	1
0	18579	4449.898748151278	2
0	18580	4449.916237164562	1
0	18587	4451.009874095168	0
0	18624	4465.855860958645	1
0	18628	4467.496088853688	0
0	18669	4473.862888852526	1
0	18670	4474.000623054157	0
0	18684	4478.548876450075	1
0	18685	4480.544764089717	0
0	18791	4515.22550524553	1
0	18794	4516.833025490929	0
0	18801	4517.677561858635	1
0	18803	4518.440479153188	2
0	18804	4518.642035431593	1
0	18811	4519.222095291974	2
0	18812	4519.243605514909	1
0	18820	4521.337008166475	2
0	18821	4521.341025550786	1
0	18827	4522.893323989032	0
0	18858	4531.470953907548	1
0	18859	4531.751121651354	0
0	18878	4534.067988356877	1
0	18880	4534.223225900248	2
0	18881	4534.625641211259	1
0	18887	4535.156075110221	2
0	18890	4535.999890930516	3
0	18891	4536.143389589687	2
0	18896	4536.618787947698	1
0	18902	4536.629872103064	2
0	18903	4536.829815532404	1
0	18907	4537.34857891791	2
0	18912	4538.606525983731	3
0	18914	4539.519712184223	2
0	18923	4541.253834651689	1
0	18930	4542.474011144107	0
0	18937	4542.868196986349	1
0	18939	4544.044772353924	2
0	18941	4545.734810299363	3
0	18943	4546.391371724291	4
0	18944	4548.622664883929	3
0	18949	4549.536385507023	2
0	18956	4550.418471352385	3
0	18958	4551.352969677016	2
0	18965	4552.287979138996	1
0	18974	4552.606782380817	0
0	18988	4554.783663939824	1
0	18989	4555.314291920003	0
0	18997	4557.324919286233	1
0	18998	4558.179079399421	0
0	19032	4561.425721218522	1
0	19035	4562.041415199863	0
0	19100	4593.895143212431	1
0	19101	4594.341824056929	0
0	19159	4606.896569832191	1
0	19160	4607.949353557068	0
0	19188	4612.944589765172	1
0	19190	4613.055209978541	2
0	19191	4614.616022762902	1
0	19197	4614.884521767233	2
0	19199	4615.562928246569	1
0	19206	4616.244600609194	2
0	19207	4616.524318956395	1
0	19217	4618.31072540304	0
0	19243	4627.999424487752	1
0	19246	4628.201466761145	2
0	19247	4628.537213645964	1
0	19252	4629.923030061283	0
0	19275	4635.424884603779	1
0	19276	4636.049552754788	0
0	19317	4643.568384622539	1
0	19322	4645.083332954055	2
0	19323	4645.282939888274	1
0	19328	4646.180027455062	0
0	19340	4647.680461676249	1
0	19343	4647.924883294404	0
0	19354	4648.774351849082	1
0	19356	4649.048837123833	0
0	19373	4650.995007255101	1
0	19377	4651.854001196632	2
0	19381	4653.806884738089	3
0	19383	4654.589693836575	4
0	19384	4654.820147547267	3
0	19391	4655.610911265132	2
0	19397	4655.810182117243	1
0	19402	4656.321827949138	0
0	19424	4658.83773220641	1
0	19425	4658.841798131834	0
0	19431	4658.993435263447	1
0	19432	4659.172000885776	0
0	19465	4664.279397155271	1
0	19466	4665.634141041748	0
0	19488	4671.375917451651	1
0	19489	4672.696006000714	0
0	19495	4673.113942361407	1
0	19496	4673.467082955306	0
0	19525	4677.850891049935	1
0	19527	4678.81866788962	2
0	19531	4682.008390902751	3
0	19533	4683.616851405434	4
0	19537	4690.177957931535	3
0	19544	4691.538108419939	2
0	19549	4691.851437306703	1
0	19556	4696.574376600782	0
0	19584	4702.575183974791	1
0	19587	4702.998945743228	2
0	19592	4708.074969970759	3
0	19594	4708.529589922028	4
0	19595	4709.06247447508	3
0	19601	4710.383666340802	2
0	19607	4713.131567654989	1
0	19614	4713.929919586747	0
0	19704	4742.323613877178	1
0	19707	4743.841288841034	2
0	19708	4744.301718769364	1
0	19716	4745.457212042944	0
0	19735	4747.781679741952	1
0	19737	4748.010033758642	2
0	19738	4748.062498969474	1
0	19743	4750.843200497095	0
0	19807	4767.798451074406	1
0	19810	4768.664264603202	2
0	19811	4769.411333551232	1
0	19817	4769.447416679925	2
0	19819	4769.697436265441	3
0	19821	4770.172976639602	4
0	19822	4770.327300159794	3
0	19827	4770.410048675493	2
0	19833	4772.825732604188	3
0	19838	4774.229088124991	4
0	19839	4774.757787565788	3
0	19844	4776.070497330932	2
0	19849	4776.446361364607	1
0	19855	4777.322449157684	2
0	19858	4777.596481927452	3
0	19860	4777.614744650268	4
0	19863	4779.347286758588	5
0	19865	4779.605542648655	6
0	19868	4781.124803571642	7
0	19869	4783.607551293375	6
0	19874	4784.084648737953	5
0	19880	4784.742858936883	6
0	19884	4785.430758586391	5
0	19889	4785.676644522516	4
0	19895	4785.805967156724	5
0	19899	4786.656717672057	6
0	19905	4787.921359852268	7
0	19906	4789.144845324029	6
0	19912	4789.226230066352	7
0	19916	4790.685497361304	8
0	19917	4791.043289277523	7
0	19922	4791.315762419244	6
0	19933	4793.801555085435	5
0	19938	4795.245199628666	4
0	19943	4796.421365367092	3
0	19949	4797.143533748575	2
0	19956	4797.939801289368	1
0	19963	4799.387468840205	0
0	19981	4803.998684655082	1
0	19982	4804.272568002604	0
0	19988	4804.405445595789	1
0	19990	4805.149815359824	0
0	19999	4807.093101959111	1
0	20002	4808.507535476928	0
0	20025	4811.161803617328	1
0	20027	4812.703546094304	0
0	20049	4820.941794591084	1
0	20050	4821.1671907021	0
0	20079	4829.48029926844	1
0	20082	4831.349217735389	0
0	20088	4831.962397336757	1
0	20091	4832.924596517371	0
0	20107	4834.897366152116	1
0	20108	4834.959942765104	0
0	20130	4838.61622180464	1
0	20133	4840.378399922108	0
0	20147	4842.655255079124	1
0	20149	4843.672399092608	0
0	20155	4844.043350057577	1
0	20156	4844.405736086671	0
0	20206	4857.13725762025	1
0	20208	4857.742117754519	2
0	20210	4859.717725174289	3
0	20213	4860.636002944384	2
0	20218	4860.975205894236	1
0	20223	4861.133550651869	0
0	20257	4868.96823202121	1
0	20260	4870.22373956975	0
0	20319	4890.36119457376	1
0	20321	4891.749873820177	2
0	20325	4892.456065882529	3
0	20327	4893.308578539421	2
0	20335	4893.526533489322	3
0	20339	4894.262462706143	4
0	20340	4894.50184546752	3
0	20345	4894.736964357424	2
0	20353	4896.293306254323	3
0	20355	4896.397079757048	4
0	20356	4896.614207046465	3
0	20362	4898.141988283456	2
0	20368	4898.508721186643	3
0	20371	4898.957241033038	4
0	20372	4899.879610930927	3
0	20379	4901.204147021311	2
0	20388	4902.825261088846	1
0	20394	4903.631299100228	2
0	20399	4905.003644374538	1
0	20405	4905.637954109346	2
0	20407	4905.693866750654	3
0	20409	4907.223686927392	2
0	20415	4907.557243606669	1
0	20421	4908.185391323942	0
0	20427	4908.72617780785	1
0	20428	4908.968798783137	0
0	20459	4913.483341079296	1
0	20462	4913.992599623099	0
0	20490	4918.795052403465	1
0	20491	4919.220128566632	0
0	20498	4920.592780428208	1
0	20499	4920.984925939066	0
0	20510	4921.685391119864	1
0	20512	4921.773920159126	0
0	20519	4922.378557179131	1
0	20528	4924.758146217434	0
0	20540	4925.051361574098	1
0	20541	4925.993347348459	0
0	20547	4926.240185164647	1
0	20550	4928.600497922127	0
0	20562	4929.540414271513	1
0	20564	4930.34497298656	2
0	20566	4930.576409623906	3
0	20567	4931.114064054223	2
0	20572	4931.464432368829	1
0	20578	4932.098414579107	2
0	20582	4932.897083668006	3
0	20583	4932.931598582403	2
0	20592	4935.483106400449	1
0	20598	4937.680431166836	0
0	20613	4940.825779309314	1
0	20616	4941.211557255774	2
0	20620	4942.045541168374	1
0	20626	4944.729098262507	0
0	20647	4948.840503190856	1
0	20648	4949.824055708798	0
0	20675	4956.175786617201	1
0	20679	4956.669360037184	0
0	20693	4957.800850582601	1
0	20700	4959.571320096763	0
0	20707	4960.197307975489	1
0	20709	4960.876685133999	0
0	20737	4964.376753693982	1
0	20744	4968.583181180675	2
0	20745	4968.862891303135	1
0	20750	4968.867273820513	0
0	20757	4969.208129860429	1
0	20758	4969.533676830188	0
0	20770	4971.152100301488	1
0	20772	4972.185511622308	2
0	20773	4972.192089400354	1
0	20778	4972.428565628964	0
0	20792	4973.07856902009	1
0	20798	4974.906624354669	0
0	20822	4980.687430345699	1
0	20829	4982.697063727651	2
0	20830	4983.228523127043	1
0	20837	4983.464102592314	2
0	20838	4985.876128949717	1
0	20843	4986.070641173977	0
0	20861	4987.773836738564	1
0	20862	4987.946628966266	0
0	20915	5002.24507271717	1
0	20918	5005.788507228564	0
0	20925	5006.260869144455	1
0	20927	5006.699155251719	0
0	20943	5010.419242106651	1
0	20945	5010.629559657333	2
0	20951	5012.218915482766	1
0	20956	5012.467565897745	0
0	20964	5012.707535961564	1
0	20970	5013.697880986737	0
0	20982	5014.446761645743	1
0	20983	5014.635608618091	0
0	21000	5015.74717594681	1
0	21001	5017.304353703686	0
0	21024	5022.540869875393	1
0	21029	5023.890982560474	2
0	21031	5025.119720953271	3
0	21032	5025.127295593917	2
0	21038	5025.278028412541	1
0	21044	5025.99842564388	0
0	21117	5044.584711274925	1
0	21119	5047.039648911845	0
0	21225	5080.461333705619	1
0	21229	5081.765563634286	2
0	21230	5082.183299764357	1
0	21235	5082.328314032787	0
0	21250	5084.038381677654	1
0	21251	5085.112241261234	0
0	21259	5086.497834280638	1
0	21260	5086.55132764799	0
0	21316	5107.703251202385	1
0	21321	5110.034207466228	0
0	21369	5129.910536323941	1
0	21370	5130.364247235044	0
0	21386	5135.118977217961	1
0	21388	5135.250886212576	2
0	21389	5135.840195634328	1
0	21396	5136.387037605672	2
0	21400	5138.497590154264	3
0	21403	5140.576108385729	2
0	21414	5142.459297248329	1
0	21419	5143.261624452089	0
0	21443	5147.19741607544	1
0	21444	5147.441230132149	0
0	21505	5164.884753641736	1
0	21507	5167.471678966786	0
0	21514	5171.203844447258	1
0	21515	5171.856079862869	0
0	21576	5192.553453418198	1
0	21577	5193.307184790368	0
0	21585	5194.574733413525	1
0	21588	5195.967588548126	2
0	21589	5196.046808131772	1
0	21597	5196.192927275876	0
0	21608	5197.629057246132	1
0	21609	5197.779731893192	0
0	21644	5203.99314573976	1
0	21646	5204.438208503975	0
0	21661	5206.390595226775	1
0	21666	5207.919236939929	2
0	21667	5208.157245326978	1
0	21674	5209.208819740027	2
0	21676	5209.37803815992	3
0	21678	5209.467188187844	4
0	21679	5209.548862460855	3
0	21686	5211.579226733021	2
0	21693	5213.76901042788	3
0	21695	5214.394143630732	2
0	21701	5214.930533983945	3
0	21703	5214.981500783099	4
0	21704	5214.996719929746	3
0	21710	5216.672571056506	4
0	21712	5216.722561508682	5
0	21713	5217.927399498709	4
0	21719	5217.981857887921	5
0	21721	5218.285369587771	6
0	21724	5219.446953434239	7
0	21726	5220.100517364477	6
0	21731	5220.22866594582	5
0	21736	5221.014923075663	4
0	21742	5222.109226216797	3
0	21748	5223.770069353708	4
0	21751	5223.897706589729	5
0	21752	5223.966435923256	4
0	21757	5224.507961946397	3
0	21762	5226.022444083364	2
0	21768	5231.436491429367	3
0	21772	5232.193614824098	4
0	21776	5234.376273128251	5
0	21778	5234.469973325903	6
0	21779	5235.033550836983	5
0	21786	5236.660587085209	4
0	21794	5242.030386835078	3
0	21799	5242.20451865189	2
0	21807	5243.410000325184	3
0	21811	5244.674651037041	4
0	21812	5244.936965384	3
0	21818	5245.296151752966	2
0	21823	5245.786501420331	1
0	21830	5246.109729804536	2
0	21831	5247.014992330173	1
0	21836	5248.028535382701	0
0	21870	5253.595493015817	1
0	21871	5253.973509285778	0
0	21877	5254.915329614919	1
0	21880	5255.359863076314	0
0	21886	5256.260931885593	1
0	21887	5256.489452632448	0
0	21895	5257.724466436244	1
0	21896	5257.835405888072	0
0	21912	5259.446059789629	1
0	21920	5261.910247927452	2
0	21922	5262.558533310443	3
0	21925	5262.834037012879	4
0	21927	5263.110409227839	5
0	21929	5264.773966099413	4
0	21934	5264.881729123621	3
0	21941	5265.244963988635	4
0	21943	5265.406693629022	5
0	21945	5267.686330420434	4
0	21950	5268.245898290354	3
0	21955	5268.965386258906	2
0	21961	5270.205673661289	3
0	21973	5272.75484038751	2
0	21980	5273.888891984632	1
0	21985	5274.059193691677	0
0	21997	5276.012210272485	1
0	21998	5277.255361643957	0
0	22005	5280.487024208055	1
0	22007	5281.354649434536	0
0	22014	5283.026192826194	1
0	22017	5283.951822591662	0
0	22026	5285.317913924791	1
0	22028	5287.18343661667	2
0	22029	5287.639827994635	1
0	22034	5287.896100779015	0
0	22045	5290.342917193852	1
0	22047	5291.085891449499	2
0	22050	5291.577310170579	1
0	22057	5294.751357524058	0
0	22079	5297.421257006053	1
0	22080	5297.516323063935	0
0	22119	5304.004365583085	1
0	22122	5305.048473582573	0
0	22141	5311.301077443416	1
0	22148	5316.83327233096	0
0	22155	5317.250270558885	1
0	22156	5320.589839045066	0
0	22168	5322.645650438147	1
0	22169	5323.033289344296	0
0	22176	5326.97063967918	1
0	22178	5327.155383192718	2
0	22179	5327.449435722859	1
0	22187	5328.999250219844	0
0	22193	5329.358409060739	1
0	22197	5333.703026277348	2
0	22198	5333.796230807167	1
0	22205	5334.606265791086	2
0	22206	5334.670823376807	1
0	22211	5334.859477052301	0
0	22217	5334.923698965475	1
0	22218	5335.188039575863	0
0	22226	5338.040870263139	1
0	22227	5338.534913584753	0
0	22234	5339.603194388437	1
0	22235	5340.239841234142	0
0	22259	5345.889848028861	1
0	22261	5346.829065539175	0
0	22289	5349.120500930579	1
0	22292	5350.706265136364	0
0	22298	5351.014676402864	1
0	22300	5351.821588172725	0
0	22313	5353.931787966058	1
0	22314	5353.943923140719	0
0	22326	5354.899846375391	1
0	22330	5355.489661277507	2
0	22331	5355.898858557935	1
0	22336	5356.535034071598	0
0	22355	5359.376080875712	1
0	22356	5359.516259563984	0
0	22382	5363.479264444474	1
0	22385	5363.991584752832	0
0	22394	5364.689004846654	1
0	22396	5364.943330064776	2
0	22403	5368.87881084561	3
0	22404	5369.536919490072	2
0	22409	5369.570917031888	1
0	22414	5369.625025556852	0
0	22435	5371.665058190101	1
0	22437	5372.013666214639	2
0	22438	5372.486062481556	1
0	22444	5372.671763414987	2
0	22451	5374.068512938613	1
0	22458	5376.909415937363	0
0	22462	5377.344149884801	1
0	22464	5377.719103211035	2
0	22472	5380.91974130641	3
0	22475	5382.545899579902	2
0	22481	5384.050306644702	3
0	22484	5385.964544043803	4
0	22488	5386.988158064031	3
0	22493	5387.258522405221	2
0	22499	5388.17161376913	1
0	22505	5388.535134675119	2
0	22512	5391.714454251745	1
0	22517	5392.368707219364	0
0	22524	5395.191689084971	1
0	22529	5396.468694369906	0
0	22545	5397.144446963409	1
0	22547	5399.387552551147	2
0	22549	5399.496294121842	3
0	22551	5400.710338347195	2
0	22556	5401.518602695255	1
0	22561	5403.8116816849	0
0	22579	5411.279154596633	1
0	22580	5411.307670647631	0
0	22586	5411.733458634333	1
0	22591	5412.426830227856	0
0	22617	5417.447556941667	1
0	22621	5419.492099381631	0
0	22634	5422.087602558716	1
0	22635	5422.286801608553	0
0	22656	5426.117187151245	1
0	22657	5426.192589773963	0
0	22663	5426.504711394654	1
0	22664	5427.034293130594	0
0	22709	5434.526335993944	1
0	22712	5436.239687479592	0
0	22722	5439.407497223409	1
0	22724	5440.077475750057	2
0	22726	5441.659173578289	3
0	22728	5443.708939478186	4
0	22730	5443.774779360146	5
0	22737	5449.163792110505	4
0	22742	5449.389856044939	3
0	22748	5449.813700959602	2
0	22757	5452.107379744005	3
0	22758	5452.189100252024	2
0	22765	5453.460947244156	1
0	22770	5453.965236800648	0
0	22776	5454.384994961754	1
0	22777	5454.500935032544	0
0	22785	5456.645097675274	1
0	22789	5457.710468535388	0
0	22801	5460.607082428659	1
0	22802	5460.686066954189	0
0	22812	5463.556445207311	1
0	22819	5466.824789227349	0
0	22829	5467.311700339765	1
0	22832	5469.334126695544	0
0	22838	5469.348590555932	1
0	22842	5471.400362966085	0
0	22856	5473.242009289108	1
0	22857	5475.606237932065	0
0	22868	5476.333843874166	1
0	22869	5476.808878910442	0
0	22879	5478.946190461497	1
0	22883	5481.834127381493	0
0	22895	5482.631325239514	1
0	22896	5483.294112179094	0
0	22915	5484.806591325761	1
0	22919	5486.256841674746	0
0	22926	5486.559331177238	1
0	22928	5488.513617750002	2
0	22929	5489.14890297671	1
0	22937	5490.328386623611	2
0	22939	5491.483195501094	3
0	22940	5492.288326405997	2
0	22946	5493.475296302679	1
0	22952	5494.141601057564	0
0	22959	5496.924958934482	1
0	22962	5497.857657801255	2
0	22963	5497.889562947729	1
0	22968	5497.949291171365	0
0	23004	5502.026654989912	1
0	23006	5502.057909525593	2
0	23007	5502.154986573625	1
0	23012	5502.585653346868	0
0	23043	5515.941909340146	1
0	23044	5515.971197510078	0
0	23238	5576.126850785814	1
0	23240	5576.666239259425	2
0	23242	5577.870228989414	3
0	23243	5578.010367582954	2
0	23249	5578.680560466785	1
0	23255	5579.546933683115	0
0	23265	5582.001006426862	1
0	23270	5582.621615027753	2
0	23271	5583.401263236497	1
0	23276	5583.992404688765	0
0	23291	5586.844906349528	1
0	23292	5587.023440186761	0
0	23299	5587.600211266585	1
0	23300	5587.870268477736	0
0	23314	5590.770291963896	1
0	23316	5591.914376226602	0
0	23342	5596.829312080644	1
0	23344	5596.948025973152	2
0	23345	5598.322853872611	1
0	23352	5598.769804058375	2
0	23354	5600.495513285772	3
0	23355	5601.294311099132	2
0	23362	5602.571482331859	1
0	23369	5603.171496825604	2
0	23373	5605.840429484483	1
0	23379	5607.491112876465	0
0	23386	5607.714462686223	1
0	23387	5608.444360217479	0
0	23393	5609.007079823654	1
0	23394	5609.242547159052	0
0	23445	5620.093351282882	1
0	23446	5620.167956113984	0
0	23521	5640.679126486266	1
0	23522	5640.75331441239	0
0	23551	5650.29996782158	1
0	23552	5652.291690929377	0
0	23613	5664.807714981437	1
0	23615	5665.438033289768	2
0	23616	5665.70982398981	1
0	23621	5666.385732040267	0
0	23646	5671.273538170725	1
0	23647	5671.740246534696	0
0	23670	5679.260689085535	1
0	23675	5681.574321879426	2
0	23676	5682.282182591994	1
0	23686	5686.687339803063	0
0	23704	5687.630068720628	1
0	23705	5687.70998976779	0
0	23718	5690.03294672106	1
0	23719	5690.135785371419	0
0	23740	5693.243556980223	1
0	23741	5693.892554024111	0
0	23753	5695.07745850369	1
0	23754	5695.10047579331	0
0	23760	5695.494130071908	1
0	23762	5696.094547061407	0
0	23807	5708.736739778576	1
0	23809	5708.827964895401	2
0	23810	5710.436563182141	1
0	23815	5710.576541800526	0
0	23834	5715.492792219917	1
0	23836	5715.866157013757	2
0	23837	5716.070993149458	1
0	23842	5716.625394397818	0
0	23862	5718.216783382964	1
0	23867	5720.150128884697	2
0	23869	5720.677576900702	3
0	23870	5720.92976598039	2
0	23875	5721.033164875768	1
0	23880	5721.11714482188	0
0	23899	5724.235343385955	1
0	23901	5725.503444879927	2
0	23902	5725.748898868598	1
0	23909	5727.28366215251	2
0	23910	5728.409592750545	1
0	23915	5729.564576527782	0
0	23953	5734.183882041008	1
0	23954	5735.725588139022	0
0	23999	5741.038061123666	1
0	24001	5741.376337869552	0
0	24014	5748.546691144837	1
0	24015	5749.090445069648	0
0	24019	5749.543953406494	1
0	24022	5750.5911000503	0
0	24037	5752.17124224488	1
0	24038	5752.538826505926	0
0	24056	5757.994539265595	1
0	24058	5759.808690341578	0
0	24074	5760.79402996091	1
0	24078	5761.747433930398	0
0	24116	5767.988803542447	1
0	24117	5768.642763411203	0
0	24123	5768.68814611619	1
0	24126	5769.275008533938	0
0	24138	5769.935392120508	1
0	24140	5771.0280603178	2
0	24141	5771.109840510045	1
0	24149	5771.515997580567	2
0	24150	5771.835757421526	1
0	24158	5773.502428075311	0
0	24188	5781.564015216	1
0	24191	5783.511466146859	0
0	24202	5784.95867680408	1
0	24203	5785.744915760891	0
0	24212	5786.640602823315	1
0	24215	5787.364708915469	0
0	24221	5788.505357959831	1
0	24222	5789.437170737378	0
0	24243	5793.549242120509	1
0	24244	5793.988364448659	0
0	24252	5798.488146616187	1
0	24255	5799.663956189736	2
0	24257	5800.279628875793	1
0	24264	5801.30836789546	0
0	24284	5805.10391268407	1
0	24286	5805.701540477394	0
0	24292	5806.108622530794	1
0	24293	5807.369010485655	0
0	24336	5825.074202992743	1
0	24339	5827.601048126557	0
0	24345	5827.66251710138	1
0	24346	5827.721973819965	0
0	24399	5840.667665572069	1
0	24402	5842.764757774656	0
0	24410	5843.408163575561	1
0	24411	5844.082463529547	0
0	24432	5845.966295529682	1
0	24438	5849.100681508104	2
0	24439	5849.559281532734	1
0	24445	5850.798275370023	0
0	24478	5864.400229782287	1
0	24479	5864.589981002954	0
0	24525	5881.539123493618	1
0	24526	5881.67707467095	0
0	24595	5911.330335164292	1
0	24598	5913.177996726543	0
0	24604	5913.694612171648	1
0	24605	5913.974637679608	0
0	24619	5916.694044005358	1
0	24623	5917.761282813348	2
[...]
5	115004	27472.414397364457	0.243742222059
5	115033	27479.865251260826	4.103540071122
5	115043	27481.136664511696	2.565159892996
5	115065	27483.17243532793	1.990508458066
5	115077	27489.132686300512	1.00948914085
5	115089	27490.603950825505	1.091635421683
5	115106	27495.161145515072	2.764965501759
5	115116	27495.439601907851	1.952090155624
5	115140	27499.043115834264	0.828019691973
5	115146	27501.623261974831	3.387672192715
5	115167	27509.974053777639	8.165660298421
5	115228	27524.018378728003	21.709797138756
5	115233	27524.588990045108	19.602741015108
5	115239	27527.83252939194	20.707268884608
5	115248	27529.091192303765	10.745542522305
5	115284	27537.505454813148	0.513383317011
5	115293	27538.282619745223	0.912831316594
5	115300	27539.405553714772	1.502864000576
5	115315	27541.748863977889	1.712783256561
5	115327	27544.572044011738	1.767835192181
5	115347	27547.548588275367	3.240068808024
5	115356	27549.02394054528	3.44302988242
5	115413	27565.991828333092	4.457716056685
5	115450	27576.24904872652	0.331407392613
5	115461	27578.456473997272	1.094954960968
5	115480	27582.427029739563	3.357193216192
5	115490	27583.32951657787	3.331458325665
5	115529	27589.602607578157	0.274098152504
5	115539	27590.865896380932	0.803583678819
5	115561	27598.656628819675	3.302674888608
5	115601	27611.481003023184	2.496643244757
5	115612	27612.264691777548	1.284620918278
5	115620	27614.606629015032	3.512877567871
5	115670	27625.616142622922	0.498249585866
5	115690	27629.87807323584	4.572997682393
5	115714	27632.976958776153	5.472521147113
5	115730	27636.538611427547	0.001140819491
5	115740	27639.409804614813	2.421432593489
5	115747	27640.917602683238	3.240240089064
5	115760	27646.433796653996	6.953238814848
5	115784	27653.047862049224	11.289151292499
5	115789	27654.388681353927	10.952534829507
5	115796	27655.328139473632	9.817906142587
5	115812	27657.055451450046	10.424738537
5	115832	27659.882719743287	10.356761070148
5	115881	27667.230838102359	1.10289291486
5	115885	27667.647006190449	1.336479530407
5	115893	27669.701282652696	1.958386804575
5	115901	27675.254856413946	0.140331555418
5	115923	27685.557792256166	1.903309432563
5	115937	27688.237172841048	2.861309240518
5	115941	27688.306647103116	1.06613990077
5	115969	27695.249922157502	3.533927876392
5	115973	27695.594308507065	0.942046136532
5	116069	27716.936370557293	5.470510658225
5	116081	27717.152469918481	4.930700654223
5	116086	27720.09091959607	5.322470294289
5	116117	27729.475156968366	0.208715708634
5	116130	27735.232320936538	1.372141350295
5	116137	27736.494523052548	1.932161254269
5	116158	27740.880410979953	2.218640329052
5	116166	27744.078175152258	2.433888415087
5	116225	27759.087130360225	1.227596667656
5	116230	27759.882049644045	1.380799725792
5	116260	27769.737305607278	4.557755673202
5	116300	27777.138230514143	3.040377505507
5	116330	27783.551033980409	5.049068900065
5	116334	27784.30163149412	2.554328083999
5	116382	27801.202630652718	2.102170796987
5	116393	27802.115247740068	0.612070274432
5	116397	27802.633558778033	0.655765194935
5	116424	27812.347344522775	0.824398895162
5	116517	27836.755881713961	1.503488809147
5	116561	27844.524062422858	8.827372637357
5	116568	27845.092205152091	8.746531965557
5	116620	27859.081015969128	17.384799400379
5	116625	27859.611033696919	14.045699219131
5	116630	27859.99026784516	10.070790316637
5	116639	27862.438092405972	11.911783034367
5	116651	27863.640588928792	9.98706105681
5	116661	27865.162572170223	10.24448380006
5	116684	27878.752574741271	0.227894174593
5	116727	27888.717530165871	4.092258309229
5	116779	27903.59202521872	2.467688154597
5	116783	27904.611543578228	3.472876468308
5	116803	27912.217875739255	1.724762831173
5	116813	27915.351870300635	4.702573787802
5	116829	27916.694869374644	1.375489949549
5	116834	27917.256675322407	1.823766141336
5	116845	27918.994105310267	2.622963628399
5	116856	27920.679170850512	4.034467143988
5	116871	27924.769209603536	6.998183979773
5	116940	27938.514491392227	20.083201378333
5	116950	27939.333016781762	16.573070981571
5	116955	27940.423289875198	12.607846377482
5	116965	27943.797386051286	14.581385563215
5	116986	27950.098167899054	3.173397317162
5	117042	27960.399886763934	3.70878371155
5	117051	27961.376324351479	4.484156918399
5	117058	27962.715575846231	1.792444148536
5	117079	27966.823233389988	0.571528360763
5	117110	27974.081160572806	2.981728663187
5	117151	27982.154182559468	9.564784744644
5	117184	27990.9107428959	4.167674894749
5	117274	28017.637275520799	1.66565872498
5	117290	28020.819628095188	0.006134850733
5	117321	28026.823012567579	0.840222736703
5	117335	28031.995819490805	0.764054933514
5	117347	28035.109037782145	2.887849277326
5	117351	28035.807135938908	2.495660779274
5	117415	28047.792533343912	0.038209838034
5	117443	28059.573786972746	2.875672076586
5	117464	28067.218357066676	4.639674666785
5	117489	28072.611707219619	7.309913978804
5	117493	28074.033912537449	8.168227756496
5	117559	28085.386043538711	10.19634319683
5	117568	28085.906853971296	9.769582047191
5	117573	28086.024757988533	6.681196953773
5	117578	28086.195441837741	5.103514007371
5	117583	28086.878919643903	3.891402560926
5	117591	28092.617079016103	7.034169455457
5	117603	28094.418026306519	1.262337307004
5	117625	28099.63954061226	2.045120003151
5	117635	28100.875144311474	1.560987183073
5	117700	28110.6354067578	8.438214298311
5	117707	28112.916141045358	4.361961288377
5	117728	28118.302835663723	0.676302301325
5	117754	28123.380070377076	0.424121105409
5	117764	28124.171726454836	0.524372782478
5	117768	28124.40033182827	0.356161552396
5	117822	28137.032363740551	10.174299231338
5	117826	28137.391744588211	0.546617889299
5	117852	28143.729569879266	1.638921349831
5	117856	28144.210469517177	1.240610297305
5	117874	28150.517478693914	3.181524614341
5	117926	28164.987663937671	0.969187799738
5	117959	28172.02430511425	4.936517014407
5	117982	28175.348988980181	8.044246712174
5	117987	28175.472941215006	2.92854257056
5	117991	28176.906327831722	3.899678557008
5	118007	28181.190261438441	0.874740515801
5	118027	28188.623124262703	1.398497796429
5	118050	28191.694728797445	0.124842837211
5	118139	28217.746906291105	0.024956232448
5	118146	28217.889213741563	0.055838629938
5	118171	28225.316270016841	0.762476597611
5	118207	28231.712165101635	0.862857552113
5	118230	28236.337504565732	3.80502852104
5	118290	28253.139872544053	8.65278594046
5	118331	28258.83182127117	9.240908586991
5	118335	28259.007372091954	2.985852518888
5	118349	28268.855264237589	2.469269337522
5	118353	28269.055500537231	0.2013870829
5	118369	28275.244292185961	1.041848779108
5	118409	28289.672090952186	0.297767715083
5	118417	28290.660954076842	0.670188947641
5	118440	28298.247498216418	0.159509116686
5	118461	28308.500168753078	4.817947246444
5	118495	28313.044898928526	4.586404071021
5	118537	28321.889924668534	0.176176646494
5	118545	28324.82869360202	0.00473547006
5	118552	28325.606880182167	0.205095424168
5	118581	28337.098859091171	1.422707909018
5	118631	28351.790012364633	4.27878595649
5	118661	28356.754109067841	5.20740245326
5	118672	28358.65741612665	5.028105002891
5	118685	28360.462581314421	5.708978553934
5	118692	28362.917489194058	4.645287290202
5	118706	28364.477225648146	6.194159755818
5	118711	28364.900070966216	4.591973012506
5	118718	28365.980999062037	2.142257045462
5	118730	28367.468526386418	1.092088789772
5	118761	28374.548951356739	0.462258975407
5	118790	28385.440510887382	3.144776634962
5	118799	28390.545839888951	6.973296214113
5	118804	28394.588524867258	8.224799113958
5	118818	28398.975811486225	10.265125116854
5	118888	28418.277715444077	21.450394450136
5	118897	28420.25407558839	18.093664730574
5	118910	28421.170347749824	18.745626033336
5	118915	28422.601640033252	13.280012587372
5	118919	28422.82685880295	6.319097829471
5	118975	28429.698494808786	1.645349318557
5	118982	28431.25555818024	1.325276252208
5	118993	28433.32093881366	1.68356403472
5	119019	28443.512292822288	6.615370327027
5	119138	28467.805383445913	14.772337219116
5	119142	28469.860417451509	10.677838313798
5	119159	28472.667409705783	0.529789013774
5	119264	28506.771300610577	10.30022585342
5	119275	28508.206610339048	0.903502828304
5	119294	28514.22608293356	2.923941607541
5	119313	28519.003419101686	4.63645147411
5	119329	28521.078685023881	4.285062192012
5	119387	28531.871173486685	0.715732405529
5	119402	28538.885880975	0.90710269364
5	119410	28540.277397915081	0.694688587133
5	119420	28547.814908142348	5.807603117962
5	119441	28555.644191803769	0.332967134875
5	119464	28557.894172689077	0.264968476571
5	119472	28560.475070554613	0.390317151412
5	119487	28563.527865928274	0.179821572613
5	119525	28576.090135073163	2.43619101146
5	119535	28578.375617455805	4.388899212245
5	119547	28582.44689001322	7.966647155453
5	119551	28583.030082697283	5.931349197178
5	119563	28586.714455070367	2.049464552063
5	119579	28589.115970342788	1.460198450872
5	119601	28591.734228170605	3.849711017275
5	119606	28592.47136473924	3.806317274806
5	119611	28593.352855234089	4.111200523377
5	119618	28594.723056965426	4.916696145051
5	119627	28595.373839785971	5.486023511881
5	119649	28598.790389807903	2.089428560391
5	119668	28603.082985081385	5.316929037055
5	119684	28608.552810784607	7.045311329562
5	119702	28612.191048003108	2.512875379669
5	119717	28616.743341751995	2.087532037816
5	119732	28619.701027848926	2.84306874766
5	119765	28624.581999700152	4.542401211266
5	119783	28625.88234823146	5.359445287995
5	119843	28643.476213007302	1.321741629175
5	119850	28645.529384917721	1.19898338551
5	119884	28663.062500870869	7.937929535762
5	119892	28664.820604516681	4.80215786945
5	119915	28672.556882636429	6.011185161241
5	119931	28674.368349277923	5.259061304184
5	119939	28676.742766248767	5.760194974192
5	119948	28678.934500396432	7.09044730278
5	119958	28680.730559261674	4.072573869807
5	119979	28682.048481832646	4.129372250785
5	119997	28686.484167959921	0.923892861084
5	120042	28699.439097355542	1.85332642537
5	120049	28700.301370166481	0.145151421329
5	120069	28707.337692182593	2.45809742905
5	120115	28715.090926082896	1.126573413279
5	120129	28717.458677084944	0.546493570839
5	120139	28718.636967676111	1.33687745019
5	120151	28719.433922825059	1.716054011793
5	120163	28722.550283857683	3.718043531571
5	120175	28724.388024489925	3.789201492657
5	120225	28733.726494110645	3.895087225874
5	120249	28738.046471269381	7.985281334499
5	120253	28738.260034596764	6.472176402324
5	120323	28750.486736945109	9.245676706284
5	120399	28769.85776012463	25.328286538765
5	120416	28774.207186409284	18.530892360109
5	120426	28775.558907932586	17.326574454227
5	120440	28777.761906593695	0.186124056711
5	120511	28787.678355823146	2.640017784537
5	120544	28798.934693481742	1.344081107354
5	120556	28800.695300114835	0.036891902722
5	120606	28814.090330238136	8.347778807499
5	120613	28814.70295199057	7.350646067738
5	120631	28818.162242051236	10.195947142318
5	120647	28819.913098133681	3.937667505806
5	120661	28823.947130009701	6.328294627649
5	120674	28826.049176248759	6.216829895923
5	120678	28826.868680471997	1.843519436821
5	120690	28834.800478421856	6.108584317093
5	120711	28838.486296921765	8.446474831798
5	120720	28840.893813276894	3.358509989557
5	120727	28842.094707640168	3.20112081937
5	120748	28845.709289210911	0.947850943327
5	120761	28848.179182924967	2.557364983204
5	120774	28850.469006377084	4.778076030856
5	120789	28854.579414117266	4.817970678919
5	120807	28857.244324785895	6.382870176751
5	120817	28860.07338760304	6.805323040419
5	120826	28860.884156140288	6.636031286033
5	120854	28866.654948595147	9.05445424667
5	120864	28870.587565038721	11.131701113871
5	120884	28875.482645263203	3.350452724301
5	120910	28879.919191504262	4.178083676375
5	120915	28879.981741651607	1.179548065572
5	120922	28880.995588242185	1.917073309155
5	120935	28889.366492370774	9.087678405634
5	120976	28897.137135973954	11.934211095594
5	120981	28898.713158797198	1.698137795415
5	121016	28910.364138638068	3.516128205761
5	121036	28917.290163479534	4.720767625154
5	121040	28917.352796843729	2.551573460547
5	121082	28925.903367881029	3.923961180118
5	121087	28925.944842357633	0.90144977354
5	121091	28926.059251186633	0.502026212148
5	121107	28930.225364650712	4.126515327675
5	121111	28930.352681941578	1.559156401525
5	121138	28935.784610162463	3.873788384712
5	121142	28935.984876157923	1.232477935101
5	121173	28944.883660127863	1.842683711487
5	121242	28961.15438301575	6.803899220574
5	121251	28961.889673454718	2.851262423095
5	121269	28967.689094461014	0.763548107279
5	121282	28970.600734850635	2.042656566499
5	121292	28972.020372394749	2.878858239034
5	121323	28979.315965406036	4.160378136914
5	121334	28981.078187363475	3.998393177492
5	121341	28983.522876566975	4.236586789346
5	121358	28986.317324478317	1.828938623544
5	121387	28996.656502397481	5.824295048333
5	121400	28997.738376343355	6.470715025382
5	121418	29000.019102349937	4.871601233664
5	121454	29004.349876460452	2.779002121196
5	121493	29013.491902840811	0.584527050356
5	121500	29014.731225933974	0.059852071787
5	121507	29018.711404419061	1.709431683864
5	121590	29046.508902698438	10.738630065632
5	121605	29048.362121411491	7.508431067107
5	121634	29052.157516988277	6.720935475336
5	121641	29056.852128438045	5.97329496627
5	121645	29057.273276278945	0.67651824222
5	121692	29075.301281248849	2.677665134146
5	121772	29106.885991874607	0.898747727904
5	121782	29109.146782311124	0.49382024066
5	121793	29109.594406833065	0.441895344547
5	121806	29113.734724782865	1.119444754638
5	121858	29135.37286662233	2.996249068046
5	121905	29142.429626184371	5.450910742383
5	121935	29150.772979375758	3.422229532897
5	121988	29163.149949693846	0.274218517312
5	122035	29172.863579952612	5.14795533286
5	122044	29174.715557594055	6.252666377682
5	122087	29183.059456016813	2.223356905963
5	122091	29184.966100282468	3.498074626031
5	122105	29188.642977702819	3.331710201676
5	122116	29194.359086579157	2.55539466826
5	122172	29219.336096562445	0.91476687098
5	122187	29223.568078330556	1.257313589447
5	122194	29225.1429806883	0.834577515418
5	122325	29249.366800174814	17.750982734888
5	122347	29253.789282603273	20.476123390821
5	122358	29254.57343164965	20.955621831658
5	122367	29260.169818664283	25.096006418711
5	122374	29261.946972775077	17.93483058759
5	122380	29262.96514435539	6.022467776262
5	122386	29263.678847500269	6.611303526669
5	122397	29267.440662514915	6.713715901264
5	122409	29269.768026908428	5.820375826264
5	122418	29272.017381624845	6.532908828559
5	122440	29277.438301067632	6.947761750413
5	122447	29279.831502752338	3.361327361148
5	122451	29281.22012483928	3.477203728655
5	122463	29283.763513985016	1.682895609297
5	122483	29289.986900914086	6.255361416062
5	122499	29295.156781371031	3.014047485145
5	122660	29332.609436345965	22.4494681969
5	122678	29336.22027943842	25.535324860675
5	122691	29341.158466281303	26.407553064443
5	122706	29345.892093179846	25.877973378364
5	122731	29350.160846750282	29.597091771808
5	122745	29354.69324858413	21.325198045473
5	122780	29359.980748856211	10.582218909237
5	122896	29384.413558941003	31.670211237393
5	122965	29398.267389540084	44.425331333623
5	122981	29400.009328446736	44.158654667907
5	122987	29400.317495941171	42.582799662401
5	122994	29400.912524423023	43.092819654421
5	122999	29401.361788829397	40.713074577881
5	123008	29409.379882112474	35.270445975352
5	123065	29419.891927821809	35.526533458596
5	123083	29424.329212486589	36.595125913727
5	123128	29433.411844131822	35.574351954014
5	123135	29434.066371624818	33.393087824995
5	123142	29437.670987058095	35.416746690403
5	123156	29439.990745652872	29.11407151267
5	123167	29442.650117726442	23.622734072934
5	123172	29442.888381339039	22.882540407869
5	123180	29447.398878266468	27.211491750716
5	123190	29447.661998404201	27.358874078937
5	123197	29449.415898137381	21.436407075177
5	123206	29452.48023359602	18.5299658454
5	123243	29458.865729847538	8.330124052529
5	123254	29464.598507177349	2.633750611334
5	123264	29469.426650063381	6.606159191491
5	123276	29473.10474232217	4.900666968012
5	123285	29479.163334712097	3.827923126526
5	123314	29489.771326468767	6.575320077491
5	123319	29490.425642235787	4.511471187164
5	123323	29491.168588584305	4.815327151459
5	123339	29500.307127581344	4.764375144545
5	123354	29503.89094944226	5.690144844589
5	123360	29504.643692897962	6.342190144151
5	123365	29505.002195907949	5.992746631685
5	123369	29505.238107675928	4.307161351416
5	123379	29516.075208707664	2.131627610704
5	123416	29524.781235637034	0.028037631426
5	123428	29533.531185196677	3.319239567865
5	123441	29536.99454369405	5.257315971686
5	123475	29542.402329607881	2.589248153747
5	123504	29549.501786842016	6.065412511494
5	123526	29568.264708641501	4.075562715634
5	123552	29572.64326046337	8.024029207602
5	123592	29579.18833916062	1.251923967135
5	123609	29580.488364116897	0.936540766798
5	123622	29583.661873277776	0.42116887156
5	123631	29589.137149277632	0.003185769897
5	123647	29594.131892968532	0.156992127497
5	123686	29606.82905945181	3.688878393182
5	123721	29613.091474150698	4.481209590642
5	123737	29615.733735957854	5.323302982198
5	123742	29616.693222822505	5.236806110564
5	123751	29621.395183667035	8.547191567402
5	123778	29625.934740665051	11.590420355069
5	123803	29630.882431570786	15.945986587743
5	123814	29633.729711019823	8.240639314821
5	123819	29635.538890815055	9.704839294802
5	123823	29636.255866886382	9.144520578362
5	123865	29646.313903675162	3.343899175153
5	123879	29651.362007799007	7.162424356471
5	123937	29666.334667890285	1.354791387624
5	123956	29671.930517296933	4.068204208517
5	124007	29683.188167575048	15.275938520196
5	124014	29684.944739343212	13.461416918032
5	124021	29687.66520365617	14.952535130634
5	124026	29688.725062358795	3.673225242659
5	124084	29701.624890521373	1.133867451151
5	124102	29702.394919404072	0.614662647153
5	124106	29702.688220166441	0.484373466824
5	124129	29709.3968638527	2.532095905191
5	124371	29767.631296861211	45.719400673317
5	124378	29768.279657797736	43.976681669306
5	124392	29770.739351015402	40.619292122307
5	124403	29774.160130755413	42.682702832694
5	124408	29774.45274462655	40.199682437368
5	124413	29774.890787682213	34.121983734809
5	124422	29777.127388729869	31.647784992089
5	124438	29778.902238702324	33.310008330414
5	124445	29779.901417533138	24.757881342161
5	124456	29782.472451176654	26.754437653697
5	124461	29783.272629609672	15.996370869081
5	124466	29783.494886150725	14.139251551118
5	124480	29790.054149449769	19.912262767616
5	124503	29791.437531571004	7.007441986386
5	124521	29797.140613239479	1.100914366447
5	124553	29806.859010375495	2.973258759674
5	124566	29808.504434000801	4.053896451223
5	124601	29815.80801820504	10.267566464567
5	124617	29817.619174637401	10.766760705527
5	124632	29818.814072383016	11.145945226793
5	124638	29819.915817590284	3.822678158272
5	124656	29823.825123398345	1.783680369055
5	124711	29832.237341428874	7.910183704946
5	124728	29836.548882896179	0.022810373385
5	124770	29845.003123329116	1.905461340745
5	124811	29856.811894256052	11.247064020482
5	124835	29863.103954520439	11.470800851268
5	124841	29864.316901059217	10.156590579287
5	124845	29864.576839671737	10.166078110036
5	124880	29879.505624592377	0.045377895928
5	124907	29887.829733302861	6.284970658312
5	124961	29896.005140448945	6.599300109712
5	124968	29898.403460396124	5.32944482825
5	124972	29898.648352601251	3.484777705877
5	124982	29905.497019291945	0.945023059018
5	124989	29906.795971890628	1.120876507415
5	125013	29918.764729803205	5.462427085451
5	125026	29921.773154686409	8.236425305378
5	125033	29923.779834941248	7.994632677093
5	125044	29929.512189913896	13.654541096497
5	125065	29935.520811251943	15.592272575885
5	125090	29942.000809590422	18.451572867308
5	125169	29962.304754646716	37.381571739075
5	125174	29962.993782752582	28.034336211731
5	125193	29970.697856733349	31.240978926444
5	125286	29986.087120829785	44.72020847795

