version 2
run Second-n4-16-20191016-14:53:26-9960
attr configname Second-n4
attr datetime 20191016-14:53:26
attr experiment Second-n4
attr inifile omnetpp.ini
attr iterationvars ""
attr iterationvarsf ""
attr measurement ""
attr network org.omnetpp.queueing.Pizza
attr processid 9960
attr repetition 16
attr replication ""
attr resultdir results
attr runnumber 16
attr seedset 16
param **.PS.maxInventoriedPS 4
param **.U1.interArrivalTime exponential(3s)
param **.U2.interArrivalTime exponential(5s)
param **.PS.serviceTimeForInventoryU1 exponential(1.0s)
param **.PS.serviceTimeForInventoryU2 exponential(1.2s)
param **.PS.serviceTimeDirectU1 exponential(1.4s)
param **.PS.serviceTimeDirectU2 exponential(1.4s)
param **.PS.probabilityProducing 0.7
param **.CS.serviceTimeU1 exponential(1.1s)
param **.CS.serviceTimeU2 exponential(1.4s)

vector 0 Pizza.EntryQueueU1 queueLength:vector ETV
attr interpolationmode sample-hold
attr title "queue length, vector"
vector 1 Pizza.CS queueLength:vector ETV
attr interpolationmode sample-hold
attr title "queue length, vector"
vector 2 Pizza.EntryQueueU2 queueLength:vector ETV
attr interpolationmode sample-hold
attr title "queue length, vector"
vector 3 Pizza.sink lifeTime:vector ETV
attr interpolationmode none
attr title "lifetime of arrived jobs, vector"
attr unit s
vector 4 Pizza.sink lifeTimeU2:vector ETV
attr interpolationmode none
attr title "lifetime of arrived jobs, vector"
attr unit s
0	0	0	0
0	75	17.927873678147	1
0	77	18.15276007385	2
0	79	18.860819086588	1
0	85	18.972407376762	0
0	94	19.96097387905	1
0	95	20.90891632457	0
0	108	23.206764479796	1
0	109	24.426930206642	0
0	139	29.237809434193	1
0	141	29.293523435648	2
0	143	29.391348947919	3
0	147	31.231892857969	2
0	154	31.778533152316	1
0	160	32.268867467496	2
0	162	32.84798554331	1
0	171	35.974771158491	2
0	173	36.477023958544	1
0	179	37.715605038956	0
0	191	39.660737539371	1
0	193	40.784160380558	0
0	293	75.621607040686	1
0	294	75.868898076597	0
0	329	86.022310451599	1
0	338	87.536393355259	2
0	341	87.982917831257	3
0	343	90.324513220148	4
0	344	90.744152521065	3
0	349	90.766119797229	2
0	355	91.54423065835	1
0	362	93.652286781371	2
0	363	93.657604696869	1
0	368	93.731870603596	0
0	374	93.754296135111	1
0	377	94.774341464963	0
0	415	99.951403517388	1
0	421	101.726181679893	0
0	443	104.107593687142	1
0	449	105.295481538268	0
0	501	114.642372626505	1
0	502	114.839787777782	0
0	513	116.252515255455	1
0	514	116.883008575273	0
0	556	129.994401429896	1
0	557	130.03436778351	0
0	572	132.015059184496	1
0	574	134.062954366295	2
0	575	134.267610093355	1
0	580	136.142508262656	0
0	623	143.957123437324	1
0	626	144.18119089258	2
0	627	144.231706377126	1
0	633	144.263678299231	2
0	637	146.607330252304	1
0	642	146.835807076255	0
0	656	147.875700732965	1
0	661	149.692115178051	0
0	675	150.828845217007	1
0	676	152.358511174151	0
0	683	153.294805292513	1
0	685	153.91353764946	2
0	686	154.422130832222	1
0	692	154.767562403451	0
0	711	160.908369576488	1
0	712	161.301563842877	0
0	723	162.385039517704	1
0	724	162.613331784452	0
0	744	167.246698220082	1
0	746	167.84939131706	0
0	764	172.027147752053	1
0	767	172.288621187885	0
0	780	172.799168647276	1
0	782	173.011888804561	2
0	783	173.214200728119	1
0	788	173.331754673119	0
0	888	200.245284443349	1
0	889	203.274024730861	0
0	931	217.231878901435	1
0	933	217.323454658115	2
0	936	219.982171432788	3
0	941	223.897364346356	2
0	947	224.38539834732	1
0	952	224.536577223219	0
0	973	225.427000188644	1
0	974	225.549593710359	0
0	1024	247.739947772141	1
0	1025	248.095998095655	0
0	1065	257.976984519417	1
0	1066	258.194905855727	0
0	1081	260.512450590414	1
0	1083	260.94824483797	2
0	1085	261.570711922747	1
0	1090	261.600941085996	0
0	1115	266.472229685814	1
0	1116	267.498095358803	0
0	1122	267.835047765124	1
0	1123	267.995585301116	0
0	1162	276.160324263894	1
0	1163	276.821032746699	0
0	1171	277.117252118979	1
0	1173	277.314574459759	2
0	1174	277.600078253615	1
0	1179	277.800146032008	0
0	1208	281.130106137687	1
0	1210	281.459676293988	2
0	1211	281.749458669456	1
0	1216	282.055249089042	0
0	1220	283.217975985687	1
0	1223	283.934673705836	0
0	1227	284.589721046547	1
0	1241	291.102661852903	0
0	1254	291.956198384634	1
0	1258	292.898152477098	0
0	1264	292.949377682737	1
0	1265	294.796728772437	0
0	1276	295.481814175934	1
0	1278	295.503965916319	2
0	1282	298.030608372573	1
0	1289	299.808352853201	0
0	1295	300.768715013021	1
0	1297	301.744972921925	2
0	1298	301.820726046053	1
0	1307	303.208146119368	2
0	1308	303.769459492287	1
0	1314	304.25106253632	0
0	1373	316.21239556102	1
0	1374	316.319140461278	0
0	1428	333.802990385255	1
0	1429	333.883780055217	0
0	1435	333.938327979517	1
0	1436	334.447434143231	0
0	1440	335.14289158066	1
0	1443	336.171538847038	0
0	1447	339.816465854264	1
0	1453	342.991512794117	0
0	1459	343.030571486928	1
0	1460	343.371701899292	0
0	1493	350.268886458763	1
0	1494	350.538245118473	0
0	1505	355.438970947382	1
0	1511	360.240200255068	0
0	1520	362.558765019797	1
0	1521	362.786593333107	0
0	1527	362.792072168387	1
0	1528	362.951563453307	0
0	1558	369.088467468173	1
0	1560	369.134500997195	2
0	1561	369.36257821659	1
0	1567	369.926849378319	0
0	1602	372.100816902616	1
0	1603	372.164491809591	0
0	1622	375.233690887547	1
0	1624	375.528715995811	2
0	1625	375.82277054525	1
0	1631	376.700788167874	2
0	1632	377.645343517743	1
0	1638	378.014419402573	0
0	1645	378.954608412931	1
0	1646	380.394820350274	0
0	1653	381.149114802023	1
0	1655	382.017072025304	0
0	1661	382.107040393203	1
0	1662	382.177026217752	0
0	1679	386.585734246203	1
0	1680	387.013628048837	0
0	1694	391.448635780645	1
0	1695	394.030211997978	0
0	1735	409.103468023995	1
0	1737	409.258506042954	2
0	1738	409.622039204482	1
0	1744	410.812087887669	2
0	1745	411.78246533238	1
0	1750	411.992528727401	0
0	1783	417.864484075384	1
0	1784	417.865598311027	0
0	1823	427.738656889984	1
0	1825	428.839892748835	0
0	1876	445.619221860064	1
0	1877	446.312292084722	0
0	1908	458.458948601252	1
0	1910	458.7002133626	2
0	1912	458.873852833252	3
0	1917	462.122921268428	2
0	1923	462.918330776478	1
0	1929	463.063920053637	0
0	1948	464.272160138894	1
0	1950	465.66845106404	0
0	1963	469.582992526684	1
0	1967	470.063140065194	2
0	1968	470.294447557229	1
0	1976	470.689805251519	0
0	1985	474.017319784744	1
0	1986	474.697934099827	0
0	1998	475.222145555229	1
0	1999	475.888347908721	0
0	2008	476.220282393679	1
0	2013	477.661664662842	0
0	2035	480.978111355889	1
0	2040	482.353701286018	0
0	2046	482.384096362059	1
0	2049	485.149879818835	0
0	2066	488.973047197635	1
0	2067	489.488727928297	0
0	2085	491.791249322606	1
0	2086	492.614937581927	0
0	2101	494.151872154651	1
0	2103	494.254884272916	2
0	2106	494.496430576752	3
0	2107	494.591362887548	2
0	2112	495.445037740872	1
0	2119	495.742615852188	0
0	2148	499.887118432495	1
0	2152	501.746953161117	2
0	2153	501.832261502247	1
0	2158	501.989885499133	0
0	2170	504.215435878796	1
0	2171	504.819462709743	0
0	2187	507.7190718597	1
0	2190	510.860524754847	0
0	2212	520.587884032274	1
0	2214	521.006866339073	0
0	2253	527.421130175896	1
0	2255	527.871573212827	0
0	2271	531.335770907961	1
0	2272	531.430894872899	0
0	2284	533.896784658205	1
0	2286	533.898012843724	2
0	2287	534.463153856068	1
0	2292	534.469553627717	0
0	2305	535.446290560141	1
0	2306	535.457429237945	0
0	2314	535.730697049266	1
0	2315	537.00730159627	0
0	2366	547.833717423977	1
0	2367	548.967846685409	0
0	2381	552.425438261106	1
0	2383	552.551789291041	2
0	2385	552.577011441727	3
0	2387	552.804553412953	4
0	2389	552.97852031433	5
0	2392	555.939843806804	4
0	2400	557.097899554086	3
0	2405	557.545416332891	2
0	2410	559.346230751646	1
0	2416	560.87970951212	2
0	2420	562.120653049423	1
0	2428	563.794458778571	0
0	2436	567.69682964212	1
0	2437	568.374249006379	0
0	2507	582.935446794648	1
0	2508	583.767914735833	0
0	2522	586.805478847645	1
0	2525	589.072441050196	0
0	2533	589.258158349848	1
0	2534	590.430168994582	0
0	2555	599.334024833014	1
0	2558	600.523104500045	2
0	2559	601.110602194272	1
0	2564	601.48803191409	0
0	2570	601.729909654575	1
0	2572	601.846821281827	0
0	2585	605.052520687749	1
0	2589	605.992965912446	2
0	2592	606.693095996403	1
0	2599	607.039312734431	0
0	2674	621.36568370773	1
0	2675	621.705567413695	0
0	2688	622.31234983381	1
0	2689	623.12711850789	0
0	2701	626.080911637403	1
0	2702	626.647486914353	0
0	2718	628.746090892795	1
0	2723	630.593001516549	2
0	2724	630.8481381667	1
0	2729	631.390727208182	0
0	2736	632.061287888461	1
0	2737	632.178443301503	0
0	2755	636.171985072954	1
0	2757	636.834342120536	2
0	2758	637.397547772654	1
0	2762	637.503399966924	2
0	2764	639.013194324146	3
0	2769	640.29319197782	4
0	2772	641.568012798616	3
0	2780	642.756668996815	2
0	2785	642.826427402054	1
0	2792	644.566544572626	2
0	2794	644.730042732431	3
0	2807	646.259332407659	4
0	2809	647.002577261598	5
0	2810	648.224403155718	4
0	2816	648.529719955298	3
0	2822	648.643303136522	4
0	2823	649.783212395498	3
0	2828	649.984990059435	2
0	2838	651.053287396742	3
0	2840	653.400828552461	2
0	2846	653.816183433003	3
0	2853	656.803991447282	2
0	2861	657.63638037328	3
0	2866	660.128238973057	2
0	2871	660.88110518309	1
0	2876	660.999490672378	0
0	2884	665.540037363811	1
0	2887	667.30703849949	0
0	2921	672.40419850084	1
0	2927	675.914533713241	2
0	2928	676.154263728249	1
0	2938	678.013104404773	2
0	2942	678.375082634079	3
0	2943	678.787155343936	2
0	2950	679.222216665559	1
0	2960	680.416264929357	0
0	3007	695.421448626302	1
0	3008	695.943620408906	0
0	3019	696.977880170757	1
0	3021	697.288918789901	0
0	3033	699.26896222505	1
0	3035	700.044271201912	2
0	3038	700.161212648961	1
0	3043	700.373543366643	0
0	3054	701.260759301369	1
0	3055	702.017296273212	0
0	3088	707.91775648303	1
0	3090	709.129446161731	2
0	3092	712.031391950015	3
0	3098	714.651154590247	4
0	3099	715.496623860397	3
0	3104	715.881351262841	2
0	3109	716.202331818716	1
0	3115	717.399406788874	2
0	3118	718.200916996826	1
0	3123	718.657745572792	0
0	3144	721.541386210323	1
0	3148	722.8999263752	2
0	3150	724.520317668068	1
0	3155	724.70393136351	0
0	3161	724.794044236521	1
0	3168	728.211638638132	0
0	3175	732.377579921956	1
0	3177	732.993428887483	2
0	3178	733.52850849486	1
0	3183	734.280004054522	0
0	3195	736.725790903409	1
0	3197	738.038073906816	2
0	3202	739.151849568705	1
0	3208	739.605758589862	2
0	3209	740.206477571602	1
0	3214	740.326505488312	0
0	3222	741.03437103684	1
0	3224	741.237607893475	0
0	3231	741.451633256302	1
0	3232	741.527143439182	0
0	3270	749.410417048655	1
0	3271	749.570296518939	0
0	3280	751.38466732308	1
0	3281	751.778668748143	0
0	3294	753.277009563422	1
0	3296	755.946658285631	0
0	3323	765.49618730288	1
0	3326	766.104454644656	0
0	3358	773.58331323957	1
0	3361	775.685720299223	0
0	3376	778.957758788894	1
0	3378	779.075120304722	2
0	3381	780.236921513132	1
0	3387	780.314581438405	2
0	3388	780.516436035377	1
0	3393	780.721061651001	0
0	3403	782.172477308818	1
0	3406	784.326760948785	0
0	3417	787.337686992186	1
0	3418	788.024908595951	0
0	3432	790.398227829937	1
0	3436	795.572499026352	2
0	3440	798.590662106576	3
0	3442	798.888962542049	4
0	3445	799.879245432276	5
0	3451	802.496426894672	4
0	3456	802.55590788637	3
0	3464	803.399132470269	4
0	3470	806.525476401292	5
0	3472	808.262493164427	6
0	3474	809.137703506799	7
0	3476	809.21371280031	8
0	3477	809.613223864705	7
0	3483	810.604234315963	8
0	3484	810.851949187029	7
0	3489	810.938608396992	6
0	3496	811.703024258428	7
0	3497	811.958319235802	6
0	3505	812.574759000626	7
0	3508	813.600964973608	8
0	3509	813.881012681793	7
0	3514	814.412941363843	6
0	3520	814.687104235022	7
0	3521	815.04122103706	6
0	3527	815.362693168518	7
0	3528	815.565744379487	6
0	3533	815.622024925511	5
0	3538	816.505982963608	4
0	3543	816.986767022146	3
0	3547	817.05144120549	4
0	3550	818.019049904392	3
0	3557	818.696852820999	2
0	3561	818.800805974392	3
0	3563	819.574586283349	4
0	3565	820.00587675905	5
0	3568	820.555261812673	4
0	3573	821.565193107107	3
0	3577	822.32481372186	4
0	3580	825.4188429055	3
0	3587	828.566899011636	2
0	3593	832.225006326932	1
0	3598	832.450661647962	0
0	3604	835.713236787718	1
0	3607	837.091886049449	0
0	3702	863.107167202621	1
0	3703	863.334375114537	0
0	3718	864.357326577068	1
0	3721	865.194432684197	0
0	3728	865.46654485008	1
0	3729	865.664534679475	0
0	3735	865.776654451153	1
0	3737	865.821158762058	2
0	3738	865.915257382842	1
0	3745	866.483715335714	0
0	3752	866.679634291779	1
0	3756	868.476388048008	0
0	3762	868.809340710691	1
0	3764	869.98081913607	0
0	3771	873.471410844218	1
0	3772	873.905781416637	0
0	3788	875.20659787255	1
0	3792	876.176481539733	2
0	3794	879.183302423553	1
0	3802	880.168927002822	2
0	3807	883.714483672397	3
0	3813	886.04087569992	4
0	3815	886.284891210693	5
0	3817	887.28596570739	6
0	3819	887.921856581581	7
0	3821	888.139756196971	8
0	3822	888.585429207675	7
0	3829	889.346455991273	6
0	3834	890.346949588741	5
0	3840	890.493594037219	6
0	3841	892.182534417528	5
0	3850	894.384210301974	4
0	3856	895.05086312332	3
0	3866	896.407868900463	4
0	3870	897.063611407934	5
0	3871	897.509451467817	4
0	3876	897.790846029314	3
0	3882	898.067957327474	4
0	3886	899.129405098521	3
0	3891	899.319398131111	2
0	3898	901.024599104644	3
0	3899	902.01360418915	2
0	3907	902.950220507587	3
0	3908	903.387317712237	2
0	3914	903.490206885439	3
0	3915	903.844311914075	2
0	3920	904.304201730351	1
0	3927	905.86261593098	0
0	3957	908.102993987963	1
0	3962	909.075301573644	2
0	3963	910.454306447751	1
0	3970	911.252183366037	0
0	3982	912.310301774603	1
0	3985	913.44372667249	2
0	3987	913.465063630932	3
0	3990	913.837492051905	4
0	3993	915.468023834949	5
0	3995	916.472396011408	4
0	4000	918.669307188822	3
0	4006	919.214951265456	2
0	4012	920.234460997732	3
0	4013	920.261188556907	2
0	4018	921.395072625022	1
0	4023	922.085236061664	0
0	4031	922.390253641249	1
0	4033	922.800889420481	2
0	4035	923.096725369532	3
0	4037	923.311611259767	4
0	4039	923.739340487985	5
0	4043	924.640918733861	6
0	4047	925.994900500304	7
0	4050	926.833390536426	8
0	4051	927.272589786557	7
0	4057	928.118735368065	8
0	4059	928.601687149455	9
0	4060	931.158472987871	8
0	4066	931.267922233705	9
0	4067	931.664550346786	8
0	4072	933.764237245018	7
0	4079	935.510705958712	8
0	4080	935.890416123003	7
0	4085	936.196941449913	6
0	4094	938.388974463863	5
0	4099	938.987653390701	4
0	4104	939.314926038391	3
0	4114	941.314807620222	2
0	4120	941.62418853934	1
0	4126	943.071601180616	2
0	4128	943.184442925605	3
0	4130	945.661758128547	2
0	4136	945.71677220939	3
0	4139	946.949400099502	4
0	4140	948.149174571287	3
0	4145	949.17400928591	2
0	4150	949.675985640143	1
0	4157	950.090440139142	0
0	4181	951.270180745995	1
0	4183	951.848606977894	2
0	4186	953.691438761977	1
0	4192	954.723539035631	2
0	4195	954.777322678842	1
0	4207	956.835833816925	2
0	4209	957.315787698946	1
0	4214	957.66308056685	0
0	4233	961.03922799425	1
0	4236	961.687286205224	2
0	4237	962.124290327946	1
0	4245	962.680524809793	2
0	4249	965.497513764336	3
0	4250	966.183202622732	2
0	4255	967.353813943985	1
0	4260	968.240495867664	0
0	4290	973.839574400244	1
0	4292	975.379600168059	0
0	4309	977.938073735708	1
0	4311	977.970815634188	2
0	4313	977.976674585543	3
0	4317	979.147824773266	4
0	4319	980.633631415394	3
0	4325	980.773893140484	4
0	4326	981.642114439827	3
0	4336	984.974286725602	2
0	4342	985.178901039948	1
0	4348	985.862423200276	0
0	4380	994.732219699545	1
0	4385	995.249872121914	2
0	4389	997.451324618654	3
0	4390	997.661604587728	2
0	4395	997.869554497914	1
0	4400	999.127420496474	0
0	4413	1000.570934536412	1
0	4414	1000.884380849286	0
0	4434	1004.156340218246	1
0	4438	1006.982203288203	0
0	4450	1008.882357701383	1
0	4455	1009.121275104644	0
0	4474	1014.476414825095	1
0	4475	1014.870272168308	0
0	4502	1020.566530960165	1
0	4504	1020.569789944244	2
0	4506	1020.89167118312	3
0	4510	1022.672787966436	2
0	4517	1023.352906365868	1
0	4522	1023.581518352291	0
0	4552	1032.991981595373	1
0	4555	1034.96314390458	0
0	4561	1035.067142696023	1
0	4562	1035.353382523348	0
0	4574	1037.080398415692	1
0	4579	1037.829354621429	2
0	4580	1038.444048270229	1
0	4585	1038.483025756848	0
0	4592	1039.59680213044	1
0	4594	1040.505407693311	0
0	4602	1041.487124233328	1
0	4603	1041.64558306623	0
0	4620	1045.299082409832	1
0	4621	1045.440103993244	0
0	4649	1054.132129769498	1
0	4651	1054.670802148197	2
0	4657	1054.969601869981	3
0	4658	1055.614079911866	2
0	4664	1056.735788055806	1
0	4669	1057.492178473693	0
0	4681	1058.496037345438	1
0	4684	1060.107728806564	2
0	4686	1060.997888245212	1
0	4694	1062.618114245115	2
0	4696	1062.785774438083	3
0	4697	1062.849130325593	2
0	4704	1064.530247068352	3
0	4710	1065.89994731378	4
0	4713	1066.45918620111	3
0	4719	1067.747092646403	2
0	4726	1068.974217895733	1
0	4731	1069.814444597469	0
0	4746	1070.920250559978	1
0	4748	1070.929516399739	2
0	4749	1071.615700464655	1
0	4755	1071.641597038609	2
0	4756	1071.874910186222	1
0	4762	1072.606502688849	2
0	4763	1073.68852619918	1
0	4769	1074.35218996417	2
0	4770	1076.002626219889	1
0	4775	1076.600855267583	0
0	4779	1077.692595526896	1
0	4782	1078.538540496506	0
0	4842	1105.785172030912	1
0	4843	1106.149148202076	0
0	4869	1109.672689759701	1
0	4871	1111.589609082133	0
0	4891	1117.562730920113	1
0	4892	1117.998731828506	0
0	4932	1131.801328624325	1
0	4933	1131.993128419796	0
0	4948	1135.567884106172	1
0	4949	1135.787492307253	0
0	4977	1142.041780492222	1
0	4978	1142.977646742612	0
0	5052	1161.949816370025	1
0	5053	1163.47280782271	0
0	5060	1164.357222596733	1
0	5061	1165.497498998713	0
0	5083	1169.030409733719	1
0	5086	1171.513378230731	0
0	5100	1172.696985250546	1
0	5103	1174.15844533685	0
0	5109	1174.551748889683	1
0	5111	1176.209654448374	2
0	5112	1176.2579609949	1
0	5118	1176.794981411955	0
0	5129	1177.46411220425	1
0	5130	1177.669431632081	0
0	5141	1179.196376196513	1
0	5142	1179.451826391351	0
0	5195	1190.845180703757	1
0	5200	1192.525454327355	0
0	5206	1193.305962499294	1
0	5207	1194.277306014882	0
0	5211	1195.164289841786	1
0	5215	1197.387872353624	0
0	5260	1207.38236382972	1
0	5263	1208.546439787132	0
0	5279	1212.647359232088	1
0	5283	1213.637060254321	2
0	5286	1215.136007041666	3
0	5288	1215.230617363984	4
0	5289	1215.329881545908	3
0	5294	1215.370656537465	2
0	5301	1217.255968076181	3
0	5303	1217.619618283366	4
0	5304	1217.830997893786	3
0	5309	1217.857663399181	2
0	5316	1220.907811507925	3
0	5317	1221.132761715608	2
0	5323	1221.560578423864	3
0	5325	1221.989530480229	4
0	5327	1222.275820165763	3
0	5333	1222.594160576268	4
0	5335	1224.785942817719	3
0	5341	1227.047574049912	4
0	5344	1228.212371511165	3
0	5350	1228.321034683283	4
0	5351	1229.154368757303	3
0	5358	1230.729109907862	2
0	5364	1232.229772608908	3
0	5367	1234.645635427235	2
0	5372	1235.831054726122	1
0	5377	1236.126603116134	0
0	5387	1239.553887287803	1
0	5389	1239.918520493605	2
0	5390	1240.30793945812	1
0	5395	1241.51063216661	0
0	5401	1241.544710571081	1
0	5405	1243.164617003404	2
0	5406	1243.437783813242	1
0	5412	1244.172980765791	0
0	5436	1248.346429435023	1
0	5437	1249.24533506139	0
0	5448	1250.278664897419	1
0	5449	1250.545384551791	0
0	5492	1263.499842583267	1
0	5494	1264.944410408761	2
0	5495	1265.047080775082	1
0	5500	1265.082609918544	0
0	5511	1265.589494069139	1
0	5513	1266.810532688171	0
0	5519	1267.571336556101	1
0	5525	1271.408826484291	2
0	5528	1272.163670768423	3
0	5530	1272.262778744652	4
0	5531	1275.16349927752	3
0	5536	1275.193262373468	2
0	5543	1275.499770522092	1
0	5549	1276.220861249596	0
0	5562	1277.080279963411	1
0	5565	1277.34404553872	2
0	5567	1277.931283319041	1
0	5573	1278.764794339222	2
0	5574	1279.448931786192	1
0	5579	1279.781273702467	0
0	5583	1280.190659151593	1
0	5585	1280.232829469794	2
0	5588	1280.359330134504	1
0	5593	1283.074127915221	0
0	5599	1284.6229964875	1
0	5603	1285.368877930659	0
0	5629	1290.246014606629	1
0	5630	1290.267457249379	0
0	5636	1291.416169856267	1
0	5637	1292.062252985015	0
0	5668	1302.781294494625	1
0	5669	1303.119789612863	0
0	5700	1309.754348383182	1
0	5705	1311.372819292994	0
0	5716	1311.630462527192	1
0	5720	1312.190796086504	0
0	5739	1318.23318339803	1
0	5741	1319.318765601062	2
0	5744	1321.837820552916	1
0	5750	1322.515752445552	0
0	5788	1335.645366389891	1
0	5790	1336.775903626394	2
0	5796	1338.368071248061	3
0	5798	1338.743525793321	4
0	5800	1338.79585825665	5
0	5802	1339.52509493611	6
0	5804	1340.02249128211	7
0	5809	1343.751594423261	6
0	5814	1343.957539795994	5
0	5821	1345.418989583516	4
0	5828	1345.974439740928	3
0	5833	1346.874654997676	2
0	5841	1347.995111052419	1
0	5849	1349.202445182769	0
0	5853	1350.197265501425	1
0	5857	1351.62623873096	2
0	5858	1351.632852758059	1
0	5868	1354.517730472046	2
0	5869	1355.143630623096	1
0	5874	1355.257638649958	0
0	5878	1356.112232757492	1
0	5880	1356.25606576481	2
0	5882	1357.391731092332	3
0	5886	1358.518353483676	4
0	5888	1358.933097308238	5
0	5890	1360.515392963534	4
0	5897	1361.787657561338	3
0	5905	1365.106746889547	2
0	5912	1365.621075006076	1
0	5918	1366.595907598414	2
0	5923	1368.993134262118	1
0	5927	1369.116105487503	2
0	5930	1370.527263887663	1
0	5934	1370.675372517579	2
0	5939	1373.324905866986	3
0	5940	1373.461930173011	2
0	5946	1374.674589613358	3
0	5947	1374.882447443616	2
0	5954	1377.312603763445	3
0	5956	1377.328862680359	4
0	5959	1378.227209423571	5
0	5961	1378.32714053229	6
0	5967	1381.710186381214	5
0	5972	1381.768993192168	4
0	5978	1382.670018708688	3
0	5983	1383.255343446911	2
0	5987	1383.903101500654	3
0	5992	1384.686159765902	2
0	5997	1386.466562666663	1
0	6003	1387.455753202512	2
0	6011	1391.403461630261	3
0	6012	1392.201278256433	2
0	6016	1392.216147358211	3
0	6018	1392.63850134146	4
0	6022	1394.268988211614	3
0	6027	1395.321813408957	2
0	6035	1397.477443501933	3
0	6037	1398.451413603449	4
0	6039	1399.259665003222	5
0	6040	1399.636618428663	4
0	6045	1400.101640915645	3
0	6049	1402.551835814912	4
0	6053	1403.911771417084	5
0	6057	1404.533511286217	4
0	6062	1405.672697745267	3
0	6070	1406.20650816185	2
0	6077	1408.521760000114	1
0	6084	1411.316750597953	0
0	6097	1412.596297334145	1
0	6099	1414.148564174754	0
0	6127	1417.159821612912	1
0	6128	1417.977753361188	0
0	6143	1420.436648925329	1
0	6146	1426.43949758942	0
0	6183	1434.993263955938	1
0	6188	1439.893489036895	0
0	6210	1446.59605033183	1
0	6211	1446.685079454131	0
0	6227	1453.341660452737	1
0	6230	1453.661874025761	0
0	6236	1454.434034408369	1
0	6240	1455.625223586754	2
0	6241	1456.53541626101	1
0	6248	1457.699162240177	0
0	6268	1464.35791268607	1
0	6272	1469.39890986305	2
0	6273	1469.433831156471	1
0	6282	1470.695535566685	0
0	6303	1473.560157250415	1
0	6308	1474.187592195422	0
0	6330	1479.339810637238	1
0	6336	1483.102827679571	2
0	6337	1483.202506477483	1
0	6345	1486.02008743965	0
0	6362	1489.238745201683	1
0	6366	1496.48032780773	0
0	6391	1500.232970110401	1
0	6393	1500.44507857689	2
0	6397	1500.881482923754	1
0	6403	1500.885309001255	2
0	6408	1502.967585947575	1
0	6413	1503.568168383611	0
0	6419	1503.663019625268	1
0	6421	1504.465956577361	2
0	6422	1505.487973165194	1
0	6427	1505.881462820864	0
0	6446	1506.843478346537	1
0	6448	1507.078571906487	0
0	6454	1508.286207972165	1
0	6455	1509.975293907275	0
0	6459	1511.023791136365	1
0	6462	1511.753343916496	0
0	6471	1513.585385310428	1
0	6473	1514.366103011621	2
0	6476	1515.592482401525	1
0	6482	1515.810139139206	0
0	6488	1515.889189815112	1
0	6489	1516.489120568259	0
0	6495	1516.914944140448	1
0	6497	1517.212214645716	2
0	6498	1517.278323842316	1
0	6503	1517.965287897876	0
0	6512	1519.674087746002	1
0	6513	1520.515771727012	0
0	6536	1525.501719550025	1
0	6538	1526.864966222127	2
0	6541	1529.847204587943	3
0	6542	1529.951801132843	2
0	6548	1530.378452708154	1
0	6557	1532.31738674206	0
0	6563	1532.421051275289	1
0	6566	1533.245975918167	0
0	6580	1534.615882124559	1
0	6581	1534.771996810484	0
0	6595	1536.700330835698	1
0	6596	1536.934027868956	0
0	6607	1537.275342464494	1
0	6609	1539.886126528735	0
0	6615	1540.390285348579	1
0	6617	1540.66204508289	2
0	6621	1541.076859007548	1
0	6626	1541.334667205818	0
0	6663	1546.552315222342	1
0	6668	1549.910146037605	2
0	6669	1549.948536534636	1
0	6677	1550.529858283686	2
0	6679	1550.613073184482	3
0	6681	1552.152994116212	2
0	6686	1552.220428719112	1
0	6691	1552.720396662991	0
0	6703	1553.109464877186	1
0	6704	1553.479681981476	0
0	6710	1553.807589419907	1
0	6713	1555.229151568501	2
0	6715	1555.835573673595	3
0	6716	1555.904536048835	2
0	6722	1556.38176004805	3
0	6724	1556.730850705215	2
0	6729	1557.080075198691	1
0	6734	1557.502282803173	0
0	6743	1559.126564787475	1
0	6744	1559.210805874466	0
0	6756	1562.23149480025	1
0	6757	1562.365928432273	0
0	6779	1566.225624897824	1
0	6781	1567.021389515187	2
0	6782	1567.15396735953	1
0	6788	1567.770387288845	0
0	6799	1567.855678605977	1
0	6800	1568.064635071784	0
0	6821	1572.913390394559	1
0	6823	1573.603769410017	2
0	6825	1575.283265790743	1
0	6831	1575.389784081962	0
0	6837	1575.52484775237	1
0	6838	1576.617949203157	0
0	6844	1576.743917906963	1
0	6848	1579.673932751465	0
0	6865	1585.882049032528	1
0	6868	1586.589469225224	0
0	6876	1587.229995067503	1
0	6877	1587.416285910837	0
0	6884	1588.386370290081	1
0	6885	1588.661785745769	0
0	6903	1594.493942507737	1
0	6905	1595.538507531202	2
0	6908	1596.410484425251	1
0	6914	1596.911750653265	0
0	6923	1597.120253202756	1
0	6927	1597.956633206608	0
0	6936	1599.633524549393	1
0	6940	1601.945845402124	0
0	6948	1602.722572203282	1
0	6949	1603.227412311826	0
0	6955	1603.395215283602	1
0	6956	1603.539541175744	0
0	6965	1604.616276219942	1
0	6967	1604.898778841944	2
0	6971	1605.217946813968	3
0	6977	1608.699546453301	4
0	6982	1612.389600854964	3
0	6987	1612.64011999066	2
0	6992	1612.715274603066	1
0	6998	1613.074322863226	0
0	7026	1616.656265296131	1
0	7028	1616.758979035695	2
0	7031	1617.758244726438	1
0	7036	1617.874298356759	0
0	7066	1625.591320227604	1
0	7068	1625.795594441375	2
0	7070	1626.912917805681	3
0	7072	1627.600463342695	4
0	7074	1628.149823323697	5
0	7078	1629.816831340558	6
0	7079	1629.993563922342	5
0	7085	1630.178676776431	6
0	7087	1630.891217725722	5
0	7101	1634.089939954208	6
0	7102	1634.123967292641	5
0	7107	1634.25560378354	4
0	7112	1634.357865166228	3
0	7118	1635.128144014531	2
0	7124	1635.577061286761	3
0	7127	1636.081386740205	4
0	7129	1636.514581324897	5
0	7131	1636.963941163434	4
0	7139	1638.147350331628	3
0	7146	1642.534262605107	4
0	7150	1643.13528110692	5
0	7152	1643.44757954798	6
0	7153	1643.52481894108	5
0	7159	1643.81085053427	4
0	7164	1644.172113999962	3
0	7170	1644.640424934683	2
0	7175	1645.817834943797	1
0	7181	1646.047255996754	2
0	7184	1648.265558846429	3
0	7187	1649.564455108184	4
0	7188	1650.37568582215	3
0	7196	1651.129399121579	2
0	7201	1651.880406332823	1
0	7207	1652.316890522388	0
0	7213	1652.49074658511	1
0	7214	1652.554668764318	0
0	7220	1652.734893670032	1
0	7223	1653.306244431651	0
0	7244	1655.140574035144	1
0	7245	1655.404967925153	0
0	7281	1659.671749502288	1
0	7284	1661.850269816517	0
0	7290	1661.901027083585	1
0	7292	1663.738591221732	0
0	7304	1668.090637288689	1
0	7305	1668.240866716783	0
0	7313	1669.244419860546	1
0	7315	1669.508466257519	2
0	7317	1669.622152216241	3
0	7318	1671.527036577672	2
0	7324	1671.848593303856	1
0	7332	1676.755366326602	0
0	7338	1677.258551927823	1
0	7340	1677.270449287705	2
0	7343	1678.041922805661	1
0	7348	1679.927617046621	0
0	7364	1684.631224059169	1
0	7365	1684.712745223058	0
0	7379	1686.649975543546	1
0	7382	1687.263397674923	0
0	7396	1690.487889047199	1
0	7398	1690.530398325867	2
0	7400	1690.729343722504	1
0	7405	1691.484456238446	0
0	7409	1691.536264728637	1
0	7415	1693.396970332721	0
0	7422	1694.364065735784	1
0	7423	1694.470518622401	0
0	7485	1711.150485942949	1
0	7489	1711.980756749539	0
0	7500	1712.452791820839	1
0	7502	1712.585979682074	0
0	7521	1718.11420200061	1
0	7522	1718.630527912646	0
0	7534	1719.47685473064	1
0	7535	1719.854927385316	0
0	7543	1721.281837563377	1
0	7544	1721.565361293673	0
0	7568	1724.445510694086	1
0	7569	1724.654890959052	0
0	7581	1725.809116913331	1
0	7583	1726.97761328887	0
0	7601	1729.842295545033	1
0	7602	1730.098399061261	0
0	7617	1731.530238200583	1
0	7620	1733.755888586412	0
0	7634	1736.601075771896	1
0	7637	1738.679394863139	0
0	7651	1741.384844369036	1
0	7654	1741.695853204621	0
0	7665	1742.195379242777	1
0	7667	1742.233107993918	2
0	7668	1742.45019913462	1
0	7673	1742.454795201909	0
0	7689	1743.898873194768	1
0	7692	1746.743231367328	2
0	7693	1747.089548712549	1
0	7699	1747.394406524973	2
0	7700	1748.143509314731	1
0	7705	1748.161742848345	0
0	7722	1749.357589641246	1
0	7723	1749.807040857371	0
0	7729	1751.330740291228	1
0	7734	1753.77720537401	0
0	7778	1760.542771191216	1
0	7779	1761.031425921554	0
0	7800	1766.473563872989	1
0	7803	1766.869645394529	0
0	7813	1769.310949401827	1
0	7815	1769.999309379022	2
0	7819	1775.504134351842	3
0	7820	1775.635686584296	2
0	7825	1777.152522723932	1
0	7831	1777.727495322235	2
0	7834	1779.124417204469	1
0	7840	1780.320175724034	0
0	7887	1795.263824953286	1
0	7894	1799.72794844547	0
0	7909	1801.242713138896	1
0	7913	1802.936223094632	2
0	7917	1807.87240136965	3
0	7918	1808.5355588716	2
0	7924	1809.349646141615	3
0	7926	1809.678519395073	4
0	7929	1811.461516064296	5
0	7930	1811.950567850521	4
0	7936	1812.321477759108	3
0	7941	1812.504491925851	2
0	7948	1813.799763344792	3
0	7950	1814.045872606378	4
0	7952	1814.374100308592	3
0	7957	1815.56699831347	2
0	7962	1815.774760890685	1
0	7974	1818.462488733892	2
0	7977	1818.957204310639	1
0	7982	1819.557447680265	0
0	7988	1820.041584382042	1
0	7990	1820.762968370786	0
0	8006	1824.586442354406	1
0	8008	1825.646644048594	2
0	8009	1825.668373753509	1
0	8015	1826.541374056309	0
0	8044	1829.146160171816	1
0	8045	1830.35872079174	0
0	8062	1833.781480896963	1
0	8063	1835.630622440025	0
0	8079	1840.29147945419	1
0	8080	1841.30476086444	0
0	8099	1843.895285319053	1
0	8101	1844.302427932644	2
0	8102	1844.888853737257	1
0	8108	1847.939366748346	0
0	8166	1864.66744985186	1
0	8172	1868.952397582279	2
0	8173	1869.136002929774	1
0	8178	1869.292230854848	0
0	8206	1878.324706446377	1
0	8207	1878.999482371159	0
0	8213	1879.086505582605	1
0	8214	1880.20242397375	0
0	8233	1887.13872441912	1
0	8235	1888.561916357084	2
0	8237	1889.531083450774	3
0	8239	1891.589264012612	4
0	8240	1891.713124191537	3
0	8246	1893.151476703412	2
0	8252	1895.344074168664	1
0	8258	1895.492368147379	2
0	8261	1896.065793947706	3
0	8263	1896.727239444158	2
0	8268	1896.940835569794	1
0	8273	1897.47965252165	0
0	8285	1898.016105017301	1
0	8287	1898.351940220722	0
0	8293	1898.853964139823	1
0	8294	1899.421268507734	0
0	8337	1918.296731797556	1
0	8338	1918.415232909658	0
0	8370	1926.271098512009	1
0	8374	1928.02095559782	2
0	8375	1929.486483242906	1
0	8383	1930.298379993292	0
0	8423	1937.192751445845	1
0	8425	1938.090220420373	0
0	8446	1948.239231351448	1
0	8451	1950.072286375281	0
0	8464	1951.3578255769	1
0	8465	1952.091866600376	0
0	8495	1956.140105145027	1
0	8498	1959.754691577151	0
0	8534	1968.807081071029	1
0	8535	1969.350336000688	0
0	8561	1975.270466517523	1
0	8564	1976.055062290329	0
0	8584	1978.179142129358	1
0	8586	1978.999998531079	0
0	8603	1981.804745932153	1
0	8604	1982.193782479064	0
0	8616	1984.290371377998	1
0	8617	1984.632045065159	0
0	8667	1995.414751064667	1
0	8668	1995.823021023353	0
0	8692	2006.130165005253	1
0	8693	2006.613787437157	0
0	8719	2015.875600674852	1
0	8723	2016.602817160511	0
0	8729	2016.784981724469	1
0	8730	2016.934153307378	0
0	8758	2021.231286561597	1
0	8760	2021.591582748354	0
0	8766	2022.045561989265	1
0	8769	2023.032744228918	0
0	8804	2025.776739413943	1
0	8809	2027.897962209249	0
0	8829	2034.780309596383	1
0	8831	2035.288840073959	0
0	8865	2046.434840425143	1
0	8867	2047.285725552573	2
0	8868	2048.883158720701	1
0	8873	2049.361477993585	0
0	8892	2050.685133809475	1
0	8893	2050.911030283229	0
0	8899	2053.31692431676	1
0	8900	2053.39396163535	0
0	8916	2060.12392197255	1
0	8922	2062.239281355095	0
0	8939	2062.659278805194	1
0	8940	2063.363858969118	0
0	8946	2063.632307540732	1
0	8948	2063.879717969806	0
0	8979	2072.162160315311	1
0	8982	2073.791931557234	0
0	9002	2076.804613145197	1
0	9003	2077.106804698836	0
0	9016	2081.24486958221	1
0	9018	2082.42880413343	0
0	9056	2092.553999360981	1
0	9058	2094.080966040248	2
0	9059	2095.043858055315	1
0	9065	2096.174788317488	2
0	9068	2099.586742886137	3
0	9073	2102.055415003395	2
0	9078	2102.117291382098	1
0	9084	2102.857346202411	2
0	9086	2103.014221498664	3
0	9090	2105.031294720334	2
0	9096	2105.156120115567	3
0	9097	2107.684791843153	2
0	9102	2108.267653062177	1
0	9107	2109.064603757985	0
0	9120	2113.055792062945	1
0	9122	2113.219455380294	0
0	9154	2120.018991305985	1
0	9155	2120.652531088744	0
0	9252	2155.767626883245	1
0	9253	2156.330285831627	0
0	9299	2164.675791420355	1
0	9301	2164.858115517457	2
0	9310	2167.412653261751	1
0	9319	2168.831400735555	0
0	9342	2170.726653567914	1
0	9347	2173.773624734825	0
0	9357	2174.911812569371	1
0	9359	2177.000752301829	2
0	9361	2177.121922086692	3
0	9365	2183.095898479864	4
0	9366	2184.05884380389	3
0	9372	2184.063412337594	4
0	9376	2184.709953201144	5
0	9378	2185.10134431193	4
0	9385	2186.567375786693	3
0	9391	2186.950578066799	2
0	9398	2187.520220793964	3
0	9400	2187.642487408475	4
0	9403	2188.543096415465	3
0	9408	2188.65456675528	2
0	9416	2190.852738243312	1
0	9422	2190.939190407276	0
0	9428	2191.164088313749	1
0	9429	2192.739968587566	0
0	9441	2193.098137777565	1
0	9442	2193.570304262857	0
0	9477	2197.459303156046	1
0	9479	2198.419468209147	0
0	9493	2201.768099210919	1
0	9495	2201.904363602392	2
0	9498	2203.315563389071	3
0	9501	2204.123092615521	2
0	9506	2204.497558788897	1
0	9511	2204.733240572565	0
0	9574	2221.693543512638	1
0	9575	2223.6427483954	0
0	9581	2223.994757561218	1
0	9583	2224.129256784102	2
0	9585	2224.206966194029	1
0	9592	2224.902837506883	0
0	9605	2226.213660019664	1
0	9606	2226.552698023848	0
0	9610	2227.163244124571	1
0	9612	2227.276889460182	2
0	9614	2227.6420216674	3
0	9620	2233.253817624733	4
0	9621	2233.565298812824	3
0	9625	2233.632476496034	4
0	9627	2233.653630043792	5
0	9629	2234.867750231756	6
0	9632	2239.369081159855	5
0	9636	2239.811446750256	6
0	9641	2241.576085231874	7
0	9646	2242.702628562175	8
0	9648	2244.165848532233	9
0	9649	2244.908587080999	8
0	9655	2245.392080418291	7
0	9660	2245.58853097872	6
0	9665	2247.030265167444	5
0	9669	2248.204606704647	6
0	9676	2250.778690965905	5
0	9681	2252.471232276745	4
0	9685	2253.668940413079	5
0	9689	2255.440433286327	6
0	9690	2255.760107331708	5
0	9695	2255.963900295914	4
0	9701	2256.165509719105	5
0	9702	2256.636506988712	4
0	9712	2259.025929115279	5
0	9713	2259.583644685477	4
0	9722	2262.923081929965	3
0	9733	2264.841611135589	4
0	9736	2265.224195267384	5
0	9739	2266.061874864827	4
0	9745	2266.825491667166	5
0	9747	2267.589415786219	4
0	9755	2267.773221894953	5
0	9759	2268.356729470162	6
0	9764	2269.918082021622	5
0	9771	2270.757457534258	4
0	9778	2271.526597476557	5
0	9779	2273.021502388823	4
0	9786	2273.126440774219	5
0	9787	2274.402310150131	4
0	9792	2274.525141823117	3
0	9798	2274.765340711294	4
0	9799	2275.03338554381	3
0	9805	2275.201427381629	4
0	9807	2277.104956417275	3
0	9813	2277.856829563385	2
0	9818	2278.210534415336	1
0	9825	2278.760056910977	2
0	9826	2279.164003464784	1
0	9831	2279.180440508119	0
0	9861	2284.54678623513	1
0	9865	2285.594295942389	0
0	9871	2285.851540200288	1
0	9872	2285.940954246947	0
0	9880	2287.525383482021	1
0	9881	2288.371469049902	0
0	9887	2288.772072284624	1
0	9889	2289.624526509696	2
0	9891	2289.636878461405	3
0	9893	2290.202225215338	4
0	9894	2291.924270661696	3
0	9899	2292.125685365685	2
0	9904	2292.244070914583	1
0	9912	2296.906210812426	2
0	9914	2297.815769355802	3
0	9917	2298.381327917268	2
0	9926	2300.287059129111	3
0	9927	2301.173595519813	2
0	9934	2302.40852016784	1
0	9939	2302.952611974159	0
0	9958	2304.123573470989	1
0	9959	2304.357218518121	0
0	9974	2307.002109768277	1
0	9977	2309.387480045098	2
0	9979	2310.887745423696	3
0	9981	2310.909017468748	4
0	9982	2311.071200970522	3
0	9988	2311.128653893911	4
0	9990	2311.735217481371	3
0	9995	2314.054465693634	2
0	10003	2315.968621795431	1
0	10009	2316.403262552362	0
0	10033	2321.36073483733	1
0	10035	2323.678738267589	2
0	10039	2324.969428222442	3
0	10040	2326.035692394064	2
0	10046	2326.22448325705	3
0	10048	2327.41626502626	2
0	10053	2327.485901895354	1
0	10059	2327.870094745638	0
0	10071	2328.678897312941	1
0	10075	2330.846124465261	0
0	10088	2333.269770519297	1
0	10090	2334.086397301119	2
0	10092	2334.309391159465	3
0	10094	2334.429057124333	4
0	10095	2334.455849501149	3
0	10100	2335.031378508863	2
0	10105	2335.219457324139	1
0	10110	2335.469784126893	0
0	10142	2348.926153143871	1
0	10143	2349.702318829814	0
0	10150	2352.230919929326	1
0	10152	2352.428403966205	2
0	10153	2352.45880270221	1
0	10161	2353.341285826434	2
0	10162	2353.39053064457	1
0	10167	2354.52012053898	0
0	10200	2362.111014726043	1
0	10203	2363.165510870381	0
0	10209	2363.395418519833	1
0	10214	2366.761477513927	2
0	10215	2366.918681192961	1
0	10221	2367.851764952668	0
0	10234	2369.557785034933	1
0	10236	2369.563563877479	2
0	10239	2372.878370527395	3
0	10242	2379.551345966285	2
0	10248	2380.315609676599	3
0	10250	2380.322830233744	4
0	10252	2381.115173846909	5
0	10253	2382.182548302551	4
0	10258	2382.429063793527	3
0	10264	2383.414151313675	2
0	10270	2386.155510474754	1
0	10275	2387.089313909467	0
0	10292	2388.159512917862	1
0	10293	2389.108638841774	0
0	10314	2391.2908178111	1
0	10316	2391.769192693978	2
0	10320	2393.148886076638	3
0	10323	2394.113992462538	2
0	10328	2394.153986124989	1
0	10334	2395.243450530524	0
0	10376	2406.60066376819	1
0	10377	2406.756868185672	0
0	10401	2411.347100683215	1
0	10404	2412.827242824953	0
0	10455	2423.259905880292	1
0	10456	2424.589725441953	0
0	10462	2424.78348279193	1
0	10466	2425.98755958728	0
0	10472	2426.120886505339	1
0	10475	2427.346097568904	2
0	10476	2427.475110266744	1
0	10484	2428.718976741173	0
0	10490	2428.747260998064	1
0	10492	2429.333526318472	2
0	10493	2429.604242682944	1
0	10500	2430.210573465967	0
0	10507	2430.57496522311	1
0	10510	2430.935113705874	0
0	10523	2433.125392519138	1
0	10524	2434.155168973326	0
0	10557	2438.307072037559	1
0	10560	2439.077547010265	0
0	10567	2439.932093606192	1
0	10568	2439.999748651619	0
0	10595	2448.077248415732	1
0	10600	2448.902766498421	2
0	10601	2450.005256346267	1
0	10607	2450.858673967871	0
0	10613	2451.117265248113	1
0	10616	2451.890196470704	2
0	10617	2452.755012217827	1
0	10622	2453.164219000816	0
0	10639	2455.466154463614	1
0	10641	2456.288547429234	2
0	10644	2456.808814223113	1
0	10649	2457.244970477738	0
0	10660	2458.441928645657	1
0	10661	2459.671211863726	0
0	10704	2468.962668559046	1
0	10706	2470.290390208777	0
0	10712	2471.245177673455	1
0	10713	2471.638165461096	0
0	10745	2478.164071327599	1
0	10746	2478.495936666682	0
0	10850	2513.453810387831	1
0	10852	2515.548250109719	0
0	10913	2530.521285028367	1
0	10915	2531.187250109458	0
0	10966	2542.16092137229	1
0	10967	2543.322672308732	0
0	10989	2546.589070837854	1
0	10990	2546.813017585046	0
0	11035	2557.646909996871	1
0	11036	2558.751296561098	0
0	11061	2561.588194043672	1
0	11064	2563.727090167574	0
0	11092	2571.433236088089	1
0	11094	2571.840882033839	2
0	11095	2572.895066735756	1
0	11101	2573.578069859635	0
0	11123	2577.7398850643	1
0	11125	2579.864628852678	2
0	11128	2581.865152612999	1
0	11135	2582.973032256961	0
0	11141	2583.021459184412	1
0	11143	2586.199761075111	0
0	11220	2609.348410970925	1
0	11221	2610.166230481884	0
0	11231	2612.465048407879	1
0	11235	2614.437403749878	2
0	11236	2615.559393065346	1
0	11241	2615.921759213977	0
0	11247	2616.225876202609	1
0	11248	2617.247147427169	0
0	11259	2618.32226746394	1
0	11260	2618.738429473588	0
0	11286	2629.493488848418	1
0	11289	2630.067533581011	2
0	11291	2630.369101333652	1
0	11298	2632.193898010385	0
0	11318	2635.666086868869	1
0	11321	2636.204579332723	0
0	11340	2638.106504923426	1
0	11342	2638.940085130701	2
0	11344	2639.65302259289	3
0	11346	2639.796726354554	4
0	11347	2640.317117303401	3
0	11354	2640.393614583684	4
0	11358	2641.194264711657	3
0	11364	2643.141571101172	2
0	11369	2645.230828274793	1
0	11375	2645.762500887931	2
0	11379	2646.585457594036	1
0	11385	2646.798588729184	0
0	11413	2653.373885565607	1
0	11414	2654.067371557691	0
0	11459	2663.935616515764	1
0	11460	2663.963739387113	0
0	11466	2664.004574514457	1
0	11468	2664.461716533209	2
0	11469	2665.008214262729	1
0	11474	2665.087894203271	0
0	11478	2665.313758297831	1
0	11483	2667.258863172414	0
0	11513	2672.850247893283	1
0	11514	2673.121111459329	0
0	11536	2678.830860016327	1
0	11538	2679.124512423792	2
0	11539	2679.158326828126	1
0	11544	2679.377621738958	0
0	11562	2684.057442881459	1
0	11568	2686.054446186816	0
0	11586	2690.285955848774	1
0	11587	2691.061220017465	0
0	11630	2699.627229131577	1
0	11631	2699.949116494597	0
0	11655	2703.176959576504	1
0	11657	2703.402942441683	2
0	11658	2703.483807402452	1
0	11663	2703.597691064839	0
0	11669	2703.903284233716	1
0	11670	2704.137712976289	0
0	11710	2710.876434703968	1
0	11713	2713.39026438273	0
0	11725	2714.064256592178	1
0	11726	2716.44809133488	0
0	11765	2722.401487111364	1
0	11767	2723.790018032044	2
0	11769	2723.899637105912	3
0	11771	2725.525531258318	2
0	11777	2725.602663840428	3
0	11779	2725.888431101528	4
0	11787	2728.109284470078	3
0	11798	2731.694391192956	4
0	11800	2731.89708042485	5
0	11803	2734.349976642478	4
0	11809	2735.83367508646	3
0	11816	2737.100819390458	2
0	11825	2739.332030927085	1
0	11834	2739.924958499919	2
0	11838	2742.690213861676	3
0	11839	2743.522776120274	2
0	11844	2745.451192991923	1
0	11849	2745.665968013034	0
0	11867	2747.63157003667	1
0	11869	2749.186889812748	0
0	11877	2749.297576659707	1
0	11879	2749.652901471576	2
0	11880	2749.869307009218	1
0	11886	2751.246526735267	2
0	11887	2751.830789477508	1
0	11892	2752.090034862519	0
0	11896	2752.410333853014	1
0	11901	2756.576228789472	0
0	11908	2756.902610871974	1
0	11909	2756.936148965923	0
0	11917	2759.365028384735	1
0	11919	2759.766522491245	0
0	11961	2768.352898303023	1
0	11963	2768.715471101063	2
0	11964	2768.929858999067	1
0	11969	2770.512579449423	0
0	11986	2774.079831225535	1
0	11987	2775.769642370014	0
0	11994	2778.760505020851	1
0	11995	2779.952520637754	0
0	12009	2783.022003134079	1
0	12010	2783.214909138687	0
0	12022	2785.146522519985	1
0	12023	2785.842367205744	0
0	12036	2787.796170271238	1
0	12037	2788.348656987215	0
0	12048	2789.997230700786	1
0	12050	2791.151755348054	0
0	12072	2794.723041867623	1
0	12074	2796.046311236647	2
0	12075	2796.301093975531	1
0	12082	2796.607464980413	2
0	12083	2798.069720693367	1
0	12091	2799.628204410872	0
0	12099	2801.327726629139	1
0	12100	2801.618199853315	0
0	12121	2804.484685910057	1
0	12126	2806.635725469314	0
0	12173	2827.93470088099	1
0	12174	2829.681105958312	0
0	12193	2832.199609978414	1
0	12194	2832.233368156297	0
0	12243	2846.840521446692	1
0	12247	2848.662903180024	2
0	12248	2848.694933843096	1
0	12254	2849.210448488802	0
0	12308	2866.066608202054	1
0	12310	2867.421351999344	0
0	12353	2875.65054986954	1
0	12354	2875.804252449414	0
0	12401	2894.870301533011	1
0	12402	2895.201707821614	0
0	12409	2895.746318453296	1
0	12410	2895.812940789073	0
0	12441	2903.645210198583	1
0	12442	2905.879828272902	0
0	12448	2906.561117060693	1
0	12452	2908.900613965002	0
0	12458	2909.290722423541	1
0	12460	2909.932868389469	0
0	12490	2916.073971812624	1
0	12491	2916.198868074407	0
0	12502	2917.824006428681	1
0	12503	2918.084660205374	0
0	12523	2921.558689880159	1
0	12525	2922.716636021663	2
0	12531	2925.069133909494	1
0	12537	2925.371257805698	0
0	12549	2927.145645624906	1
0	12553	2932.235263413778	2
0	12555	2935.884414755459	3
0	12558	2936.805585563162	2
0	12564	2937.438356261676	1
0	12570	2937.976598414782	2
0	12573	2938.575304315556	1
0	12583	2941.192422895236	2
0	12584	2941.536347383395	1
0	12589	2942.375180214466	0
0	12604	2945.802976103742	1
0	12606	2946.352988036067	2
0	12609	2947.777673029603	1
0	12618	2950.204220312692	0
0	12640	2956.734993946703	1
0	12641	2957.755174605493	0
0	12662	2960.557436039375	1
0	12663	2960.764368693316	0
0	12670	2961.178302572355	1
0	12673	2961.661091628986	0
0	12693	2965.453398331843	1
0	12697	2968.944023721608	2
0	12698	2969.130163222908	1
0	12704	2969.158103087691	2
0	12705	2969.640702811379	1
0	12710	2969.87730204773	0
0	12724	2972.2018914255	1
0	12725	2972.442961100065	0
0	12729	2973.955328401946	1
0	12734	2976.708439281786	0
0	12740	2976.801779879811	1
0	12741	2977.294453680142	0
0	12759	2993.272744925294	1
0	12763	2997.460032170954	0
0	12797	3006.765951477567	1
0	12798	3008.928327378237	0
0	12807	3009.846870322684	1
0	12810	3010.0155608561	0
0	12816	3011.23851138687	1
0	12818	3011.538624262923	2
0	12819	3012.50290523434	1
0	12827	3013.780899711565	0
0	12836	3014.452105563427	1
0	12838	3015.340900116175	2
0	12839	3015.545991692941	1
0	12844	3015.680736188678	0
0	12856	3017.645305595125	1
0	12857	3017.743063242887	0
0	12863	3018.000266241336	1
0	12865	3018.269161260402	0
0	12874	3018.519796904309	1
0	12876	3019.04278679299	2
0	12877	3022.384711816617	1
0	12884	3023.520078717515	0
0	12896	3025.923330955633	1
0	12898	3026.213488554247	2
0	12900	3026.388294471302	3
0	12901	3026.551647506686	2
0	12907	3027.46721341869	1
0	12912	3027.545752699885	0
0	12934	3032.31195700112	1
0	12939	3033.031615535631	2
0	12941	3033.179301495752	3
0	12943	3034.449199032703	4
0	12944	3035.031966686351	3
0	12949	3035.034192039699	2
0	12954	3035.986335668299	1
0	12963	3036.925839288058	0
0	12974	3038.552772724801	1
0	12975	3038.874903608568	0
0	12994	3040.526914337235	1
0	12995	3040.917991182663	0
0	13006	3043.117737964051	1
0	13012	3046.490434212748	2
0	13014	3048.075976811982	3
0	13016	3049.061571685524	4
0	13019	3049.73167853891	3
0	13025	3051.622270768243	4
0	13027	3055.467213063969	5
0	13029	3057.419065049733	6
0	13031	3057.798301675161	7
0	13033	3058.126713291997	8
0	13037	3059.092506813054	9
0	13038	3059.509320323516	8
0	13044	3059.898684950873	7
0	13053	3063.365144495853	6
0	13061	3064.166241710933	5
0	13066	3064.949022616552	4
0	13071	3065.239860518166	3
0	13078	3066.163410163695	4
0	13080	3066.602696003468	3
0	13087	3068.652170460023	4
0	13088	3068.702660956465	3
0	13093	3069.6002072423	2
0	13098	3069.780511940972	1
0	13105	3071.56854897297	0
0	13129	3072.979808254457	1
0	13131	3073.842483752592	0
0	13151	3078.19382336605	1
0	13152	3078.599547752765	0
0	13184	3085.136027024283	1
0	13187	3087.669372061182	0
0	13205	3091.724693092778	1
0	13206	3093.127669354106	0
0	13215	3095.279368222061	1
0	13217	3095.873047852416	2
0	13219	3096.134260234931	3
0	13222	3096.830786550394	2
0	13228	3097.79881119279	3
0	13230	3098.709800351898	4
0	13232	3099.529679225101	5
0	13233	3100.558796682675	4
0	13238	3101.128679984801	3
0	13245	3104.826164004269	4
0	13249	3106.068794904507	3
0	13256	3109.023471887362	2
0	13263	3110.34144081253	3
0	13264	3110.85307031918	2
0	13269	3111.528259960557	1
0	13274	3111.53248057406	0
0	13281	3112.43617094711	1
0	13284	3114.094874487862	0
0	13299	3115.201864899182	1
0	13300	3115.241520405952	0
0	13320	3119.676864915636	1
0	13322	3119.922892900513	2
0	13323	3120.470902071578	1
0	13328	3121.646987881446	0
0	13339	3123.478326618698	1
0	13346	3127.68204252638	0
0	13369	3132.280452620093	1
0	13371	3132.34065259898	2
0	13372	3132.701293910815	1
0	13377	3132.935516273299	0
0	13389	3134.00066428334	1
0	13390	3134.036031556473	0
0	13396	3134.228071210427	1
0	13399	3135.184491866777	0
0	13413	3138.204950067923	1
0	13414	3139.062184577028	0
0	13425	3139.797669471686	1
0	13427	3140.538125511939	2
0	13431	3143.318768198634	3
0	13433	3143.36123724768	4
0	13435	3145.104303926216	5
0	13438	3146.489727394335	4
0	13444	3146.756142333123	5
0	13449	3148.3652736295	4
0	13458	3150.308329076606	3
0	13463	3150.750632818343	2
0	13472	3155.122238138794	1
0	13477	3155.632327282801	0
0	13518	3162.297381764462	1
0	13519	3162.520571274377	0
0	13548	3171.396922445604	1
0	13549	3174.881224354182	0
0	13563	3177.926992345866	1
0	13564	3178.100196749289	0
0	13570	3178.146874091756	1
0	13572	3178.454373622176	0
0	13605	3185.411887350357	1
0	13609	3186.541108315364	2
0	13611	3186.782792904219	3
0	13612	3188.069021344489	2
0	13617	3188.184637980448	1
0	13624	3189.837927922323	2
0	13626	3191.304135526496	1
0	13631	3193.326226603228	0
0	13656	3202.244571023528	1
0	13657	3203.062362476883	0
0	13704	3224.191331576296	1
0	13706	3224.497070130325	2
0	13707	3224.716005553141	1
0	13712	3225.303868364861	0
0	13802	3256.362882176961	1
0	13803	3259.588358526785	0
0	13817	3260.92416042353	1
0	13819	3261.402422936914	2
0	13821	3262.355696637939	1
0	13826	3263.242459247014	0
0	13833	3264.209066710562	1
0	13835	3264.2613832666	2
0	13836	3265.379044116023	1
0	13842	3266.20319504926	2
0	13844	3266.230322331489	3
0	13847	3267.577762246893	2
0	13853	3267.583333340872	3
0	13854	3271.158157020521	2
0	13858	3271.247404862976	3
0	13861	3272.371789350262	2
0	13867	3274.975434576954	3
0	13870	3275.084337935502	2
0	13874	3275.221456537266	3
0	13876	3276.061176748649	4
0	13878	3277.194829568444	5
0	13881	3277.521298221104	4
0	13886	3281.915839167774	3
0	13890	3282.640887106422	4
0	13893	3283.33347187017	3
0	13899	3284.154991519482	4
0	13907	3287.990011853523	5
0	13908	3288.005085137813	4
0	13912	3290.138581372323	5
0	13915	3293.422167702607	4
0	13922	3294.032722162607	5
0	13924	3294.791828617384	4
0	13930	3295.913241784586	3
0	13936	3297.402302269291	2
0	13942	3298.533554005157	3
0	13944	3298.593804631075	4
0	13946	3299.018315321588	3
0	13952	3300.220738201528	2
0	13961	3302.67910347262	3
0	13962	3303.050618324464	2
0	13967	3303.053864247808	1
0	13972	3303.20629039065	0
0	14013	3309.220144160833	1
0	14015	3311.23544408459	0
0	14047	3319.34290677026	1
0	14048	3319.377407157376	0
0	14061	3322.298067455229	1
0	14062	3322.903311188664	0
0	14085	3333.53049529665	1
0	14086	3334.261850182053	0
0	14092	3334.909974608259	1
0	14094	3335.645926422397	0
0	14133	3349.883567884776	1
0	14134	3350.193682401832	0
0	14166	3361.61403285977	1
0	14167	3361.666728152505	0
0	14173	3362.183041686459	1
0	14174	3363.257803482586	0
0	14189	3364.76078567097	1
0	14191	3365.571754762173	0
0	14250	3377.667004683856	1
0	14251	3378.675507154919	0
0	14302	3389.845247759623	1
0	14304	3391.316717377241	0
0	14310	3391.836765818828	1
0	14315	3394.159952024761	2
0	14316	3394.292094873654	1
0	14321	3395.929837469374	0
0	14356	3400.761348414829	1
0	14359	3402.546814509733	0
0	14388	3412.198619525329	1
0	14389	3413.002805314818	0
0	14400	3417.457105643518	1
0	14404	3418.124844759186	0
0	14419	3422.513170768047	1
0	14420	3423.628083791426	0
0	14442	3427.509608377069	1
0	14445	3431.600466010959	0
0	14449	3431.771398916479	1
0	14451	3432.337379562005	2
0	14454	3432.938277701667	1
0	14460	3433.510559653137	2
0	14463	3435.015564290353	1
0	14469	3436.039549981025	0
0	14488	3438.779907336327	1
0	14490	3439.423948790733	2
0	14492	3439.440805589694	3
0	14494	3439.581724783384	4
0	14497	3440.040761824059	5
0	14498	3440.398063363519	4
0	14505	3440.474969866611	5
0	14506	3441.117629736409	4
0	14511	3441.332755765053	3
0	14516	3441.366481679153	2
0	14521	3441.429174090326	1
0	14527	3441.673183190871	2
0	14530	3442.841588253084	1
0	14539	3444.002749912805	0
0	14550	3448.14319644016	1
0	14553	3449.448670339857	0
0	14639	3468.935667668843	1
0	14641	3468.984144228591	2
0	14643	3469.680143909656	1
0	14649	3469.85768400343	0
0	14656	3470.007178739169	1
0	14659	3471.341925540516	0
0	14665	3471.464186386055	1
0	14666	3471.886777972819	0
0	14679	3473.714890560775	1
0	14680	3473.953042463602	0
0	14740	3488.437349289321	1
0	14742	3488.562711621427	2
0	14747	3489.257392472275	1
0	14754	3489.529363707932	0
0	14763	3491.074846153004	1
0	14765	3491.467757806644	2
0	14768	3492.603456299063	3
0	14769	3494.566848829073	2
0	14777	3497.652700057625	1
0	14784	3498.980044864727	0
0	14808	3503.758104014608	1
0	14809	3505.888426174931	0
0	14822	3508.200557496475	1
0	14824	3508.981816771669	2
0	14825	3509.290087185869	1
0	14830	3509.42929107855	0
0	14836	3510.183245706195	1
0	14838	3510.333825654328	2
0	14842	3511.417563228793	3
0	14845	3513.509704216462	2
0	14850	3514.27348050931	1
0	14862	3515.586517845273	2
0	14864	3516.66969673348	3
0	14865	3518.020002932346	2
0	14878	3520.209596270791	1
0	14887	3520.957855621394	2
0	14888	3521.146702700804	1
0	14895	3521.438763278774	0
0	14911	3522.025915063082	1
0	14912	3522.766350496191	0
0	14923	3524.198021963247	1
0	14925	3524.294227614724	2
0	14927	3524.794230472653	1
0	14932	3525.067445722507	0
0	14948	3528.317814723602	1
0	14952	3528.549370398656	2
0	14953	3528.670178942725	1
0	14961	3530.721340370383	0
0	14970	3532.743218853901	1
0	14972	3533.418492543665	0
0	14986	3536.632527959698	1
0	14987	3536.815834640446	0
0	15004	3541.583265788916	1
0	15012	3542.645974377731	2
0	15013	3543.383393710696	1
0	15018	3543.598615623766	0
0	15026	3543.989653061683	1
0	15028	3544.069427254723	0
0	15046	3546.016400671575	1
0	15051	3547.79666697831	0
0	15080	3551.295261451624	1
0	15081	3551.495784444629	0
0	15087	3552.21164407242	1
0	15088	3552.933466017344	0
0	15103	3557.503581282494	1
0	15105	3559.690644943067	2
0	15106	3561.611222081584	1
0	15113	3562.284068814131	2
0	15114	3562.483803686236	1
0	15121	3563.617079510507	0
0	15138	3567.977565202871	1
0	15142	3571.051694786755	0
0	15180	3588.800224133768	1
0	15181	3590.922809975336	0
0	15193	3593.609418432763	1
0	15198	3594.000657544667	2
0	15199	3594.773993252918	1
0	15204	3595.097347008057	0
0	15211	3596.75399166418	1
0	15216	3598.621934874136	2
0	15219	3601.631885271501	1
0	15225	3602.543302445659	0
0	15248	3606.007629620586	1
0	15251	3607.021409059268	0
0	15259	3607.403759823992	1
0	15269	3610.317426693526	0
0	15276	3610.495563261907	1
0	15278	3610.976579075586	2
0	15279	3613.352062451106	1
0	15285	3613.478988005203	2
0	15287	3613.703558175178	3
0	15288	3613.790279381795	2
0	15293	3614.041425427718	1
0	15299	3614.715804610542	2
0	15304	3617.508003857644	1
0	15309	3620.321792047766	0
0	15315	3621.336590723579	1
0	15316	3622.295141425884	0
0	15337	3629.748014592095	1
0	15340	3630.567477238362	2
0	15341	3630.719937901976	1
0	15347	3631.256409816717	2
0	15348	3631.422372925537	1
0	15352	3631.463878504904	2
0	15355	3632.405579449043	1
0	15363	3632.970743748886	2
0	15370	3634.103532804219	1
0	15377	3634.76750769409	2
0	15378	3635.26097911647	1
0	15385	3635.656752873874	2
0	15388	3637.280814087881	3
0	15390	3637.710213978731	2
0	15395	3638.487320073091	1
0	15402	3640.399163123528	0
0	15408	3641.980524391214	1
0	15412	3645.035336810487	0
0	15427	3647.219062987753	1
0	15428	3647.846032475248	0
0	15440	3648.90938536723	1
0	15441	3649.110644136345	0
0	15448	3650.276582466843	1
0	15451	3650.925971895819	0
0	15464	3651.616472246199	1
0	15467	3652.229900832533	2
0	15468	3652.297556617897	1
0	15473	3652.345537721281	0
0	15498	3655.112198761257	1
0	15500	3656.726352156379	0
0	15510	3657.470412755883	1
0	15514	3658.108585654317	2
0	15517	3659.431805755914	1
0	15524	3660.206509009206	2
0	15525	3660.231067452605	1
0	15530	3660.257605020642	0
0	15536	3660.61243679628	1
0	15538	3661.774818258192	0
0	15551	3662.619515431822	1
0	15552	3663.44222308596	0
0	15559	3664.011996162791	1
0	15562	3664.357898028803	0
0	15583	3666.535373817579	1
0	15585	3666.603650531839	2
0	15588	3668.499649846994	1
0	15593	3668.756675280794	0
0	15599	3669.030365234375	1
0	15600	3669.481331390643	0
0	15614	3671.422718458737	1
0	15616	3673.35221467266	2
0	15619	3675.48579436391	1
0	15625	3675.800480101738	2
0	15627	3676.647162414457	1
0	15632	3677.195543673765	0
0	15641	3678.225066612494	1
0	15642	3678.378329308562	0
0	15684	3689.267922756002	1
0	15685	3689.724743889323	0
0	15700	3691.8000382384	1
0	15703	3694.480758966329	0
0	15715	3699.433259837857	1
0	15719	3702.391729346647	0
0	15750	3709.790287726603	1
0	15751	3710.56145016154	0
0	15799	3724.511821723406	1
0	15802	3725.519606243152	0
0	15808	3726.094291855126	1
0	15818	3728.550086756512	0
0	15831	3730.340185788661	1
0	15834	3731.213433095633	2
0	15836	3733.10865463039	3
0	15838	3734.580704295113	4
0	15841	3735.250148298859	3
0	15847	3735.438768473849	2
0	15852	3735.720897945273	1
0	15861	3736.157255207294	2
0	15863	3740.267819318325	1
0	15871	3741.732116434914	2
0	15874	3743.710223352466	3
0	15878	3744.329607034465	4
0	15879	3744.356205574247	3
0	15884	3745.053110781656	2
0	15890	3745.930388163602	1
0	15896	3746.245639437524	2
0	15901	3748.341393786654	3
0	15903	3749.183195405619	4
0	15904	3749.401501846298	3
0	15910	3749.624158725122	4
0	15912	3751.042179707617	3
0	15917	3751.166473532865	2
0	15922	3751.945205438902	1
0	15928	3753.001515448913	2
0	15929	3753.207293326649	1
0	15934	3757.411903574304	0
0	15955	3763.6188961632	1
0	15956	3764.034215277189	0
0	15967	3764.52402696737	1
0	15968	3764.974918188616	0
0	15983	3770.144133787376	1
0	15985	3770.840237452318	2
0	15990	3773.063367315024	1
0	15998	3775.873661822413	0
0	16020	3777.013530316725	1
0	16025	3780.536525297276	0
0	16036	3785.580820706918	1
0	16037	3786.033507559826	0
0	16045	3787.258515011094	1
0	16049	3788.735994453905	0
0	16073	3792.187371925029	1
0	16076	3794.933617017513	0
0	16082	3796.647444455197	1
0	16083	3796.664748718614	0
0	16111	3800.394139039129	1
0	16112	3802.931296843043	0
0	16147	3810.997539445187	1
0	16152	3812.358870717628	0
0	16165	3814.756382603528	1
0	16166	3815.707912089994	0
0	16177	3816.900005899555	1
0	16180	3817.773206642881	2
0	16181	3818.568015229456	1
0	16189	3818.947656641473	0
0	16195	3819.291759448294	1
0	16205	3823.168594317048	2
0	16208	3824.398309282924	1
0	16213	3824.416436728637	0
0	16227	3827.205928643651	1
0	16232	3828.805689685187	0
0	16248	3831.781926976112	1
0	16251	3832.04206976975	2
0	16252	3832.269681566016	1
0	16257	3833.044256403	0
0	16282	3838.30152796648	1
0	16285	3840.518620411784	0
0	16301	3851.984554850705	1
0	16302	3852.213295033677	0
0	16308	3852.610436420673	1
0	16313	3854.155497643296	2
0	16314	3854.353284530014	1
0	16319	3854.574373676484	0
0	16330	3855.649795408001	1
0	16333	3857.651704745416	0
0	16339	3857.78686994685	1
0	16343	3860.163434934678	0
0	16359	3862.477609588429	1
0	16362	3863.777628511762	0
0	16379	3865.622192828891	1
0	16380	3865.708988369791	0
0	16396	3868.265337323727	1
0	16398	3871.188686823607	2
0	16402	3872.262350470991	3
0	16405	3873.585243149312	2
0	16410	3874.558436620624	1
0	16416	3877.26418470053	0
0	16424	3878.254212122773	1
0	16427	3880.523231910135	2
0	16434	3882.300858371415	1
0	16440	3883.033817423114	0
0	16479	3887.152760151028	1
0	16480	3887.426007459863	0
0	16504	3892.757004030336	1
0	16507	3893.523925604441	0
0	16527	3896.403921557973	1
0	16528	3898.376450829608	0
0	16549	3903.096717088294	1
0	16551	3903.856697096139	2
0	16553	3905.158410238851	1
0	16558	3905.477944501197	0
0	16565	3906.53534851475	1
0	16566	3906.958481537471	0
0	16585	3909.827259569057	1
0	16586	3911.37020164239	0
0	16604	3915.348296381051	1
0	16607	3915.641218190603	0
0	16613	3915.989334641651	1
0	16617	3916.812867241199	2
0	16620	3918.704931131849	1
0	16630	3919.013199158489	2
0	16631	3920.24865803256	1
0	16636	3921.28798812382	0
0	16650	3926.382770565822	1
0	16652	3926.724933247303	0
0	16693	3934.580831289356	1
0	16694	3935.383444333253	0
0	16706	3939.051657970561	1
0	16708	3939.137462475935	2
0	16710	3940.136549134177	3
0	16712	3940.261579154046	4
0	16714	3941.605413867048	3
0	16719	3941.881422449244	2
0	16724	3942.043870273703	1
0	16729	3942.07971878087	0
0	16743	3943.791049365375	1
0	16750	3949.338772321372	0
0	16856	3972.996048203125	1
0	16858	3973.954411271779	2
0	16859	3975.303894558332	1
0	16864	3976.020854297334	0
0	16880	3979.725992421	1
0	16881	3982.060452642089	0
0	16902	3985.258107047111	1
0	16904	3986.846397381514	0
0	16943	3995.657821649384	1
0	16944	3996.010781142772	0
0	16975	4000.176303788133	1
0	16976	4000.779026944184	0
0	17019	4011.728011350535	1
0	17022	4015.779267172133	0
0	17046	4021.625033695039	1
0	17047	4021.686341153187	0
0	17058	4023.347446058818	1
0	17062	4024.620511804224	0
0	17073	4025.891439038796	1
0	17075	4026.730006902065	2
0	17081	4028.612711446274	1
0	17086	4028.930713680961	0
0	17118	4033.295479110665	1
0	17122	4035.532789149307	2
0	17125	4037.57998134988	1
0	17133	4038.846477142277	0
0	17142	4040.649446398469	1
0	17147	4041.245091854856	0
0	17162	4046.567583135006	1
0	17163	4047.950076687955	0
0	17169	4048.447592322761	1
0	17173	4050.49960025666	0
0	17202	4057.620669362439	1
0	17203	4057.960320444767	0
0	17220	4060.544336765232	1
0	17226	4066.287755550406	0
0	17233	4066.894726546981	1
0	17236	4067.606745937871	0
0	17252	4069.609351328979	1
0	17253	4069.91504230107	0
0	17265	4070.785045036767	1
0	17271	4071.603655078641	2
0	17275	4074.483683216233	3
0	17277	4074.642640654907	4
0	17278	4074.709936377745	3
0	17284	4076.08418678475	2
0	17289	4076.202392148735	1
0	17296	4077.25558071912	0
0	17318	4084.190020568874	1
0	17321	4085.401664847374	0
0	17349	4095.130239047755	1
0	17350	4096.260429488124	0
0	17357	4098.098377099097	1
0	17358	4098.196107173116	0
0	17371	4099.282545510032	1
0	17373	4099.441845710415	2
0	17376	4101.303940967408	1
0	17383	4102.031255585809	2
0	17386	4102.158254305491	3
0	17389	4102.360888276495	2
0	17397	4102.97963690666	3
0	17399	4103.805421915041	2
0	17407	4105.546308391531	1
0	17412	4105.667253339919	0
0	17435	4111.363652314979	1
0	17436	4112.051985507917	0
0	17481	4119.804312553132	1
0	17483	4119.849708528484	2
0	17486	4120.63304076041	3
0	17487	4120.926186537577	2
0	17494	4121.503168762944	3
0	17495	4122.558724554793	2
0	17500	4122.574698383764	1
0	17505	4122.724559359216	0
0	17511	4123.000845763777	1
0	17513	4123.146213997942	2
0	17514	4124.429120658775	1
0	17520	4124.843658190871	0
0	17526	4125.48054555818	1
0	17529	4125.788817403146	2
0	17530	4127.713884111449	1
0	17537	4128.816776825976	0
0	17545	4130.686900948123	1
0	17547	4131.207674369212	2
0	17550	4133.155934376139	1
0	17555	4133.285856587797	0
0	17571	4135.817457662581	1
0	17573	4136.422991666959	0
0	17580	4136.634434896041	1
0	17583	4137.219274568844	0
0	17589	4138.08778869785	1
0	17590	4138.736776085642	0
0	17660	4162.079961869682	1
0	17662	4162.459085220876	2
0	17664	4162.520545783794	3
0	17665	4165.339228747556	2
0	17672	4166.303281324483	1
0	17679	4168.136051717204	0
0	17715	4174.457898792664	1
0	17717	4175.461498630764	2
0	17718	4176.793889210271	1
0	17724	4177.500336983665	0
0	17730	4178.822003507282	1
0	17732	4179.17900352255	2
0	17734	4180.781973004445	1
0	17747	4184.933010051536	2
0	17751	4187.263864045476	3
0	17754	4188.270436133284	2
0	17762	4188.613870483708	3
0	17767	4189.839011332216	4
0	17768	4189.98208967707	3
0	17773	4190.020230063007	2
0	17779	4190.084009652252	3
0	17782	4190.615745048782	2
0	17789	4192.832314393266	3
0	17791	4193.295628603353	4
0	17792	4193.343013182676	3
0	17801	4195.319228012061	2
0	17807	4196.242884817214	1
0	17812	4197.533506583906	0
0	17824	4199.209213366623	1
0	17826	4199.298001966081	2
0	17827	4200.650261935897	1
0	17834	4201.502643829332	0
0	17847	4201.776911549649	1
0	17849	4203.429027844295	0
0	17959	4233.060837491189	1
0	17960	4233.17925678487	0
0	17969	4235.389101878686	1
0	17970	4235.726976591254	0
0	17987	4240.691628954335	1
0	17990	4241.233095464141	2
0	17991	4241.51622643416	1
0	17998	4243.260788198115	0
0	18018	4245.775501646059	1
0	18022	4246.592247872925	0
0	18028	4246.615062097058	1
0	18029	4247.046489420069	0
0	18042	4248.034648169675	1
0	18046	4248.87923741808	0
0	18071	4259.50848261388	1
0	18072	4260.001106724447	0
0	18085	4261.086496692788	1
0	18086	4261.317856669713	0
0	18092	4262.159607638006	1
0	18094	4262.64733181477	0
0	18129	4271.424680338944	1
0	18130	4271.745043021376	0
0	18143	4273.639518095619	1
0	18146	4273.985389654035	2
0	18149	4274.342811686126	1
0	18158	4274.96108411842	0
0	18170	4279.392368935648	1
0	18171	4280.489133698532	0
0	18188	4284.432339796344	1
0	18191	4286.821731864334	0
0	18197	4287.071514698222	1
0	18198	4287.410594779183	0
0	18210	4287.648620801506	1
0	18212	4288.0813886908	0
0	18338	4319.339749149768	1
0	18339	4319.472255384033	0
0	18374	4330.807516917503	1
0	18375	4331.172584765819	0
0	18381	4331.446325806626	1
0	18382	4331.750799710463	0
0	18406	4336.957709002792	1
0	18408	4337.105368273305	2
0	18409	4337.523927012136	1
0	18414	4338.949876384336	0
0	18429	4340.260546767666	1
0	18430	4341.83833352071	0
0	18436	4342.05579234711	1
0	18439	4343.09863782317	2
0	18442	4344.26290396598	3
0	18443	4344.362709175492	2
0	18448	4345.707364740627	1
0	18453	4345.722166271245	0
0	18516	4361.992846172234	1
0	18517	4362.276377142402	0
0	18539	4364.488409098923	1
0	18541	4364.926499239216	2
0	18544	4365.410112980211	3
0	18545	4366.348419664318	2
0	18553	4366.708467423073	3
0	18554	4366.725218075725	2
0	18559	4367.300207733412	1
0	18565	4369.402375274946	0
0	18578	4370.788817619653	1
0	18581	4371.681913378911	0
0	18587	4371.879477346112	1
0	18594	4373.338453818135	0
0	18618	4377.347876104923	1
0	18619	4378.135717451536	0
0	18639	4382.592731186496	1
0	18642	4383.981215578818	0
0	18654	4386.504597484348	1
0	18662	4389.241091704312	0
0	18677	4393.16475521771	1
0	18678	4394.050954729663	0
0	18687	4396.776853364565	1
0	18688	4396.809339181441	0
0	18694	4397.54004614679	1
0	18698	4398.570246197281	2
0	18702	4400.326393849644	3
0	18703	4400.652607984795	2
0	18710	4401.046106601585	3
0	18713	4401.414569426616	2
0	18720	4401.899183286365	1
0	18725	4401.933945124415	0
0	18731	4402.689983788984	1
0	18732	4403.694553195562	0
0	18745	4404.9249594452	1
0	18746	4405.010484809748	0
0	18752	4405.247769934877	1
0	18754	4405.519740566402	0
0	18783	4413.884117681762	1
0	18784	4414.027580520958	0
0	18790	4414.86722604512	1
0	18793	4415.561346186761	0
0	18809	4418.540450478475	1
0	18812	4421.310197817033	0
0	18828	4429.687834028666	1
0	18834	4433.334573308843	2
0	18838	4433.771109651362	3
0	18839	4434.466827130282	2
0	18847	4438.623248325986	1
0	18853	4438.848604020579	2
0	18855	4439.38417096992	3
0	18857	4440.408991203683	2
0	18862	4441.307357513476	1
0	18870	4442.384908875124	2
0	18871	4443.162254705352	1
0	18877	4445.116601247708	0
0	18898	4451.995210783743	1
0	18899	4452.528732198928	0
0	18920	4455.02004493863	1
0	18921	4455.442961540525	0
0	18955	4460.582909622243	1
0	18957	4461.439561416529	2
0	18958	4462.441398840484	1
0	18964	4464.278027721523	0
0	18971	4464.471884530529	1
0	18972	4464.868022412762	0
0	18988	4467.599974729973	1
0	18989	4467.923210681961	0
0	18999	4469.278109762337	1
0	19006	4474.995561635133	0
0	19017	4476.364928886878	1
0	19018	4476.783281821956	0
0	19026	4477.078698947	1
0	19028	4477.987309872944	2
0	19029	4478.174994480367	1
0	19034	4479.412796126845	0
0	19040	4479.427018292901	1
0	19046	4483.578336074419	2
0	19047	4484.405879570852	1
0	19053	4484.79139075306	2
0	19055	4485.117605888471	1
0	19060	4485.123375966395	0
0	19066	4485.168769800324	1
0	19069	4485.76790188488	0
0	19093	4490.08535307172	1
0	19094	4490.089030764612	0
0	19102	4491.089776706606	1
0	19103	4491.43109766321	0
0	19136	4495.150021469493	1
0	19137	4495.60714636519	0
0	19143	4496.775677078312	1
0	19144	4496.846376204784	0
0	19170	4503.557575363516	1
0	19171	4503.957528688428	0
0	19178	4504.079226194248	1
0	19180	4504.4247081744	0
0	19186	4504.797242705487	1
0	19189	4505.556211131277	2
0	19191	4507.243578783274	1
0	19196	4507.27835943379	0
0	19207	4508.306813831132	1
0	19211	4510.112439413143	2
0	19212	4511.042640311726	1
0	19217	4511.191058011404	0
0	19254	4523.433539048583	1
0	19255	4523.623260097048	0
0	19259	4523.709929969103	1
0	19267	4525.094799768109	0
0	19273	4525.527841254547	1
0	19275	4525.702889294802	2
0	19277	4526.307704663615	1
0	19283	4528.652019479347	2
0	19284	4528.763916692284	1
0	19289	4529.501119070889	0
0	19295	4531.517947317082	1
0	19296	4531.778325675405	0
0	19311	4535.37212317903	1
0	19314	4536.123083890192	0
0	19325	4536.697595383473	1
0	19326	4536.875094826152	0
0	19337	4537.767112455825	1
0	19341	4538.439292697508	2
0	19342	4538.95951564579	1
0	19347	4539.27056364049	0
0	19359	4539.93372397167	1
0	19361	4540.022307668823	0
0	19365	4540.644377616283	1
0	19368	4542.679325447663	0
0	19381	4544.623013174827	1
0	19387	4546.923589483496	2
0	19389	4551.103463383863	1
0	19394	4552.178641510546	0
0	19415	4554.040766590913	1
0	19423	4561.633480851134	0
0	19434	4562.490630438293	1
0	19436	4563.135268483946	0
0	19460	4564.940206290579	1
0	19463	4571.068589140746	0
0	19535	4588.400890075384	1
0	19536	4589.043565592253	0
0	19542	4589.245744528573	1
0	19543	4589.552110440286	0
0	19555	4591.174962656111	1
0	19557	4593.046313709807	0
0	19564	4593.133414457979	1
0	19566	4594.294748673637	0
0	19572	4594.921617308566	1
0	19574	4596.222741881285	0
0	19580	4596.55616802225	1
0	19583	4599.133088462443	0
0	19622	4613.201272499985	1
0	19625	4615.202243132065	0
0	19645	4619.953902231346	1
0	19647	4620.371678294408	2
0	19648	4621.693640432325	1
0	19655	4622.314947692862	0
0	19667	4624.164800014154	1
0	19668	4625.00798488863	0
0	19674	4625.114204276875	1
0	19675	4625.171065579398	0
0	19695	4630.237002900164	1
0	19697	4630.651479993036	2
0	19700	4632.244644180683	1
0	19710	4634.085201640035	0
0	19716	4634.463373079331	1
0	19717	4634.851658711117	0
0	19728	4635.435411347982	1
0	19730	4636.356898155331	0
0	19742	4639.614426064205	1
0	19756	4645.95315540743	0
0	19771	4649.439337381411	1
0	19773	4649.868708694589	2
0	19775	4649.879098792901	3
0	19777	4649.951191089159	4
0	19780	4651.145491541057	3
0	19785	4651.314721486527	2
0	19795	4653.046355604251	1
0	19803	4655.311879092489	0
0	19815	4656.762408006913	1
0	19817	4656.908959851534	2
0	19818	4658.390337602814	1
0	19824	4659.342022474011	2
0	19828	4661.134735225007	3
0	19829	4661.438683585106	2
0	19836	4662.263875493473	1
0	19842	4662.847303712232	2
0	19843	4663.637878749572	1
0	19848	4664.547029691657	0
0	19862	4666.128791155004	1
0	19863	4668.037622040008	0
0	19877	4670.145836808454	1
0	19881	4670.411948579591	2
0	19883	4670.520793367029	1
0	19888	4670.602855531544	0
0	19899	4672.027540402168	1
0	19902	4673.590800204117	0
0	19908	4673.859956694035	1
0	19910	4675.089526821851	0
0	19937	4680.780132721866	1
0	19940	4681.161565937431	2
0	19942	4681.265620262885	3
0	19945	4684.67131468933	4
0	19946	4686.566181195233	3
0	19953	4687.330671937227	2
0	19959	4687.429589229316	3
0	19961	4687.911699069012	4
0	19962	4688.032070671989	3
0	19967	4688.285730703581	2
0	19973	4690.045627985807	1
0	19979	4690.271514030183	0
0	19993	4695.348641979093	1
0	19994	4695.822845620524	0
0	20001	4696.717477239055	1
0	20002	4697.736680767979	0
0	20008	4697.855974890987	1
0	20009	4698.05134681745	0
0	20025	4698.836869194501	1
0	20026	4698.890894867182	0
0	20053	4701.764761610767	1
0	20054	4701.828648545346	0
0	20067	4703.214541033849	1
0	20071	4703.551705537567	2
0	20075	4706.329176874399	1
0	20080	4706.378172525218	0
0	20089	4707.742858612735	1
0	20091	4708.186216956733	2
0	20093	4708.744583184721	3
0	20094	4709.049492154021	2
0	20100	4709.737159059443	1
0	20106	4709.966154952433	0
0	20112	4710.168757939696	1
0	20114	4710.610745579016	2
0	20115	4711.989346925329	1
0	20120	4713.138451345472	0
0	20131	4714.571867889243	1
0	20135	4714.699378057149	2
0	20137	4715.193177546752	1
0	20149	4717.572538723533	2
0	20152	4718.664173752314	1
0	20157	4719.245492757454	0
0	20189	4723.405999201893	1
0	20190	4723.677310441862	0
0	20233	4735.130696518724	1
0	20237	4737.155940856456	0
0	20251	4737.649475575927	1
0	20258	4739.663382361933	2
0	20259	4740.56162266334	1
0	20265	4741.07669155258	0
0	20272	4742.409538724155	1
0	20275	4745.452695278587	0
0	20288	4746.663906617022	1
0	20290	4747.7557422233	0
0	20336	4762.730322649559	1
0	20338	4764.470550535624	0
0	20344	4764.471782074033	1
0	20346	4765.388087995527	0
0	20359	4766.118458387382	1
0	20361	4766.432973452467	2
0	20363	4768.001029674027	3
0	20365	4769.964241312067	2
0	20373	4773.544733658068	1
0	20382	4774.626459295578	2
0	20383	4777.325019662913	1
0	20388	4777.695334316063	0
0	20416	4782.257954758926	1
0	20419	4783.899872259283	0
0	20543	4839.746953036078	1
0	20545	4840.617844221246	2
0	20546	4841.222297989944	1
0	20555	4842.369591109736	0
0	20601	4852.71902996165	1
0	20603	4853.986754400723	2
0	20604	4855.223983155813	1
0	20609	4855.413073272623	0
0	20669	4864.25019749448	1
0	20671	4865.11538453285	0
0	20686	4868.989623101233	1
0	20691	4870.159226933263	0
0	20769	4891.486400005587	1
0	20771	4891.518216356941	2
0	20773	4892.157819778527	3
0	20776	4893.538654468937	2
0	20782	4893.716739630987	1
0	20787	4893.822098530437	0
0	20796	4894.565183270501	1
0	20798	4896.104585762805	2
0	20802	4896.329341775686	3
0	20803	4896.617281311159	2
0	20809	4897.023961888093	1
0	20816	4897.468512297394	0
0	20822	4897.729053672931	1
0	20825	4898.14300564211	2
0	20828	4898.289843409268	3
0	20829	4898.36666094518	2
0	20836	4899.262012897496	3
0	20843	4901.420173379979	2
0	20848	4901.915214331911	1
0	20853	4902.049263891452	0
0	20860	4902.628125764214	1
0	20861	4902.667858246011	0
0	20901	4909.790683727387	1
0	20902	4910.462582030605	0
0	20928	4913.797262128552	1
0	20930	4914.220297077642	2
0	20931	4914.826543600168	1
0	20937	4915.578362902648	0
0	20972	4934.906732304761	1
0	20974	4935.148153894312	2
0	20975	4935.620032672464	1
0	20981	4935.846020017947	0
0	20995	4937.179564008239	1
0	20998	4941.041890481448	2
0	20999	4941.353526870702	1
0	21005	4941.653255793875	2
0	21008	4942.689962548299	3
0	21010	4944.199055862035	4
0	21014	4944.939933724035	5
0	21015	4945.265626198112	4
0	21020	4946.057369418708	3
0	21025	4946.60303414741	2
0	21030	4947.307284682201	1
0	21035	4947.669381117433	0
0	21039	4948.77675387313	1
0	21041	4949.227661578271	2
0	21048	4951.765565539981	3
0	21049	4951.776649701162	2
0	21054	4952.100414930777	1
0	21062	4953.843189954686	0
0	21078	4955.229789166482	1
0	21080	4955.255387813562	2
0	21082	4955.293688564195	3
0	21085	4956.125050621277	2
0	21093	4957.357847088081	1
0	21099	4958.83568168232	0
0	21118	4960.836306327225	1
0	21120	4961.302394213945	2
0	21122	4961.695437371837	3
0	21123	4961.920764798243	2
0	21128	4962.423024684696	1
0	21136	4966.018207610245	0
0	21169	4969.207962290226	1
0	21171	4969.62204322432	2
0	21179	4972.047740644827	1
0	21184	4972.17940254435	0
0	21203	4974.802044933527	1
0	21205	4975.497490015208	2
0	21206	4975.584944711203	1
0	21212	4975.942027886635	2
0	21220	4978.63375193264	3
0	21221	4978.805141692174	2
0	21229	4980.004219214425	3
0	21231	4981.97177743798	2
0	21237	4982.392001369969	3
0	21239	4983.271503952859	2
0	21246	4985.132697664227	1
0	21255	4986.050279424129	2
0	21256	4986.59287680713	1
0	21263	4987.117511155994	2
0	21264	4987.306414724627	1
0	21270	4987.587059881829	2
0	21272	4988.739323505305	3
0	21273	4989.301969995301	2
0	21278	4989.621274726871	1
0	21283	4989.994467306533	0
0	21293	4991.560253564167	1
0	21299	4994.26613561901	0
0	21313	5000.126688691746	1
0	21315	5001.086518463834	0
0	21331	5003.351605072288	1
0	21336	5005.651101697794	0
0	21342	5005.74695274246	1
0	21343	5005.877648866519	0
0	21358	5008.332992547368	1
0	21360	5009.695490307162	2
0	21362	5012.702298706746	3
0	21365	5013.919324984614	2
0	21370	5014.184954104056	1
0	21377	5014.860310552911	2
0	21378	5014.89016537183	1
0	21383	5014.916764777714	0
0	21389	5015.058553421079	1
0	21392	5016.004489855388	0
0	21406	5019.401746779609	1
0	21408	5019.996764071559	2
0	21409	5020.107704863555	1
0	21414	5020.123459456945	0
0	21420	5020.602693645941	1
0	21424	5020.983767741344	2
0	21427	5021.961632426128	1
0	21432	5022.638025157977	0
0	21436	5022.742483019847	1
0	21440	5026.657921309999	0
0	21444	5026.689146350191	1
0	21451	5029.443403842657	0
0	21468	5030.451857845165	1
0	21471	5031.181396830209	0
0	21508	5038.763765934476	1
0	21509	5039.25918506889	0
0	21523	5043.62312499733	1
0	21526	5045.7840534235	0
0	21537	5048.246999216024	1
0	21539	5051.506199301513	2
0	21543	5052.518831791277	3
0	21544	5052.727486503269	2
0	21550	5052.825376060782	3
0	21552	5054.425347859139	2
0	21559	5054.704017407865	3
0	21563	5055.202489257561	4
0	21566	5056.033393696086	3
0	21573	5057.033827479074	2
0	21579	5057.053957132971	3
0	21580	5057.161616440852	2
0	21586	5057.577955432613	1
0	21592	5057.707961727048	2
0	21594	5058.536857561458	3
0	21598	5059.604736508826	4
0	21601	5060.687216701398	3
0	21610	5062.274525486633	2
0	21615	5062.661439460365	1
0	21620	5063.017670137355	0
0	21658	5071.25835015188	1
0	21661	5075.053916767423	0
0	21671	5077.09736751533	1
0	21675	5078.887913541115	2
0	21677	5080.511939085382	3
0	21678	5080.749603224728	2
0	21683	5080.754280926413	1
0	21688	5081.78502247555	0
0	21715	5087.237906338475	1
0	21719	5088.781982747015	2
0	21723	5089.900405248266	3
0	21724	5090.594516568936	2
0	21730	5090.732763867135	3
0	21731	5091.122786211988	2
0	21737	5091.359452902231	1
0	21742	5091.639875363843	0
0	21748	5092.316103710874	1
0	21750	5092.633387335039	2
0	21753	5093.496335510996	1
0	21758	5094.207420196766	0
0	21765	5094.408819796605	1
0	21767	5095.148978212057	2
0	21769	5095.519139905227	3
0	21771	5095.803993565549	4
0	21772	5095.855681411435	3
0	21779	5096.212970990757	2
0	21785	5097.631569529177	3
0	21787	5097.71701061859	4
0	21791	5098.787297162001	5
0	21792	5098.838261874961	4
0	21796	5099.276790174888	5
0	21803	5100.284809207791	4
0	21813	5103.118741002712	3
0	21826	5106.433955209754	4
0	21827	5106.653952841107	3
0	21832	5106.746463342803	2
0	21839	5109.33215662321	1
0	21847	5110.730160148481	2
0	21848	5111.63039853984	1
0	21853	5112.536957130095	0
0	21883	5117.148247841662	1
0	21886	5117.721514599482	0
0	21905	5119.892088579816	1
0	21907	5120.144950279981	2
0	21915	5123.647553650063	1
0	21921	5124.464703494157	2
0	21923	5125.453163788484	1
0	21928	5125.594480002332	0
0	21940	5127.911970324874	1
0	21942	5128.724863442651	2
0	21943	5128.787964858237	1
0	21948	5129.326803270694	0
0	21966	5132.941998207654	1
0	21967	5133.350539532278	0
0	21971	5133.425161432257	1
0	21978	5134.885741981283	0
0	21985	5137.313182447461	1
0	21988	5137.789130317359	2
0	21991	5139.643656244026	1
0	21996	5141.170239247139	0
0	22026	5146.129897415829	1
0	22027	5146.295195421334	0
0	22034	5147.072922927634	1
0	22035	5147.362259212013	0
0	22052	5154.545285655788	1
0	22053	5154.739099612785	0
0	22098	5164.379323246818	1
0	22100	5165.67706443086	2
0	22101	5167.04644416134	1
0	22106	5167.797464322973	0
0	22131	5175.662984292827	1
0	22132	5177.234557114217	0
0	22145	5179.156454810653	1
0	22146	5179.385491158533	0
0	22159	5180.852950686216	1
0	22165	5181.797253637097	2
0	22169	5184.105105766582	1
0	22174	5184.750677532796	0
0	22183	5186.051559944484	1
0	22184	5186.61371473488	0
0	22199	5189.289630911234	1
0	22202	5191.876736537262	0
0	22217	5193.696418983085	1
0	22218	5193.968186386277	0
0	22226	5194.265154238099	1
0	22229	5196.027464552182	0
0	22323	5220.860200740536	1
0	22325	5221.132241970141	2
0	22326	5222.604192416148	1
0	22334	5224.815788615628	0
0	22340	5225.178322059064	1
0	22342	5225.656751297633	2
0	22344	5226.256480522117	3
0	22347	5226.389254257247	2
0	22354	5226.777099098193	3
0	22355	5227.405193176127	2
0	22361	5228.087464856568	1
0	22366	5228.260960506549	0
0	22370	5229.277426041534	1
0	22374	5230.834288917718	2
0	22378	5231.327898290482	3
0	22379	5232.334503789809	2
0	22384	5233.242444046249	1
0	22391	5235.793607348504	2
0	22392	5235.915748355191	1
0	22397	5236.859834126477	0
0	22401	5237.742758644086	1
0	22408	5239.241937652136	0
0	22414	5240.114731588423	1
0	22416	5240.719428145772	2
0	22418	5243.020486702042	3
0	22422	5244.88818866479	4
0	22425	5245.82342594765	3
0	22432	5248.569554424294	4
0	22433	5248.753350604447	3
0	22439	5248.944155725993	4
0	22442	5249.358433005187	5
0	22445	5250.506543463313	6
0	22446	5250.673007606967	5
0	22452	5251.13234170396	6
0	22454	5251.243561826348	7
0	22455	5251.301472909256	6
0	22460	5252.344283945989	5
0	22466	5255.599932887656	4
0	22472	5255.644756174324	3
0	22477	5255.838749437079	2
0	22481	5255.939496032193	3
0	22486	5256.520977263395	2
0	22490	5256.690234742084	3
0	22492	5257.969009383939	4
0	22499	5260.749460788693	3
0	22508	5261.453254688886	4
0	22514	5264.173287859417	3
0	22519	5264.188556225734	2
0	22525	5265.122568650422	1
0	22531	5265.263052051966	0
0	22544	5267.687221454626	1
0	22547	5269.890674817102	0
0	22560	5271.549722454791	1
0	22561	5271.935633338874	0
0	22572	5272.089657701009	1
0	22574	5272.978661437377	0
0	22585	5273.225338496666	1
0	22587	5273.601126048321	0
0	22596	5273.860664958941	1
0	22597	5273.959650948192	0
0	22620	5275.60220559103	1
0	22621	5276.229885310132	0
0	22647	5281.170147868642	1
0	22649	5281.381884245489	2
[...]
4	117029	27716.533065204812	15.211796947359
4	117035	27717.30384522763	7.538176344839
4	117039	27717.642927938006	3.761282457493
4	117076	27723.876168291898	5.365827119271
4	117114	27737.383279022258	17.968123229146
4	117124	27738.8392241898	13.494432202176
4	117150	27744.302200724084	1.383930319512
4	117157	27744.854859017998	0.179213408523
4	117193	27760.109154029317	1.113203785826
4	117197	27760.844296653758	0.790163322479
4	117249	27772.388005103608	1.290173315845
4	117261	27776.167405064052	1.189463553761
4	117276	27780.079910273356	0.210103874793
4	117295	27784.512005838771	1.662665625896
4	117331	27792.089707576599	2.122835819989
4	117352	27797.964581870807	7.266177117726
4	117356	27798.741509434206	3.753190261825
4	117373	27805.421729223723	3.818043759344
4	117399	27810.438428417095	5.269749175664
4	117408	27812.393845219242	5.100207166058
4	117438	27821.694596854107	0.532885647256
4	117462	27829.633658977469	0.395582540196
4	117469	27833.695427712046	0.269782243904
4	117481	27836.788743969494	1.110375841065
4	117491	27837.517711613554	1.730217228971
4	117516	27842.434210627663	0.068894240321
4	117528	27850.284463927248	1.867378002652
4	117554	27855.113384484712	4.935327318355
4	117561	27855.33617757565	2.117142295897
4	117570	27856.657230205241	1.610195920637
4	117596	27867.532126325628	5.328534540694
4	117652	27874.086486919824	11.801826474892
4	117668	27878.892769568325	15.346065431938
4	117691	27880.588114832178	12.036936426386
4	117704	27884.707919944484	10.725062866681
4	117711	27886.457030295882	5.926768960927
4	117719	27888.625148235431	3.136098098557
4	117743	27898.203707652589	1.498538259182
4	117771	27902.008296239311	1.048378459442
4	117784	27902.935339377022	0.21695603838
4	117804	27908.961472975691	0.320120215478
4	117827	27912.264356651156	0.384125471933
4	117835	27913.25517820918	0.866068339318
4	117851	27914.809313458159	0.817649719858
4	117867	27917.883840245792	1.796584467724
4	117885	27923.48133104527	4.480560848554
4	117958	27939.203297078908	4.623764379372
4	117962	27941.449987437889	6.526309984125
4	117978	27944.1727325595	0.02541273892
4	118026	27956.279146581083	6.833732149698
4	118046	27961.367951920231	9.758148369831
4	118079	27967.147549608693	6.276140173568
4	118083	27967.792293738271	4.448931499825
4	118096	27971.602994864917	2.617596543836
4	118130	27977.036129525521	6.920817932986
4	118139	27977.366737482357	2.911010264121
4	118173	27988.483766166602	0.204012027561
4	118183	27990.161138665441	0.525081205661
4	118190	27991.617353109613	1.939305652339
4	118194	27992.162617465455	1.663212918563
4	118204	28001.725589031659	1.999957622695
4	118242	28013.7871306905	1.450738445699
4	118264	28016.461936989201	0.241447798107
4	118321	28023.812772690738	0.800207219083
4	118419	28050.623734854351	1.165293572414
4	118449	28064.412371814004	3.152778877964
4	118458	28065.900978918581	3.421226288665
4	118478	28073.262494227234	1.858724399313
4	118534	28095.110062471131	4.221376913266
4	118589	28108.224725480274	8.956821394383
4	118611	28112.231343014833	12.952298130854
4	118641	28118.080636291705	11.785756367158
4	118651	28119.182926930307	6.717870161866
4	118655	28119.249939961837	2.080548852678
4	118669	28123.728759595194	4.307418101446
4	118702	28131.533503032571	10.686723438768
4	118709	28132.87629546789	7.971312444393
4	118714	28133.933177417247	2.850737620876
4	118719	28134.792473190524	2.850885214306
4	118734	28141.01130609919	0.131549364858
4	118746	28145.125837718309	2.715043216913
4	118759	28151.738164773069	8.037867175999
4	118774	28152.369722159587	7.7799725852
4	118778	28152.543575651034	5.421416028196
4	118792	28157.880242017506	4.499298054414
4	118800	28162.706194452935	7.780697780526
4	118807	28163.727277394987	8.668073920128
4	118822	28168.293436125242	7.136931319277
4	118857	28173.469467912332	2.005356160152
4	118865	28175.63615855927	1.946519607466
4	118878	28183.099645761672	5.345697254124
4	118898	28187.791927277939	7.709334930757
4	118948	28203.680164791996	11.2147570016
4	118972	28208.597646371988	10.533897035895
4	118989	28213.674730962685	15.506185747783
4	118994	28214.536631405753	16.006678897425
4	119009	28220.258528198636	9.090471025049
4	119037	28225.781340477621	14.524777331823
4	119088	28236.971377946504	18.26241709156
4	119093	28236.997317254669	16.876251571369
4	119100	28239.312905132567	12.381521612929
4	119107	28240.078798957831	8.44900727952
4	119113	28240.858959608471	7.567859800549
4	119117	28241.37992751287	2.140413656598
4	119168	28254.846743236318	3.934622562215
4	119300	28277.456926557229	21.746681436465
4	119312	28278.712045926013	6.408495488987
4	119349	28286.55119172211	10.422812511891
4	119359	28286.749703062926	10.025320856426
4	119365	28287.655054426163	10.791926830157
4	119373	28292.986073835698	13.980412414513
4	119384	28296.042924168835	4.913114549983
4	119431	28306.466759920316	9.677150860386
4	119492	28316.812206024229	18.1423608518
4	119498	28318.984307830084	5.54633548714
4	119506	28321.309804069289	7.742561931262
4	119513	28323.666869328463	9.261975866098
4	119521	28325.047638629753	9.95285921928
4	119535	28327.310971165491	6.909328537337
4	119545	28328.743754565849	2.008488576669
4	119579	28335.086214826683	0.092104412314
4	119613	28346.254878132709	1.04735761495
4	119624	28353.565737971749	2.353220455508
4	119636	28359.42510536018	2.012735203174
4	119650	28365.579202994514	2.19518382578
4	119693	28370.790543047881	4.587959922868
4	119724	28377.124166483198	8.548798792526
4	119729	28377.160596024599	1.244551134416
4	119734	28378.465347574491	2.186247679519
4	119742	28383.463969121186	1.641983972706
4	119756	28387.138952055311	3.642238548731
4	119792	28398.612176180025	2.990994423751
4	119843	28407.340066927549	7.421394808062
4	119848	28407.778170869148	6.358610109379
4	119855	28408.308622112173	5.934483218492
4	119869	28410.210469194525	4.476347885367
4	119882	28413.74850629341	5.005252361504
4	119913	28419.119118144908	6.227281344135
4	119922	28419.400344636039	4.415298919892
4	119937	28420.924268655292	1.437793797335
4	119965	28426.15783438537	6.586636210524
4	119969	28427.12822262402	2.206586544256
4	120005	28434.475207845197	0.700217473128
4	120009	28434.771065143335	0.735922278165
4	120042	28450.508620976328	11.92628903412
4	120050	28453.773256183133	8.416012793607
4	120056	28457.795130454772	6.74461849651
4	120063	28462.65589043053	0.385497423695
4	120079	28473.270055414291	2.859332202995
4	120097	28478.586551652626	7.140831388582
4	120116	28483.224750755383	11.35366887635
4	120433	28567.803629559321	87.552713883615
4	120440	28568.55282990717	80.99866672499
4	120447	28568.996628879124	68.894468454195
4	120452	28570.845761515711	50.389856367935
4	120461	28571.855201276886	44.287422433119
4	120475	28576.038282181229	47.871393423309
4	120493	28579.612656649213	47.859133588842
4	120513	28582.336250534926	43.172281265523
4	120520	28582.877150043851	37.857456680172
4	120527	28584.105584628434	34.063559111174
4	120535	28586.543098883874	29.259148037799
4	120545	28588.756056815546	27.247532610596
4	120551	28590.922663813318	23.960559698137
4	120563	28595.327239909721	27.285264324135
4	120576	28597.214085691199	28.581389605024
4	120581	28598.419534548255	27.143976452216
4	120588	28599.656644663472	22.726169346094
4	120605	28604.167037728923	27.026673728081
4	120638	28610.945038482181	28.475808279365
4	120665	28615.757028883278	32.082779341849
4	120681	28616.556731836909	24.447753504051
4	120692	28621.808589654826	28.768426463883
4	120697	28622.683475964487	26.907854364672
4	120703	28625.66771833987	20.388100255381
4	120710	28626.950043650903	20.743524908623
4	120721	28629.527977496726	22.984108502541
4	120741	28631.652193560348	22.302862222805
4	120746	28631.989655496853	21.164961815143
4	120753	28633.594195698543	19.514816366593
4	120765	28634.267528297082	18.714381318529
4	120772	28635.917938075396	14.693685192533
4	120789	28641.052980488343	14.557271253041
4	120798	28645.777182849387	17.251363158753
4	120812	28651.010483123797	19.744840402751
4	120834	28658.444753397761	24.432403498151
4	120844	28659.85144556251	23.202902340157
4	120852	28663.949468295546	24.547689390479
4	120874	28670.244911913024	27.923276493795
4	120879	28670.829482187194	17.855824281047
4	120892	28675.320594089239	6.122195708542
4	120917	28680.908287498927	9.360759210923
4	120933	28681.932978576309	8.273341804256
4	120938	28682.020624391491	5.622432635126
4	120945	28683.005246028723	3.169005738323
4	120953	28684.230610401611	1.9973982107
4	120970	28689.074849730698	1.369703343301
4	120981	28689.887357331648	2.113360214418
4	121049	28707.839350866121	18.732705002924
4	121060	28708.288294446571	8.998347513246
4	121067	28709.486945529624	1.593256469261
4	121092	28715.694354734413	2.11068910578
4	121119	28719.106378549917	2.23135387908
4	121144	28724.864574166613	0.296362940425
4	121159	28728.387490779553	0.286239828178
4	121166	28730.182671197931	1.512589650145
4	121193	28738.070398798103	0.616033654163
4	121197	28741.108286876166	3.101943888503
4	121212	28751.634135805679	1.171443582841
4	121224	28754.45128236575	1.540040032089
4	121245	28757.047244982734	0.936695107395
4	121265	28765.237450382571	2.795969890104
4	121278	28769.703168812227	1.902432964847
4	121316	28781.936247533795	2.067655478418
4	121320	28783.644623246472	2.445473877489
4	121327	28787.423000721259	1.899062137548
4	121351	28801.421239517057	0.650366794586
4	121415	28817.814132164504	1.277831122843
4	121419	28818.456553345657	0.898600417143
4	121448	28823.858981270956	2.017810886831
4	121454	28827.081464234878	3.306281114698
4	121464	28829.075112172432	0.93404382237
4	121497	28834.800979206663	0.691691060709
4	121509	28840.56103301596	0.017236448166
4	121521	28845.120397168997	3.611298358762
4	121542	28850.313284538605	2.840745411831
4	121570	28854.536071936496	2.012773816697
4	121632	28866.948118649014	8.554397933078
4	121648	28870.435823126675	11.685926890694
4	121668	28873.990841147768	10.605872998842
4	121679	28875.284575451907	10.551606075956
4	121693	28882.475859170123	10.148102780412
4	121732	28888.875112556053	2.352002684683
4	121736	28888.932818872597	0.134895368645
4	121770	28897.015575339133	4.823439277303
4	121785	28903.581652607071	8.279527897222
4	121815	28907.27676150045	9.667114290521
4	121820	28907.406368680888	7.62887885625
4	121827	28909.254653617471	4.775825744306
4	121860	28917.96808132019	10.918263657947
4	121881	28920.015987961545	4.858870417022
4	121891	28926.72524349211	10.882094716976
4	121942	28936.667528874993	18.962610152899
4	121947	28936.776082677573	1.01116226469
4	121951	28937.529881781872	1.38588033455
4	122019	28950.665010022947	3.857876458777
4	122073	28964.034863445416	1.329795623015
4	122095	28973.907626001024	0.400873164992
4	122105	28975.941211746817	1.409440623831
4	122109	28976.521058547822	1.870324810814
4	122156	28994.628387459077	4.610004736584
4	122165	28994.952322467853	1.22740951067
4	122187	28999.411108559009	2.024114288457
4	122211	29001.957489618886	3.156975518197
4	122215	29003.928589181628	3.931570063059
4	122279	29017.791877619447	3.5668722766
4	122315	29032.247214443994	3.941165469796
4	122350	29038.967574117719	0.117843317852
4	122362	29047.005936838431	3.029259185192
4	122386	29055.117260880738	3.676947975738
4	122401	29058.594188997089	2.134965906672
4	122431	29064.238376656462	3.132928919543
4	122438	29064.774976082971	0.203793828594
4	122450	29067.96567413613	2.396047727584
4	122459	29069.189629413197	3.590569590758
4	122464	29070.184547297942	3.316027274936
4	122469	29071.891546107684	3.660930588478
4	122478	29074.848709191873	6.446495080558
4	122492	29078.797686910758	4.281815401893
4	122499	29080.017799391549	2.362475625447
4	122522	29082.846854969741	1.743866620979
4	122530	29085.184036127707	2.764607963454
4	122545	29090.357252761095	2.297667993745
4	122552	29091.944713650595	3.2285936547
4	122607	29105.051282112893	1.758527977257
4	122646	29114.751683220331	2.925520345787
4	122669	29118.328660747064	6.279748072884
4	122675	29119.926888432739	2.974680774038
4	122680	29120.370208678676	2.959389220102
4	122687	29120.625566265519	2.777808454773
4	122764	29150.078605099848	0.196910991546
4	122786	29163.525266373532	0.261003343926
4	122884	29185.420206913294	11.444251540976
4	122893	29187.470520689533	3.331923412233
4	123014	29223.588868169514	12.833576899993
4	123045	29228.16448378154	11.662911507446
4	123055	29229.141228324134	11.530756584678
4	123071	29230.755768881855	9.106350190888
4	123076	29232.159830335071	9.564048526957
4	123091	29239.239982590525	15.820219007255
4	123107	29241.164751943469	17.584871907061
4	123112	29243.456056630013	15.094641174165
4	123121	29246.577261246161	17.156994286454
4	123132	29249.380854979662	19.539402167619
4	123139	29254.850184668457	21.120114703505
4	123146	29255.170580666169	17.714098651713
4	123164	29258.033275176113	18.808815469794
4	123190	29260.187427079089	16.721361645508
4	123195	29260.249620802133	4.555816620959
4	123200	29263.723437523064	3.749169041218
4	123215	29268.945048741003	0.106255196949
4	123233	29272.228867721115	1.721052899888
4	123241	29273.673146170978	0.630932447134
4	123359	29296.179953305076	10.900663384095
4	123387	29301.111948527869	13.401706922518
4	123405	29305.548133978884	16.034244657734
4	123447	29312.188323936177	17.840568910147
4	123454	29313.346275974787	17.467932234918
4	123462	29314.987774756653	17.654706948445
4	123467	29315.764582915642	6.016034365701
4	123475	29318.439355240187	7.768226361679
4	123500	29325.57811068086	10.747589315835
4	123527	29336.202913534044	11.863489269996
4	123587	29347.757323393021	9.215530605506
4	123611	29350.774345843756	11.034453003101
4	123616	29351.562693651836	11.489069800106
4	123628	29352.290517305471	6.40570866097
4	123647	29364.530112195775	4.04267442146
4	123655	29366.201457183627	1.4733921526
4	123669	29367.820138763756	1.527816813016
4	123674	29367.825110155912	1.167984669155
4	123679	29368.255325148231	0.722521786272
4	123690	29372.044941941043	4.264001373699
4	123715	29377.321163229851	0.104697137882
4	123745	29384.108136557221	2.135352121434
4	123756	29390.816267431762	8.031908295222
4	123769	29392.230171588658	5.136113930138
4	123774	29393.649232085928	5.39541274861
4	123779	29394.701879384315	2.904371353797
4	123789	29395.159040386119	0.187204154089
4	123796	29396.819064589311	1.793809531116
4	123835	29405.369306996666	3.073781632909
4	123853	29414.545959598946	3.107822977913
4	123875	29418.738832708526	0.777754004296
4	123892	29426.653285881426	1.065615140233
4	123906	29429.687686072877	2.599973090961
4	123963	29438.157245251688	7.755068938382
4	123970	29440.200318641845	9.104200266579
4	123996	29449.427988265043	17.662127673085
4	124009	29451.105172990147	17.409280897831
4	124020	29451.72534376477	9.523235008128
4	124025	29452.089394662625	5.440205130869
4	124030	29452.751112653404	5.246799626872
4	124035	29454.076308884439	4.606594956029
4	124039	29454.903117347474	5.122030637114
4	124061	29456.958979292399	1.374964823327
4	124078	29458.316637190057	2.112061588135
4	124084	29461.298478267807	4.926687827587
4	124119	29470.248741324182	3.323614106072
4	124141	29473.68600573881	5.63177766019
4	124147	29475.022320970386	6.934645436331
4	124152	29475.507624089034	3.848871016603
4	124156	29476.789862632771	4.372295017701
4	124170	29484.456318345292	2.379660604433
4	124208	29492.292240587167	9.329188498548
4	124233	29500.145096834468	0.796590222376
4	124240	29502.105250482794	2.557592422767
4	124251	29504.955252152383	4.904785452542
4	124264	29510.102174431862	2.060946049558
4	124278	29511.427701528975	2.940812309218
4	124286	29514.948446512902	4.812937943748
4	124333	29530.209706881213	1.995201833226
4	124348	29535.274820758964	0.416223088515
4	124362	29539.11337349463	0.160575445863
4	124370	29539.755840701493	0.30711212222
4	124385	29540.81143348829	0.132132221023
4	124410	29544.782984705132	0.091717623668
4	124427	29551.605328525699	0.583613545565
4	124434	29554.192766691209	2.343348872237
4	124452	29559.061800328569	1.708573222304
4	124467	29560.101945879578	0.548471622804
4	124471	29560.906214645621	1.001976910566
4	124483	29563.369289393384	2.312531687994
4	124525	29573.993554459083	11.447062103484
4	124532	29574.235125119276	10.610731498691
4	124541	29577.426920718822	13.361908272367
4	124554	29578.246733797613	11.687707943061
4	124561	29579.878127256019	5.693670917109
4	124566	29580.225540483775	2.856604205768
4	124570	29580.441146343182	2.24546192752
4	124612	29590.737609263117	6.678600649624
4	124640	29592.787561351746	7.215965419367
4	124672	29601.617348239593	0.798255639307
4	124721	29616.345302125358	8.274777989776
4	124731	29619.325918397315	5.707399939099
4	124735	29619.34409540977	0.713416402166
4	124760	29622.119627549018	0.036856338819
4	124779	29628.063236806185	1.779853940093
4	124794	29631.055643746164	1.59703872258
4	124801	29633.635261857327	1.435217463757
4	124823	29636.073471066511	0.473178735734
4	124843	29642.334101608833	4.057218650264
4	124858	29643.925854732927	1.579013257507
4	124867	29644.710500331306	1.608314137723
4	124918	29655.297307220656	11.104219313901
4	124925	29656.988163391866	10.098065771809
4	124929	29657.072200964411	7.989935894175
4	125018	29682.097504685918	5.352019741931
4	125028	29684.116089146306	6.496157938115
4	125081	29700.958307598859	0.013835137859
4	125088	29702.831302328544	0.68857506879
4	125098	29704.629353571674	1.314498531263
4	125126	29707.430612318848	2.418215768768
4	125144	29712.197108187081	1.438005545657
4	125176	29718.851609748001	0.374029818389
4	125204	29725.003291160051	3.508247406574
4	125211	29728.434868004241	4.61743324718
4	125225	29730.374947281343	0.509713523923
4	125244	29735.116791539083	0.451990936477
4	125251	29737.58839138592	2.108983112986
4	125266	29739.437406273764	0.804871085089
4	125285	29741.4833042177	2.793361037558
4	125308	29750.671266079701	10.440827371447
4	125338	29755.276919631963	13.025201552121
4	125347	29758.200542696347	10.493215317199
4	125379	29763.462889315234	13.088944371464
4	125400	29766.426373581495	13.140688442996
4	125410	29767.608190867888	9.383876044949
4	125427	29769.19753532923	8.535141167451
4	125435	29773.018481733567	8.77107049935
4	125442	29774.092431345918	2.719869569192
4	125449	29777.236855801734	3.740508144361
4	125457	29779.418454364812	3.234320970015
4	125492	29787.797276859209	0.267950828997
4	125499	29788.729604053167	0.490721877558
4	125509	29791.564775028552	1.734177758232
4	125523	29795.257420900106	0.967782622983
4	125563	29802.000337865667	5.691533697119
4	125579	29804.967467423654	1.667075572846
4	125587	29806.209912525777	1.269010515699
4	125628	29815.448214645793	1.471428033291
4	125633	29815.535659322868	0.980568096878
4	125642	29818.053975925971	3.044079808573
4	125680	29823.455858202948	0.789688939725
4	125696	29828.249070238411	2.634462119008
4	125707	29828.543828233656	0.232599246236
4	125740	29839.405877077747	9.614320191449
4	125761	29844.793299622507	13.563196999725
4	125779	29849.149106301361	13.477017106678
4	125798	29852.379386816461	12.768988975534
4	125809	29856.331404477275	8.129612376364
4	125828	29862.818696420735	14.309368939446
4	125833	29865.055393133074	14.197563359007
4	125845	29869.697740118783	14.61405778047
4	125896	29880.896229157644	1.306555055789
4	125921	29890.837231932829	0.789007383608
4	125926	29892.847101371186	2.589403649716
4	125934	29894.426999403811	0.41578846462
4	125944	29896.47916240498	1.462914468495
4	125997	29909.065595117985	1.154822109869
4	126020	29917.235948774621	4.22576478628
4	126030	29917.555116411877	1.967464717865
4	126045	29930.932971201095	1.629102720335
4	126052	29934.120699817658	0.05809447314
4	126068	29938.047556891698	1.473642817628
4	126128	29952.489427060762	3.701171724461
4	126194	29962.009348739737	11.824727027786
4	126206	29963.827609998826	0.290937309838
4	126219	29968.117175541578	4.158382046159
4	126288	29982.456173619891	3.485464021653
4	126297	29984.120907070139	3.449217212916
4	126304	29986.139669506602	2.967322393842
4	126321	29989.410809055042	1.273424411859
4	126325	29990.6497796469	1.29981434207

