version 2
run Second-n5-0-20191016-17:04:24-13320
attr configname Second-n5
attr datetime 20191016-17:04:24
attr experiment Second-n5
attr inifile omnetpp.ini
attr iterationvars ""
attr iterationvarsf ""
attr measurement ""
attr network org.omnetpp.queueing.Pizza
attr processid 13320
attr repetition 0
attr replication ""
attr resultdir results
attr runnumber 0
attr seedset 0
param **.PS.maxInventoriedPS 5
param **.U1.interArrivalTime exponential(3s)
param **.U2.interArrivalTime exponential(5s)
param **.PS.serviceTimeForInventoryU1 exponential(1.0s)
param **.PS.serviceTimeForInventoryU2 exponential(1.2s)
param **.PS.serviceTimeDirectU1 exponential(1.4s)
param **.PS.serviceTimeDirectU2 exponential(1.4s)
param **.PS.probabilityProducing 0.7
param **.CS.serviceTimeU1 exponential(1.1s)
param **.CS.serviceTimeU2 exponential(1.4s)

vector 0 Pizza.EntryQueueU1 queueLength:vector ETV
attr interpolationmode sample-hold
attr title "queue length, vector"
vector 1 Pizza.CS queueLength:vector ETV
attr interpolationmode sample-hold
attr title "queue length, vector"
vector 2 Pizza.EntryQueueU2 queueLength:vector ETV
attr interpolationmode sample-hold
attr title "queue length, vector"
vector 3 Pizza.sink lifeTime:vector ETV
attr interpolationmode none
attr title "lifetime of arrived jobs, vector"
attr unit s
vector 4 Pizza.sink lifeTimeU1:vector ETV
attr interpolationmode none
attr title "lifetime of arrived jobs, vector"
attr unit s
vector 5 Pizza.sink lifeTimeU2:vector ETV
attr interpolationmode none
attr title "lifetime of arrived jobs, vector"
attr unit s
0	0	0	0
0	10	6.155415787839	1
0	12	7.057929870225	0
0	32	9.269893689831	1
0	39	12.746473319963	0
0	45	14.695001482656	1
0	47	14.991454757466	0
0	94	31.16316478135	1
0	95	31.732258088117	0
0	117	39.983255716582	1
0	118	40.961627389819	0
0	141	46.123232732958	1
0	146	52.24740501212	0
0	168	55.702072659119	1
0	174	56.221455027557	2
0	175	56.256385866456	1
0	181	57.913684733056	0
0	238	71.294539582624	1
0	243	72.900739697433	0
0	252	73.802832178535	1
0	254	73.831034430527	2
0	257	75.695074656188	1
0	263	77.081001847308	0
0	269	77.1335721608	1
0	271	77.63892198289	0
0	283	79.782959286678	1
0	284	79.802915271267	0
0	302	83.180861712595	1
0	303	83.822590292282	0
0	325	85.870634324953	1
0	326	85.950983353671	0
0	374	94.836988356924	1
0	376	95.487632408756	0
0	401	100.131769481513	1
0	403	100.588650357276	2
0	405	101.963169009151	3
0	407	102.270130853709	4
0	410	102.753279068252	3
0	417	103.987515507994	4
0	419	104.558266403971	3
0	424	105.036046625509	2
0	430	105.769736002965	3
0	436	111.288934358197	4
0	438	111.836550163845	5
0	440	112.233101292689	6
0	441	112.47797619744	5
0	446	114.2893672089	4
0	451	114.455237320113	3
0	457	114.534080242857	2
0	462	115.133423083816	1
0	469	116.762571659517	2
0	471	116.812874957493	3
0	472	117.347473093642	2
0	478	118.940046583829	1
0	483	120.464967071052	0
0	513	124.490398701902	1
0	515	124.645447419288	2
0	516	124.79560831132	1
0	523	127.22821832933	2
0	525	128.161121744239	3
0	526	130.162654488113	2
0	533	131.016610866865	3
0	535	132.359543652352	2
0	540	132.918195287307	1
0	546	133.194953761731	0
0	571	138.982009280652	1
0	575	140.405258151651	2
0	577	140.999161357653	3
0	579	143.34508852028	4
0	581	143.420053580218	5
0	582	144.057265988895	4
0	589	145.30855834499	3
0	594	146.154590126196	2
0	601	147.534213723296	1
0	607	148.203929928407	0
0	618	149.205133990858	1
0	622	150.362197072994	2
0	624	151.213872471343	1
0	632	151.539916157557	2
0	634	153.480775836312	1
0	639	154.150724910292	0
0	709	171.094186120565	1
0	710	171.142947794891	0
0	716	171.186964995247	1
0	717	172.654725110753	0
0	736	175.46991751318	1
0	738	175.709925824327	0
0	752	176.512230730847	1
0	755	178.175993243637	0
0	808	192.906439708672	1
0	810	194.046026992743	0
0	896	222.055339080997	1
0	898	222.416177114051	0
0	966	237.151306080317	1
0	967	237.160693616424	0
0	975	237.740691738008	1
0	977	238.135030327057	0
0	983	238.170450802153	1
0	985	238.30736495064	2
0	989	240.986723796719	1
0	995	241.723978860953	0
0	1003	242.075045403661	1
0	1004	242.864948464466	0
0	1027	246.90838832398	1
0	1029	247.430984473729	2
0	1031	248.052540020483	3
0	1033	248.468300484752	4
0	1036	250.521791960439	3
0	1042	251.193323089936	2
0	1050	252.965788288969	1
0	1055	253.577013093443	0
0	1068	255.49802027503	1
0	1071	256.315075083994	0
0	1086	259.441586569283	1
0	1089	260.80342793151	0
0	1108	268.660812237639	1
0	1109	268.953542743956	0
0	1115	268.958476817091	1
0	1116	269.512584143414	0
0	1200	294.768184153499	1
0	1201	295.640196150812	0
0	1301	326.958800124394	1
0	1303	327.819527410545	2
0	1305	328.596864178192	3
0	1307	328.932697801624	4
0	1308	330.069292399002	3
0	1313	330.361690602927	2
0	1318	330.896861656661	1
0	1324	330.949846507738	2
0	1326	331.312340696526	3
0	1327	332.340021045854	2
0	1332	332.49677428607	1
0	1338	333.012540257261	0
0	1364	337.716447880149	1
0	1368	339.003183387464	2
0	1370	339.486611123941	3
0	1371	340.8090004341	2
0	1378	342.162791170234	1
0	1384	343.203503085614	0
0	1412	349.809443266697	1
0	1414	350.707502275521	2
0	1415	351.707358452988	1
0	1421	352.661379673702	0
0	1436	357.597116730988	1
0	1437	358.295076851224	0
0	1453	362.51356194424	1
0	1459	365.052800305314	0
0	1555	386.670261540359	1
0	1556	386.677766000473	0
0	1614	404.240642266265	1
0	1615	405.057195572314	0
0	1639	410.050288456984	1
0	1641	411.065611855436	2
0	1646	412.425105686924	1
0	1652	412.548888627941	0
0	1680	421.891658402002	1
0	1681	422.056960790296	0
0	1687	422.130368867281	1
0	1689	422.983028097866	2
0	1693	424.71791732387	1
0	1698	424.787243112553	0
0	1719	429.306369173076	1
0	1721	429.315682243502	2
0	1723	430.66482234734	3
0	1727	433.393534461959	4
0	1731	436.535111228434	5
0	1733	436.550720626856	6
0	1734	436.88243284738	5
0	1741	438.081702992487	4
0	1751	440.941343562367	3
0	1757	442.044162211528	2
0	1762	442.839024672817	1
0	1771	445.736569208354	0
0	1792	448.216654795165	1
0	1795	449.72789519245	0
0	1801	449.762997445187	1
0	1803	451.064095856389	2
0	1807	452.847493906484	3
0	1808	454.3208831571	2
0	1814	456.165511363391	1
0	1823	459.625008671365	0
0	1846	461.171757771225	1
0	1847	463.298226490488	0
0	1865	465.62127799533	1
0	1867	469.264373494385	0
0	1875	471.275871837944	1
0	1876	471.71053459171	0
0	1905	475.830979283135	1
0	1907	476.011933354469	2
0	1909	476.960644671996	3
0	1912	478.643192558342	2
0	1918	478.868796085369	3
0	1922	479.424269938563	2
0	1927	479.46877368979	1
0	1932	479.816843820097	0
0	2069	521.537815531414	1
0	2072	523.366493073946	2
0	2076	524.53587317352	1
0	2082	524.577751795289	2
0	2084	525.362272784557	1
0	2090	525.655038843759	2
0	2091	525.964976466029	1
0	2096	526.157280666066	0
0	2159	537.642218875366	1
0	2167	541.763376669427	2
0	2170	542.322725571999	3
0	2171	542.456990294717	2
0	2176	543.488799221886	1
0	2182	544.26818890487	0
0	2235	559.198165909528	1
0	2239	559.929954919112	2
0	2240	560.146777539281	1
0	2246	560.810604210953	0
0	2270	569.342433518034	1
0	2271	570.207037219997	0
0	2341	586.349997967125	1
0	2344	588.178378548947	0
0	2356	589.534657916014	1
0	2358	589.801370590702	2
0	2359	589.868705850067	1
0	2364	589.962066946259	0
0	2380	596.025327737896	1
0	2381	596.091986000311	0
0	2388	596.494205665399	1
0	2390	596.69119522093	2
0	2391	596.701478559643	1
0	2398	597.612127368557	2
0	2400	598.339864245184	3
0	2401	599.664942013123	2
0	2407	601.105502020022	3
0	2411	601.451353501298	2
0	2418	601.618657477144	3
0	2419	602.648831291657	2
0	2424	602.677534653116	1
0	2434	604.662537739938	2
0	2436	605.38737874521	1
0	2445	606.492750113766	2
0	2446	606.602270230694	1
0	2452	608.415228328259	2
0	2454	609.097059660613	1
0	2463	610.432306279982	0
0	2469	612.379998646799	1
0	2471	612.395497505112	2
0	2472	612.696206575401	1
0	2478	612.906629581171	2
0	2480	613.010623688857	3
0	2482	615.467755750253	2
0	2487	616.194542353012	1
0	2492	616.344812098672	0
0	2498	616.728965165199	1
0	2501	617.549659751946	2
0	2502	619.387940283533	1
0	2507	619.84439252453	0
0	2513	620.539487589409	1
0	2514	620.557269920182	0
0	2551	630.446039446768	1
0	2552	630.691730325735	0
0	2587	641.919748416085	1
0	2589	642.058616933839	2
0	2591	644.05760956191	3
0	2593	645.238056752815	4
0	2595	647.02268552049	5
0	2596	647.284528350795	4
0	2602	648.352260673425	3
0	2609	649.083672428211	4
0	2611	650.569659884196	3
0	2618	652.98390363786	2
0	2624	653.322007637887	1
0	2632	653.404847243232	2
0	2633	653.560476666208	1
0	2638	654.0083715648	0
0	2652	657.46031350143	1
0	2654	657.7645878516	2
0	2656	659.230055710771	3
0	2657	660.939679122685	2
0	2662	661.889252521376	1
0	2668	662.350230405302	0
0	2676	665.203702632257	1
0	2677	665.539678924346	0
0	2686	667.698631490373	1
0	2687	668.08538131282	0
0	2701	670.557791768905	1
0	2706	671.373262325946	2
0	2708	671.504880359803	3
0	2710	672.750319543266	4
0	2712	673.965539230813	5
0	2713	674.160747421448	4
0	2718	674.870775169576	3
0	2723	675.189374437297	2
0	2728	675.369355792159	1
0	2733	675.567096289149	0
0	2772	683.64083949277	1
0	2775	683.974671041645	0
0	2787	685.384461402107	1
0	2795	687.437718226795	2
0	2797	688.260718180119	1
0	2803	688.679300861222	0
0	2809	689.280559062645	1
0	2812	689.505862575236	2
0	2814	690.118865536929	1
0	2819	690.56600736125	0
0	2848	695.846057428087	1
0	2852	697.056782008801	0
0	2894	709.166185167972	1
0	2900	711.336523168168	2
0	2902	712.1153489072	3
0	2905	713.237712186283	2
0	2913	714.775305311021	3
0	2914	716.019756770247	2
0	2919	716.069225604979	1
0	2924	716.285692917712	0
0	2947	722.789279322271	1
0	2948	723.644320422512	0
0	2968	726.386806410446	1
0	2971	727.032388532301	0
0	2991	731.880925350757	1
0	2993	732.296490877089	2
0	2997	733.590340873537	3
0	2999	734.464206323721	4
0	3001	734.675773417499	5
0	3003	734.902382800227	6
0	3011	741.060973862634	5
0	3020	743.541614144228	6
0	3021	743.855791643524	5
0	3026	743.905307572435	4
0	3032	743.950083864345	5
0	3033	744.324260342232	4
0	3041	745.754564744632	3
0	3047	745.758525577479	4
0	3052	747.028516795642	5
0	3053	747.865461911773	4
0	3058	747.880820186853	3
0	3063	748.608106839389	2
0	3072	749.85137176221	1
0	3077	749.995320991566	0
0	3130	757.469811056736	1
0	3131	757.686177821091	0
0	3148	761.40312744772	1
0	3149	761.61172416487	0
0	3162	764.73927410679	1
0	3166	765.781973056821	0
0	3176	766.969925568729	1
0	3178	767.286016045857	2
0	3179	767.328675925594	1
0	3185	767.602936872525	2
0	3187	767.654559951964	3
0	3188	768.149764845363	2
0	3193	769.199893780395	1
0	3198	769.684494138572	0
0	3204	771.309498280455	1
0	3205	771.987721682297	0
0	3209	772.23685135107	1
0	3212	773.872293994439	0
0	3221	777.520191981949	1
0	3225	779.359943546514	2
0	3226	779.840970020671	1
0	3234	780.3585909445	0
0	3253	781.012739470185	1
0	3255	782.113664103832	2
0	3261	784.52644559729	3
0	3262	784.71440590232	2
0	3269	785.370662800379	3
0	3270	785.810559136812	2
0	3276	786.724627557113	3
0	3277	786.827655348558	2
0	3283	787.691138657576	3
0	3285	787.697338955106	4
0	3288	788.595873696838	3
0	3293	789.714781918857	2
0	3298	790.041203383227	1
0	3302	791.2689973454	2
0	3304	792.079663643966	3
0	3309	794.743225584379	2
0	3314	795.018252298504	1
0	3320	795.991692122984	2
0	3321	796.097916857043	1
0	3325	796.592450987739	2
0	3330	797.138058413987	3
0	3332	797.58265575134	2
0	3340	798.688250596456	1
0	3347	800.39797137782	0
0	3353	800.848585203234	1
0	3355	801.177999144333	2
0	3357	801.193986789574	3
0	3364	802.799915555895	2
0	3369	803.281966015203	1
0	3374	803.302054324644	0
0	3385	804.209202298466	1
0	3386	804.684102226504	0
0	3418	811.918852966517	1
0	3419	812.138465729826	0
0	3431	815.196733954414	1
0	3432	815.519057224066	0
0	3438	816.050266449683	1
0	3441	818.412891206837	0
0	3457	819.85826644903	1
0	3461	821.00219789782	0
0	3474	823.168099963464	1
0	3478	824.035048349395	0
0	3484	824.232189239919	1
0	3486	824.543642249048	2
0	3489	825.66933239381	1
0	3494	825.704624596393	0
0	3498	827.669356930474	1
0	3502	828.135368697983	0
0	3524	834.607502966694	1
0	3528	836.265804148629	0
0	3561	842.961784823073	1
0	3563	843.070475611673	2
0	3566	843.791266068451	1
0	3572	844.276079900029	0
0	3586	846.34416836144	1
0	3588	846.83607027675	2
0	3590	847.509067634092	3
0	3595	850.891342759742	2
0	3600	851.680708578541	1
0	3607	851.968646459177	0
0	3613	852.420457713511	1
0	3619	854.85148411706	2
0	3620	855.230222759639	1
0	3626	856.976372947708	0
0	3632	857.587752626781	1
0	3633	858.27805113333	0
0	3640	858.51520728047	1
0	3641	858.608341620616	0
0	3711	882.096845624685	1
0	3712	883.227232200979	0
0	3719	883.300949513667	1
0	3720	883.701748560729	0
0	3727	885.205548673675	1
0	3728	886.928963428317	0
0	3770	902.851321955021	1
0	3773	904.351370708072	0
0	3795	908.876497460777	1
0	3796	911.244349657548	0
0	3825	915.43621144325	1
0	3826	916.773851496693	0
0	3848	920.314051521833	1
0	3849	920.344956762035	0
0	3856	921.064554409852	1
0	3858	921.952999810298	0
0	3872	923.217564912186	1
0	3873	923.231936799007	0
0	3898	932.161864148367	1
0	3899	933.533181023874	0
0	3913	937.14883130954	1
0	3914	938.124583018536	0
0	3969	951.286479779615	1
0	3971	951.327674564559	2
0	3976	953.505452533381	3
0	3977	953.694515867704	2
0	3982	953.738529312171	1
0	3987	954.4022026235	0
0	3991	954.467290505489	1
0	3997	956.542229495171	0
0	4008	956.739996394381	1
0	4011	957.292277418431	2
0	4012	957.694025952736	1
0	4020	961.182880982083	0
0	4031	962.294414543548	1
0	4032	962.477609331874	0
0	4086	970.662781663306	1
0	4091	970.800692920486	2
0	4093	971.029956063455	3
0	4098	971.68404130204	2
0	4103	971.758110325971	1
0	4109	972.094629834061	2
0	4113	974.625383627401	3
0	4114	974.932743428161	2
0	4119	975.319017699614	1
0	4124	976.067069709397	0
0	4135	977.58665867304	1
0	4137	978.435348586951	2
0	4143	980.687531686271	1
0	4152	982.312008913549	0
0	4172	984.917689218287	1
0	4173	985.128553965494	0
0	4190	986.899491048262	1
0	4191	988.260167210645	0
0	4203	989.215710180215	1
0	4205	989.242541808617	2
0	4208	991.084013504897	3
0	4212	994.118306806675	2
0	4217	994.542266848339	1
0	4224	995.751922827353	2
0	4227	996.235939205777	1
0	4232	996.879397529518	0
0	4261	1001.305941074299	1
0	4262	1002.284667519748	0
0	4269	1002.339285992369	1
0	4271	1003.67756498666	0
0	4282	1005.639645673608	1
0	4285	1007.046845022035	2
0	4287	1008.356872045694	3
0	4290	1009.828703563098	2
0	4298	1011.729196566633	3
0	4301	1012.692664212752	2
0	4306	1012.92938890413	1
0	4315	1016.906409196399	0
0	4343	1024.001725032172	1
0	4346	1026.855009771662	0
0	4374	1041.176860279758	1
0	4376	1041.573328232153	2
0	4378	1042.718252576098	3
0	4383	1044.544190860533	2
0	4389	1045.43716029189	1
0	4394	1045.789447547906	0
0	4414	1048.943806551361	1
0	4417	1051.549749486976	0
0	4460	1060.019278419348	1
0	4463	1063.11397930585	0
0	4479	1065.687389309436	1
0	4480	1065.784923110827	0
0	4491	1068.699832410881	1
0	4493	1068.760872970475	2
0	4494	1069.346969222642	1
0	4499	1070.055520755517	0
0	4513	1070.928479452552	1
0	4517	1074.53696702027	0
0	4532	1075.576732560395	1
0	4534	1075.70193371562	2
0	4537	1076.568953261738	1
0	4544	1077.657629206675	0
0	4580	1085.792489809986	1
0	4582	1086.020565448924	0
0	4602	1088.053157930042	1
0	4603	1088.117233704634	0
0	4615	1089.394996084207	1
0	4617	1091.034278535195	2
0	4619	1091.699557866468	3
0	4622	1094.342532298224	4
0	4623	1095.05946837041	3
0	4629	1096.217149037182	2
0	4635	1097.025906718823	3
0	4637	1097.672852861069	2
0	4643	1098.22956603068	1
0	4652	1098.64632576749	2
0	4656	1101.140174341933	1
0	4663	1101.917100629649	0
0	4669	1102.226684116254	1
0	4671	1102.994493514478	2
0	4673	1103.366129643185	1
0	4678	1105.355163843709	0
0	4696	1109.619361720522	1
0	4698	1109.753461728334	2
0	4699	1110.327510119137	1
0	4705	1110.712972877276	2
0	4707	1111.184107295684	1
0	4712	1112.413716010961	0
0	4718	1113.764314996571	1
0	4721	1114.379168580663	2
0	4723	1115.733542438306	1
0	4728	1116.414925797834	0
0	4735	1116.701878499882	1
0	4736	1119.970149618959	0
0	4743	1121.514530637439	1
0	4744	1121.829927821468	0
0	4778	1124.947664807881	1
0	4779	1125.758732870335	0
0	4804	1133.666431470792	1
0	4805	1134.161957642912	0
0	4873	1153.639397681153	1
0	4874	1153.830080068305	0
0	4880	1153.903294076621	1
0	4881	1153.96628470318	0
0	4890	1155.285112771989	1
0	4894	1155.633264109969	2
0	4900	1156.631012079869	1
0	4905	1157.511326094281	0
0	4917	1158.136325785287	1
0	4919	1158.96486328609	0
0	4942	1164.388853015695	1
0	4943	1164.518354642546	0
0	4970	1170.034125311803	1
0	4974	1170.58941532388	2
0	4978	1171.01875574623	1
0	4983	1171.046095639369	0
0	4994	1172.106353401975	1
0	4997	1172.228872741451	2
0	4998	1172.408795575056	1
0	5007	1176.530076292437	0
0	5014	1177.34708534107	1
0	5015	1178.108769757063	0
0	5060	1184.493045419721	1
0	5061	1184.808714231708	0
0	5083	1188.887804405573	1
0	5084	1188.952350921528	0
0	5122	1196.958650703077	1
0	5124	1198.665082682805	0
0	5133	1201.388657989989	1
0	5136	1202.931771294679	0
0	5178	1218.919910324693	1
0	5179	1221.150443995604	0
0	5216	1230.224071688462	1
0	5217	1230.52782989304	0
0	5229	1242.458261245323	1
0	5234	1247.674620582369	2
0	5235	1249.270390662683	1
0	5241	1250.295666916212	0
0	5264	1258.705831654119	1
0	5265	1261.995983548531	0
0	5314	1274.698929439165	1
0	5316	1274.72840634796	2
0	5318	1275.405220197683	3
0	5321	1275.685270224672	2
0	5327	1275.911794254255	3
0	5328	1276.474493379037	2
0	5333	1276.646038108127	1
0	5338	1277.358218220623	0
0	5350	1277.935059403779	1
0	5351	1278.460138553899	0
0	5366	1281.034617573194	1
0	5373	1283.065593003029	0
0	5377	1283.206382969462	1
0	5380	1283.862938637858	0
0	5389	1285.17244275325	1
0	5393	1286.989128374371	2
0	5398	1289.665392752239	1
0	5405	1290.467091526762	2
0	5411	1292.06597175793	3
0	5412	1292.378882720323	2
0	5420	1294.37649304547	1
0	5426	1294.509899016142	0
0	5445	1296.446150927377	1
0	5446	1297.73599300388	0
0	5452	1299.249367188463	1
0	5453	1300.140249895496	0
0	5471	1302.951456295353	1
0	5474	1305.50762663941	0
0	5488	1306.844714769932	1
0	5490	1307.940663312395	2
0	5491	1308.05704952948	1
0	5496	1308.134813157785	0
0	5539	1323.83356556807	1
0	5542	1324.466982027696	0
0	5549	1326.144560218613	1
0	5550	1326.503089850861	0
0	5609	1334.045430929518	1
0	5610	1334.326757847258	0
0	5676	1362.50574240739	1
0	5677	1362.949318363993	0
0	5692	1366.419614006037	1
0	5694	1366.742985099671	2
0	5695	1368.322928424466	1
0	5700	1368.536316154554	0
0	5706	1370.336126123896	1
0	5707	1370.491620903816	0
0	5744	1377.840894953528	1
0	5746	1378.035813085173	2
0	5747	1378.438018605107	1
0	5753	1379.641367179618	2
0	5755	1380.125250858788	3
0	5758	1382.840964915495	2
0	5762	1383.957012403691	3
0	5766	1384.443918089716	4
0	5769	1385.768301516747	5
0	5770	1386.122015527364	4
0	5781	1387.989999124202	5
0	5785	1388.526206194296	6
0	5787	1388.988178348352	5
0	5794	1389.331514795744	4
0	5799	1389.37551477082	3
0	5806	1389.430545461028	4
0	5807	1390.210399305714	3
0	5812	1390.445147732418	2
0	5818	1391.289418466287	3
0	5829	1393.023477942459	2
0	5834	1393.133835460741	1
0	5843	1395.028108376538	0
0	5907	1403.353459620567	1
0	5909	1404.227943095483	2
0	5910	1405.715015499996	1
0	5915	1405.715096569631	0
0	5956	1417.34093784451	1
0	5957	1417.839025012045	0
0	6007	1428.412819763653	1
0	6012	1431.812535954586	0
0	6040	1439.605848680811	1
0	6042	1439.716377320821	0
0	6048	1440.501212149296	1
0	6050	1441.28686651164	2
0	6052	1442.323423854166	1
0	6057	1442.571236528312	0
0	6065	1445.07161938644	1
0	6067	1446.616893333668	0
0	6074	1446.864474073412	1
0	6076	1446.99903448382	2
0	6077	1447.099896733316	1
0	6082	1447.3977171322	0
0	6132	1466.547692025746	1
0	6133	1466.731377791418	0
0	6201	1485.452187686338	1
0	6202	1485.454388904806	0
0	6264	1507.550981041753	1
0	6266	1507.59222953536	2
0	6267	1508.453516604562	1
0	6273	1510.577301530705	2
0	6274	1510.961610258861	1
0	6278	1511.600156740543	2
0	6281	1512.073971659222	1
0	6287	1515.945558655609	0
0	6345	1540.787812242276	1
0	6346	1541.031023879987	0
0	6353	1542.250252859092	1
0	6355	1543.000409753213	2
0	6356	1544.505353918231	1
0	6363	1545.102256435675	0
0	6392	1551.488538875467	1
0	6395	1552.146297063929	0
0	6402	1553.295615871745	1
0	6403	1553.314376694898	0
0	6427	1560.743817138615	1
0	6430	1563.379811299989	2
0	6432	1564.465084183383	3
0	6434	1564.688452898362	4
0	6436	1565.889710477076	5
0	6438	1566.371532407889	6
0	6439	1570.006185928577	5
0	6448	1572.926326489582	4
0	6453	1573.07138551437	3
0	6459	1573.217338139819	4
0	6462	1575.165227824746	3
0	6467	1575.171288783911	2
0	6472	1575.552721388868	1
0	6478	1577.202129111026	0
0	6497	1580.649972263181	1
0	6498	1580.897916703304	0
0	6521	1590.2488689266	1
0	6522	1592.276220328989	0
0	6528	1592.429327926038	1
0	6529	1592.433304685988	0
0	6535	1592.595450969179	1
0	6536	1593.844056625594	0
0	6540	1594.159455406721	1
0	6545	1595.136086895745	0
0	6603	1610.140720431624	1
0	6607	1612.434211955104	2
0	6610	1613.592228487885	1
0	6616	1613.702208321344	2
0	6619	1614.329533065352	1
0	6628	1614.961379873966	2
0	6632	1616.226076466552	1
0	6638	1617.78494079996	0
0	6645	1618.401574086248	1
0	6646	1619.105078280912	0
0	6663	1621.101095822928	1
0	6669	1625.154332794568	0
0	6676	1626.470173193547	1
0	6677	1626.607411797132	0
0	6733	1650.97985738597	1
0	6735	1651.081531652031	2
0	6737	1651.714659750285	3
0	6738	1652.385840071909	2
0	6745	1652.521489642478	3
0	6746	1653.318044498464	2
0	6752	1653.819525423157	1
0	6758	1654.257991655309	0
0	6795	1667.869599459827	1
0	6797	1667.969077562613	0
0	6805	1668.738742809732	1
0	6806	1668.99718921829	0
0	6813	1670.531498603355	1
0	6814	1670.602202097888	0
0	6884	1688.387365072508	1
0	6885	1688.682478840524	0
0	6919	1694.817773742279	1
0	6921	1696.331250139726	2
0	6922	1696.671861339835	1
0	6934	1700.356271272677	2
0	6935	1700.844113161911	1
0	6941	1703.1746519941	2
0	6943	1703.730855601824	3
0	6945	1703.801388156816	4
0	6946	1704.429069031893	3
0	6952	1704.637545432795	4
0	6953	1704.681121035413	3
0	6959	1705.075314580302	4
0	6961	1705.122372898637	5
0	6963	1705.655161419067	4
0	6968	1705.77191887265	3
0	6973	1706.346636418385	2
0	6978	1706.38015852844	1
0	6985	1707.045419306866	0
0	6995	1709.565561630881	1
0	6999	1710.557065826662	2
0	7000	1710.708226990215	1
0	7006	1711.860544964145	2
0	7008	1713.614327201287	3
0	7010	1714.213493424625	4
0	7013	1716.458819084849	3
0	7019	1718.470145729011	2
0	7024	1718.769952723269	1
0	7028	1719.440017243965	2
0	7030	1720.313953162927	3
0	7032	1720.421168505727	4
0	7036	1722.80652871959	5
0	7039	1723.118180196565	4
0	7044	1726.375588195924	3
0	7049	1728.827713404358	2
0	7053	1731.149117496729	3
0	7055	1731.454256544621	4
0	7058	1731.94081054364	3
0	7066	1737.901929654508	4
0	7072	1740.37763033377	3
0	7077	1741.579274542742	2
0	7081	1743.067022790307	3
0	7084	1744.323301983569	2
0	7088	1744.399134906638	3
0	7090	1744.686259066787	4
0	7096	1747.468821171829	3
0	7101	1747.88194259068	2
0	7108	1749.316071866017	3
0	7109	1749.599029284142	2
0	7114	1749.68931801794	1
0	7120	1751.305866180288	2
0	7123	1752.676004312589	1
0	7132	1756.580360850015	0
0	7142	1759.059076583903	1
0	7145	1760.819310665379	0
0	7199	1770.95950012205	1
0	7200	1771.204924554834	0
0	7216	1773.720648574923	1
0	7222	1775.63471747007	2
0	7223	1776.390134078323	1
0	7230	1776.941136573799	2
0	7231	1777.583881596562	1
0	7237	1778.227784560382	0
0	7256	1782.659082776125	1
0	7262	1784.937989105877	2
0	7265	1786.409909051841	1
0	7272	1787.588901572178	2
0	7274	1788.004172239388	3
0	7275	1788.643275030321	2
0	7280	1791.141580677399	1
0	7287	1792.294415350601	0
0	7301	1793.94148004167	1
0	7304	1795.214208924874	0
0	7320	1799.805687838307	1
0	7321	1799.86641626969	0
0	7327	1799.973806149222	1
0	7331	1800.569546300735	0
0	7344	1802.753033388159	1
0	7345	1803.014483858285	0
0	7362	1805.35012387351	1
0	7365	1806.07287690222	0
0	7399	1816.178512167777	1
0	7402	1818.08340255777	0
0	7413	1818.771583135098	1
0	7417	1823.811706378766	0
0	7426	1824.637474209602	1
0	7429	1824.920444568044	0
0	7438	1825.557882425253	1
0	7442	1826.57592481552	0
0	7448	1826.815324517579	1
0	7450	1827.266851994374	2
0	7453	1827.885332825124	1
0	7462	1829.187167953921	2
0	7464	1830.941948858797	3
0	7465	1832.788359517737	2
0	7473	1835.021960640513	3
0	7475	1836.409758378078	2
0	7482	1838.19201771349	1
0	7489	1838.754862153927	0
0	7515	1843.607634318325	1
0	7517	1843.943218522149	2
0	7520	1844.387554648256	1
0	7525	1844.561094023567	0
0	7540	1848.538381821383	1
0	7547	1852.008816749176	2
0	7549	1852.660950905638	1
0	7554	1853.19820599605	0
0	7576	1858.516144121991	1
0	7577	1858.880413640284	0
0	7588	1860.300299627656	1
0	7592	1862.578867054064	2
0	7595	1866.561519624064	1
0	7601	1867.903098051574	2
0	7603	1868.675260121468	1
0	7610	1869.974386799815	2
0	7611	1870.120806418905	1
0	7618	1870.999693049237	0
0	7636	1875.595108248061	1
0	7637	1875.687423382628	0
0	7643	1875.835073593001	1
0	7645	1876.926081674899	0
0	7673	1885.053314154841	1
0	7674	1888.143789804096	0
0	7695	1895.027722519142	1
0	7697	1896.152076666445	2
0	7700	1897.273076691482	1
0	7707	1898.434225404395	0
0	7751	1912.786770265307	1
0	7754	1914.357173562768	0
0	7769	1921.761753826171	1
0	7771	1923.802937223011	2
0	7773	1924.823438648104	3
0	7774	1925.592768309991	2
0	7783	1926.969947709708	3
0	7785	1927.677573583687	4
0	7786	1928.343967081476	3
0	7792	1928.359618076552	4
0	7794	1930.300288120269	3
0	7800	1930.927108579559	2
0	7805	1931.356978051773	1
0	7810	1931.363530158163	0
0	7820	1932.468091918187	1
0	7821	1934.434189882213	0
0	7835	1935.783923159353	1
0	7836	1935.824523122182	0
0	7879	1947.973045055851	1
0	7882	1950.097683967316	0
0	7888	1950.81658467634	1
0	7890	1950.836693744395	0
0	7945	1978.95970562451	1
0	7947	1979.33234024779	2
0	7949	1979.70172360453	3
0	7950	1980.467644560427	2
0	7956	1981.401778115119	3
0	7959	1981.699539968295	4
0	7961	1981.992896719851	3
0	7967	1982.049245910482	4
0	7969	1982.247152602126	3
0	7974	1982.52995711561	2
0	7979	1982.747582847638	1
0	7984	1983.904079267996	0
0	8037	1997.578866644698	1
0	8040	1998.086831209028	2
0	8041	1999.031104275321	1
0	8046	1999.072627261671	0
0	8052	1999.074802661169	1
0	8053	1999.332911770414	0
0	8069	2002.811357774122	1
0	8072	2005.814526944021	2
0	8073	2006.112000137175	1
0	8080	2007.98303072136	2
0	8081	2008.534718091809	1
0	8088	2009.055146105075	0
0	8105	2011.903924854244	1
0	8106	2012.123934610453	0
0	8126	2015.459294413722	1
0	8127	2015.916562431748	0
0	8140	2017.029348078965	1
0	8143	2018.970730245374	0
0	8175	2025.463279915519	1
0	8178	2028.694308523273	0
0	8211	2034.814394000476	1
0	8212	2035.133298842391	0
0	8268	2046.665134137886	1
0	8269	2047.884442917551	0
0	8275	2047.951181350381	1
0	8277	2048.108567774333	0
0	8285	2049.42713998277	1
0	8289	2052.189105312896	0
0	8324	2062.060136824852	1
0	8327	2062.883021190797	2
0	8328	2063.706624338083	1
0	8335	2064.168814793719	0
0	8396	2085.057297138739	1
0	8397	2085.710048580593	0
0	8411	2090.524699887113	1
0	8413	2090.651657151571	2
0	8417	2092.49064362118	3
0	8418	2092.898432199935	2
0	8424	2094.048433294531	1
0	8430	2094.576399208884	0
0	8454	2097.057412492771	1
0	8455	2097.354626425133	0
0	8474	2102.900296708973	1
0	8476	2103.381676741445	2
0	8477	2103.696153162245	1
0	8483	2104.199078686505	0
0	8527	2116.4062601269	1
0	8528	2116.858565245181	0
0	8550	2120.530538589788	1
0	8551	2120.567808869571	0
0	8606	2130.929371539329	1
0	8607	2130.941581080284	0
0	8613	2131.363737832194	1
0	8614	2131.383363079913	0
0	8649	2138.417268226955	1
0	8650	2138.46574571467	0
0	8675	2144.26046212562	1
0	8677	2144.289666709529	2
0	8681	2145.295778868166	3
0	8682	2145.573782594861	2
0	8687	2146.236566779375	1
0	8694	2151.037380557765	0
0	8728	2156.167098452426	1
0	8733	2156.941449033403	0
0	8746	2157.683452533255	1
0	8747	2158.373854182297	0
0	8753	2159.039720784416	1
0	8757	2159.689160074892	0
0	8768	2160.999105995847	1
0	8769	2161.060329811717	0
0	8776	2162.67430304516	1
0	8778	2162.932622478908	2
0	8782	2163.648938717916	1
0	8790	2164.660054762381	0
0	8821	2168.804962570019	1
0	8823	2169.772450781638	2
0	8828	2170.102571880565	1
0	8834	2171.723953412986	2
0	8838	2172.729669662578	3
0	8839	2173.139969428956	2
0	8846	2177.46288357399	1
0	8850	2177.750494275407	2
0	8853	2180.533069164681	1
0	8860	2183.570786469857	0
0	8874	2188.377485618222	1
0	8876	2189.519442016673	2
0	8877	2190.488935804206	1
0	8881	2190.89916667158	2
0	8883	2191.47590984379	3
0	8886	2192.689449391746	2
0	8891	2193.471131591198	1
0	8898	2194.302374808672	2
0	8899	2194.378418278202	1
0	8908	2196.119590454506	2
0	8909	2197.117444065816	1
0	8914	2197.161347386211	0
0	8918	2197.567536029498	1
0	8920	2199.011995472561	2
0	8923	2201.469037812979	1
0	8928	2203.291171613186	0
0	8934	2204.464888264493	1
0	8937	2205.612699836948	0
0	8943	2206.171302879086	1
0	8944	2206.171350278797	0
0	8959	2207.516411852502	1
0	8961	2207.966897781626	0
0	8965	2208.332497399319	1
0	8968	2209.533259902918	0
0	8972	2211.610495921169	1
0	8977	2212.166133436791	2
0	8979	2213.513433941599	1
0	8984	2213.778815551625	0
0	8990	2213.889374872432	1
0	8991	2214.523559769635	0
0	8995	2214.746368329996	1
0	9001	2217.599725547875	0
0	9067	2233.184394994474	1
0	9069	2234.534292122454	2
0	9073	2235.071687864209	3
0	9074	2236.035308590456	2
0	9079	2236.160317204469	1
0	9084	2236.355843158357	0
0	9090	2236.502099590043	1
0	9094	2238.256359453622	0
0	9121	2239.834548586898	1
0	9123	2241.880225327001	0
0	9136	2245.373222910049	1
0	9139	2246.210699487631	2
0	9141	2246.797402423466	3
0	9142	2247.669028614227	2
0	9148	2248.296986076036	3
0	9149	2249.014800431031	2
0	9156	2252.698748585315	1
0	9161	2252.892133754	0
0	9173	2253.791916931597	1
0	9176	2254.974155099631	0
0	9196	2259.257703647515	1
0	9197	2259.704033727442	0
0	9248	2268.851459334895	1
0	9250	2269.60693027114	0
0	9266	2277.528567735143	1
0	9267	2277.784685863678	0
0	9319	2293.975274618639	1
0	9320	2294.113194156889	0
0	9334	2295.350575169018	1
0	9337	2295.547023533727	0
0	9346	2296.986098398114	1
0	9350	2297.553445744586	2
0	9352	2298.10601939355	3
0	9354	2298.187634091135	4
0	9355	2299.389959163556	3
0	9361	2299.596879671274	4
0	9362	2300.09691901544	3
0	9369	2300.503943281814	4
0	9370	2300.663126988523	3
0	9380	2303.279272020517	2
0	9387	2304.26754439389	1
0	9396	2305.148475284595	2
0	9397	2306.543764758027	1
0	9403	2307.598579309084	0
0	9411	2309.276103085919	1
0	9414	2310.164557379253	2
0	9415	2310.581836682765	1
0	9421	2311.349546456301	0
0	9449	2322.627171192448	1
0	9451	2322.906841778509	2
0	9453	2323.521213285076	3
0	9455	2325.490311220038	4
0	9456	2326.109257640614	3
0	9462	2328.714537613338	2
0	9467	2328.841142132365	1
0	9472	2329.016356876539	0
0	9488	2334.846184629366	1
0	9492	2336.660247988433	2
0	9493	2337.46024669524	1
0	9498	2337.462159973758	0
0	9507	2338.468000592538	1
0	9508	2338.664836053961	0
0	9520	2342.071842003174	1
0	9526	2345.747955235051	2
0	9530	2347.251610465636	3
0	9532	2347.257502682098	4
0	9533	2349.929955187436	3
0	9539	2349.931332268291	4
0	9540	2351.781103603272	3
0	9545	2352.257522459766	2
0	9550	2352.287315537548	1
0	9555	2352.762995336819	0
0	9579	2358.946560198105	1
0	9581	2359.052741236138	0
0	9587	2359.082383545557	1
0	9589	2360.312853404368	0
0	9621	2367.822675187554	1
0	9623	2368.531466262239	0
0	9639	2375.113605633612	1
0	9641	2376.487121353744	2
0	9643	2376.750843529523	3
0	9644	2376.885810252621	2
0	9652	2378.78828081935	1
0	9657	2378.898545591487	0
0	9671	2380.710623369361	1
0	9673	2382.201216302573	0
0	9694	2383.808340088512	1
0	9698	2384.160343085441	0
0	9733	2392.057724765279	1
0	9734	2392.350378829806	0
0	9762	2396.858000318425	1
0	9765	2398.370753760522	0
0	9778	2399.283194513603	1
0	9780	2399.690981355575	2
0	9782	2401.192862414249	1
0	9787	2402.051683137697	0
0	9809	2406.045906908074	1
0	9810	2407.810239859125	0
0	9818	2409.001329972562	1
0	9819	2409.197920044717	0
0	9851	2423.813519592591	1
0	9852	2424.187488747465	0
0	9904	2442.275979754588	1
0	9905	2443.085459604668	0
0	9920	2449.352072382071	1
0	9921	2449.418490631875	0
0	9928	2449.640051281708	1
0	9929	2449.886540357221	0
0	9952	2453.85804999842	1
0	9953	2453.860648132184	0
0	9962	2455.084988965729	1
0	9963	2455.123855716392	0
0	9996	2459.130026343749	1
0	9997	2460.434154883691	0
0	10016	2461.586484619308	1
0	10018	2462.95249538934	0
0	10024	2463.155330265862	1
0	10026	2464.553710623581	2
0	10028	2465.836861656256	1
0	10035	2468.801810601503	0
0	10041	2469.221329608015	1
0	10043	2469.689087074305	0
0	10107	2484.739768649534	1
0	10109	2487.345137915019	2
0	10111	2488.711610946439	3
0	10114	2489.915319914485	2
0	10119	2490.42021843016	1
0	10125	2490.575056816408	2
0	10127	2491.474478407639	1
0	10132	2492.302281127386	0
0	10144	2493.58155961737	1
0	10147	2494.302837679094	2
0	10150	2497.264374432396	3
0	10151	2497.46290998814	2
0	10156	2498.441319164541	1
0	10161	2498.761715252033	0
0	10175	2500.659135751679	1
0	10177	2501.318293982319	2
0	10178	2502.028389528733	1
0	10184	2502.99885683974	2
0	10185	2503.203084816761	1
0	10191	2503.739518722237	0
0	10272	2518.510471208645	1
0	10273	2518.98874715108	0
0	10279	2519.759689624008	1
0	10280	2520.271632316057	0
0	10286	2520.584035347539	1
0	10288	2520.916458172245	0
0	10310	2525.075197061559	1
0	10313	2525.748006212513	0
0	10326	2528.507811875686	1
0	10327	2529.331882819037	0
0	10383	2542.734422558682	1
0	10384	2543.238732880904	0
0	10392	2545.743994311437	1
0	10393	2545.749494031627	0
0	10474	2568.05062620909	1
0	10476	2569.61922778762	2
0	10478	2571.814666188604	3
0	10484	2574.162059291084	2
0	10493	2575.375807214952	3
0	10495	2575.551576600554	4
0	10496	2576.03067707204	3
0	10503	2577.202174224519	2
0	10508	2578.543847153184	1
0	10516	2580.053677163197	2
0	10517	2580.662994925493	1
0	10523	2582.885646292499	0
0	10529	2583.434484565288	1
0	10530	2584.159748099458	0
0	10600	2598.019585938164	1
0	10603	2598.673565043938	2
0	10605	2599.142569613563	3
0	10606	2599.42082167537	2
0	10612	2601.083321185129	1
0	10619	2601.340365180112	2
0	10621	2601.404096886552	3
0	10624	2602.896785403922	4
0	10626	2602.902248856934	5
0	10628	2604.726189095826	6
0	10629	2605.177031720576	5
0	10635	2606.250060277364	4
0	10641	2607.375960075722	3
0	10650	2609.13844060586	2
0	10655	2609.239632199145	1
0	10661	2610.040601739735	2
0	10662	2610.160028109643	1
0	10668	2610.315969750731	2
0	10672	2611.243452807842	1
0	10677	2611.677387337457	0
0	10693	2612.237517431345	1
0	10695	2612.834116987259	0
0	10717	2615.753644022828	1
0	10720	2617.920424466621	0
0	10754	2625.841815117203	1
0	10755	2626.105263223752	0
0	10778	2628.603380852638	1
0	10780	2629.071866326499	2
0	10782	2629.816419948185	1
0	10788	2630.330504545892	2
0	10789	2630.80687845983	1
0	10794	2630.872669234531	0
0	10840	2653.027957111302	1
0	10843	2653.246940315473	0
0	10850	2654.001269813263	1
0	10852	2654.108006385215	2
0	10854	2656.176777125245	1
0	10860	2658.124864711893	0
0	10872	2660.747091119275	1
0	10873	2661.780465928887	0
0	10879	2661.971382684909	1
0	10881	2662.327202067667	0
0	10963	2690.561073438628	1
0	10967	2694.060254418055	2
0	10970	2695.128624839976	1
0	10979	2697.043150638643	2
0	10981	2697.259492010304	3
0	10982	2698.577917740744	2
0	10988	2699.617532174752	1
0	10993	2699.927599471739	0
0	10999	2700.06443413737	1
0	11001	2700.187384596333	2
0	11002	2701.959850039453	1
0	11008	2702.63332198319	0
0	11019	2705.419904394628	1
0	11023	2706.325473238343	0
0	11057	2720.961420842607	1
0	11059	2721.661467515671	2
0	11061	2722.232280550485	3
0	11064	2723.638786555728	2
0	11070	2723.889327426486	3
0	11071	2724.090800707492	2
0	11078	2724.636576567902	1
0	11085	2725.977846107147	0
0	11093	2727.535924292502	1
0	11095	2729.027879652054	2
0	11098	2730.248912416925	1
0	11104	2730.660420064935	2
0	11108	2730.794743629184	3
0	11110	2733.433175217199	2
0	11116	2734.489941377926	1
0	11121	2734.675342615653	0
0	11164	2746.113781188229	1
0	11168	2746.82695942253	2
0	11169	2747.325290396856	1
0	11174	2747.589164371488	0
0	11180	2747.874031404542	1
0	11181	2748.023828177204	0
0	11188	2748.036829461352	1
0	11189	2748.052662967564	0
0	11198	2749.648280284378	1
0	11200	2750.364596826352	2
0	11205	2750.896646144338	1
0	11210	2751.139413712902	0
0	11219	2752.056792374623	1
0	11222	2752.722087175867	0
0	11235	2756.316418298917	1
0	11240	2759.202644701879	0
0	11246	2759.442653192826	1
0	11247	2759.64575033986	0
0	11265	2764.145935425763	1
0	11266	2764.324410675606	0
0	11287	2770.127427463488	1
0	11293	2772.347385924624	0
0	11306	2773.50413810168	1
0	11307	2773.5979669996	0
0	11314	2773.960546379926	1
0	11317	2774.533757367588	0
0	11324	2775.163560800323	1
0	11326	2775.448704980845	2
0	11327	2776.384640857188	1
0	11333	2777.589236815198	2
0	11334	2777.601483466371	1
0	11340	2777.741494864786	0
0	11354	2778.662515853414	1
0	11359	2781.368492889883	0
0	11365	2781.993652899905	1
0	11366	2782.482691869202	0
0	11372	2782.618084669774	1
0	11374	2782.664509835443	2
0	11376	2782.769245516428	1
0	11384	2783.569110520423	0
0	11411	2790.131451710248	1
0	11413	2790.696307154635	0
0	11419	2790.940804156796	1
0	11422	2791.316888762507	0
0	11429	2791.877416628994	1
0	11430	2791.959042124107	0
0	11436	2792.153463738293	1
0	11438	2792.525515326268	2
0	11439	2792.547947724812	1
0	11445	2793.692907932227	0
0	11469	2798.195464491871	1
0	11472	2798.595005746638	2
0	11473	2800.04900587072	1
0	11478	2800.169246469574	0
0	11502	2804.913023567511	1
0	11503	2806.928241729789	0
0	11509	2807.010612183621	1
0	11513	2808.214797183543	0
0	11540	2816.040460268041	1
0	11544	2816.224656866636	2
0	11545	2816.986717548871	1
0	11551	2817.508587588929	0
0	11557	2817.641113688206	1
0	11560	2818.26502997191	2
0	11562	2819.820997733022	3
0	11564	2822.213249705643	4
0	11565	2822.391502635136	3
0	11571	2822.596422242548	4
0	11573	2823.098424729713	3
0	11578	2823.811662630368	2
0	11584	2824.192502928528	1
0	11590	2824.308539985081	2
0	11591	2824.315603215826	1
0	11599	2825.085787209673	0
0	11606	2825.599560650889	1
0	11611	2829.870646508443	0
0	11623	2832.316178031543	1
0	11627	2833.892926123779	0
0	11633	2833.98086729725	1
0	11638	2834.853220141969	2
0	11639	2836.814570604382	1
0	11648	2838.094232982247	2
0	11650	2838.780650766077	3
0	11653	2839.376129798912	2
0	11660	2840.560608650426	3
0	11661	2840.810629299213	2
0	11667	2842.66659556509	1
0	11674	2843.367830758082	2
0	11676	2844.105890531299	3
0	11677	2845.491613387925	2
0	11682	2845.70416817431	1
0	11687	2845.766540520753	0
0	11706	2847.054070982572	1
0	11707	2847.727146986076	0
0	11718	2847.885527457875	1
0	11720	2848.144141341048	0
0	11739	2850.426264982924	1
0	11741	2850.695372999695	2
0	11743	2851.094636246208	3
0	11744	2851.367163689834	2
0	11749	2854.297367359392	1
0	11755	2855.221020552172	0
0	11862	2875.249298115752	1
0	11864	2875.278671222725	2
0	11865	2875.573436073471	1
0	11870	2875.708916985026	0
0	11893	2882.989938920841	1
0	11898	2886.458773817819	0
0	11914	2890.053022885338	1
0	11916	2890.922139346836	0
0	11963	2906.002509985828	1
0	11967	2906.762128096792	2
0	11968	2907.721743953196	1
0	11974	2908.885912866366	0
0	11985	2909.319626610094	1
0	11986	2910.35612336925	0
0	12050	2923.368123369129	1
0	12051	2923.630249743062	0
0	12063	2927.34088152485	1
0	12066	2928.157921036497	0
0	12082	2936.696844596849	1
0	12083	2937.159231850685	0
0	12100	2942.073314924394	1
0	12104	2943.863179022722	2
0	12107	2945.463339306863	3
0	12111	2947.046499529505	4
0	12113	2947.556789609071	5
0	12114	2948.688200944276	4
0	12120	2948.957670266631	5
0	12121	2949.023384300801	4
0	12126	2949.582740124366	3
0	12133	2950.071492559164	2
0	12140	2950.739025181027	1
0	12145	2950.872101894491	0
0	12161	2955.816784452473	1
0	12162	2956.713638387209	0
0	12174	2959.54081440815	1
0	12176	2960.093909139182	2
0	12177	2960.971660493289	1
0	12184	2964.582453295475	0
0	12223	2970.929950747398	1
0	12224	2971.215779320922	0
0	12263	2985.181497188654	1
0	12265	2985.558939944669	2
0	12266	2986.525944288934	1
0	12272	2986.97985100769	0
0	12297	2995.655321743325	1
0	12299	2996.5460554693	2
0	12301	2996.631358104146	3
0	12302	2996.706023808031	2
0	12307	2997.71233087003	1
0	12312	2998.844913084759	0
0	12318	2998.887795847197	1
0	12322	2999.232640537319	0
0	12328	2999.403534824062	1
0	12329	3000.440896086805	0
0	12350	3004.35343059841	1
0	12351	3005.485568319208	0
0	12367	3007.614042640732	1
0	12369	3007.740607097474	0
0	12377	3008.258083207737	1
0	12381	3009.593671057638	2
0	12382	3010.588013652295	1
0	12388	3010.833184280879	2
0	12390	3012.166865653597	1
0	12396	3012.234548234307	2
0	12398	3012.410692365922	1
0	12403	3012.541849580131	0
0	12416	3017.394674746822	1
0	12420	3018.271525196465	0
0	12431	3019.030010760015	1
0	12434	3020.55805203491	2
0	12437	3021.522946620786	1
0	12442	3021.682331848812	0
0	12448	3022.311074439479	1
0	12449	3022.510745462594	0
0	12485	3034.407506422513	1
0	12486	3036.958025769679	0
0	12513	3041.115680647585	1
0	12514	3042.17115546099	0
0	12522	3042.892111264157	1
0	12523	3043.44086774739	0
0	12577	3060.415662190665	1
0	12580	3062.718470709086	2
0	12581	3063.5722260417	1
0	12586	3064.266814208417	0
0	12610	3068.817201032549	1
0	12611	3069.739882003828	0
0	12633	3073.471557567179	1
0	12634	3073.679149752158	0
0	12648	3075.055669625642	1
0	12650	3076.6056216994	0
0	12656	3076.70396462594	1
0	12658	3077.03710111323	2
0	12660	3077.656821756666	1
0	12665	3078.35993010917	0
0	12671	3078.393368619022	1
0	12674	3079.376977956489	0
0	12703	3088.115070720741	1
0	12706	3088.772255834971	2
0	12707	3089.728756915867	1
0	12712	3089.842421716377	0
0	12720	3091.304192748313	1
0	12721	3091.6158024178	0
0	12754	3100.088169780373	1
0	12756	3100.177816808014	2
0	12757	3100.313580347488	1
0	12763	3101.288313083702	0
0	12790	3111.632724727461	1
0	12791	3111.669764472644	0
0	12800	3112.828190221748	1
0	12802	3112.926853777324	2
0	12804	3113.706966945296	3
0	12805	3113.709252749146	2
0	12812	3114.057512190539	3
0	12813	3114.692916544206	2
0	12818	3114.800831034268	1
0	12825	3116.034743976026	0
0	12897	3137.279828351312	1
0	12898	3138.914825870782	0
0	12936	3150.872061788053	1
0	12937	3152.588720004362	0
0	12975	3163.051574380849	1
0	12976	3163.25047528886	0
0	13048	3181.72063994722	1
0	13050	3183.706112547332	0
0	13064	3186.51601248144	1
0	13066	3187.166956440452	2
0	13067	3187.270507577065	1
0	13075	3188.844653766211	0
0	13097	3197.009430957201	1
0	13101	3197.858739431183	2
0	13102	3197.938722704626	1
0	13107	3198.373863643748	0
0	13168	3212.909008168183	1
0	13170	3213.926810605796	0
0	13176	3214.634308142123	1
0	13177	3214.875455078371	0
0	13224	3226.264321099566	1
0	13226	3227.178319121087	0
0	13232	3227.36707113323	1
0	13236	3228.064101063731	2
0	13241	3229.013649182851	3
0	13242	3229.656124525963	2
0	13248	3231.01328585007	1
0	13254	3231.369524344033	0
0	13260	3231.457071352964	1
0	13263	3234.058358044804	2
0	13264	3234.534399962575	1
0	13271	3236.228041944359	0
0	13295	3237.962706720802	1
0	13297	3238.381052208461	0
0	13384	3259.695776235154	1
0	13386	3260.057339103919	2
0	13388	3260.129873996885	3
0	13389	3260.379307819909	2
0	13396	3261.755097651909	3
0	13397	3262.450158896688	2
0	13404	3263.274458027817	1
0	13409	3263.58264487869	0
0	13420	3265.41803340706	1
0	13423	3266.175887453432	2
0	13424	3266.402289607709	1
0	13430	3266.4849869258	2
0	13431	3266.655299710466	1
0	13436	3266.658705766251	0
0	13471	3273.815745896878	1
0	13474	3274.934673790695	0
0	13485	3278.189983562038	1
0	13488	3278.488865763561	0
0	13515	3284.370137999131	1
0	13517	3284.7554173579	0
0	13523	3284.83979593401	1
0	13524	3284.938908652675	0
0	13570	3295.739040371017	1
0	13578	3302.941457567804	2
0	13580	3303.186229662897	3
0	13588	3306.518892240956	4
0	13593	3308.41295670463	3
0	13599	3308.570903898131	4
0	13601	3308.815776274989	5
0	13604	3309.922865811646	6
0	13605	3311.184705185074	5
0	13610	3311.298329244557	4
0	13616	3312.782594279636	3
0	13623	3315.060344543288	2
0	13630	3316.280532432547	1
0	13640	3318.49080738738	2
0	13642	3318.903325708264	3
0	13643	3319.062399787066	2
0	13649	3319.736150696833	3
0	13650	3320.120547044631	2
0	13656	3320.912911365643	3
0	13659	3321.329006241257	4
0	13662	3321.963388540109	5
0	13665	3322.156440159664	4
0	13671	3323.494085834698	3
0	13682	3326.381510938579	4
0	13685	3327.757048363251	3
0	13692	3333.151801155536	2
0	13697	3333.345173286887	1
0	13704	3335.550417249343	0
0	13716	3337.058321251615	1
0	13717	3337.155296693688	0
0	13727	3338.566862485294	1
0	13728	3339.547321887174	0
0	13745	3341.437666403313	1
0	13747	3341.641944585183	2
0	13749	3342.224167904328	3
0	13751	3343.134723845099	4
0	13753	3343.219029640909	5
0	13754	3344.782224904939	4
0	13760	3345.591452008214	3
0	13765	3346.113563442816	2
0	13775	3347.487583859361	1
0	13781	3347.824562809304	0
0	13788	3348.694684355878	1
0	13789	3348.834711931279	0
0	13801	3352.173796137239	1
0	13803	3353.830635866887	2
0	13804	3353.914184394449	1
0	13809	3353.957715148094	0
0	13832	3356.660731842266	1
0	13833	3358.369805438169	0
0	13840	3358.667968605969	1
0	13842	3359.739601068652	2
0	13844	3359.843129937479	1
0	13849	3359.850384409738	0
0	13857	3359.97196202186	1
0	13859	3360.231000959315	2
0	13861	3360.404789532482	3
0	13862	3362.44784229525	2
0	13868	3362.756859354381	1
0	13874	3362.884325488256	0
0	13885	3365.550223954092	1
0	13886	3365.848854563325	0
0	13913	3370.050276403511	1
0	13916	3371.521976217363	0
0	13922	3371.632757932067	1
0	13923	3372.143615199956	0
0	13932	3375.244293660602	1
0	13939	3376.195758113113	2
0	13941	3376.860649882971	3
0	13944	3377.95094667871	4
0	13947	3378.312968658286	3
0	13955	3379.172605881988	2
0	13961	3379.39042759268	1
0	13967	3379.4028772005	2
0	13970	3379.811597329491	1
0	13976	3380.760526107393	0
0	13995	3386.6633155172	1
0	13996	3387.294913530824	0
0	14015	3391.61131053337	1
0	14016	3392.280701877818	0
0	14028	3393.145423721972	1
0	14030	3394.700612071226	2
0	14031	3395.945176044998	1
0	14036	3396.132799244324	0
0	14053	3398.233486679869	1
0	14055	3399.07335645283	2
0	14057	3399.857323138842	3
0	14064	3401.250149099765	4
0	14066	3402.099883854866	5
0	14069	3403.11427801556	4
0	14075	3407.037648177682	3
0	14080	3407.298680039812	2
0	14086	3408.550111031252	1
0	14091	3409.667960256288	0
0	14102	3410.288927347807	1
0	14103	3410.305551414409	0
0	14120	3414.250378841921	1
0	14128	3416.555691121873	2
0	14129	3417.020514235023	1
0	14136	3418.323865042045	2
0	14139	3418.965800388555	1
0	14145	3419.131914161348	2
0	14149	3421.374216733176	1
0	14155	3422.866891687023	0
0	14179	3426.144310058303	1
0	14180	3426.300740978623	0
0	14220	3437.540903495133	1
0	14222	3438.560485352289	2
0	14225	3439.378648499706	3
0	14228	3441.019188026152	4
0	14230	3441.810331605915	5
0	14231	3443.201323765448	4
0	14238	3443.400441406501	5
0	14240	3443.676718716835	6
0	14242	3444.436050940423	7
0	14244	3446.699590113814	8
0	14245	3446.788965667668	7
0	14254	3449.018753467464	6
0	14259	3449.180487402575	5
0	14264	3450.271285701967	4
0	14270	3450.861270764364	3
0	14280	3456.636919347253	2
0	14285	3456.914314080432	1
0	14291	3457.752565742042	0
0	14325	3463.190009450789	1
0	14331	3466.399763598955	2
0	14332	3467.542196655957	1
0	14338	3469.046517040965	0
0	14355	3470.301818375532	1
0	14356	3471.133415966773	0
0	14382	3474.740191175105	1
0	14385	3474.763328929213	2
0	14387	3475.093660049315	3
0	14388	3475.356383899341	2
0	14396	3476.010137111976	1
0	14401	3478.668286557735	0
0	14407	3478.991324390614	1
0	14409	3480.161156005361	0
0	14415	3480.414400132146	1
0	14416	3481.463618465207	0
0	14428	3483.011603631162	1
0	14430	3484.772479603876	0
0	14444	3488.00642015254	1
0	14450	3492.001268759831	0
0	14471	3496.490211990254	1
0	14473	3497.295629223931	2
0	14477	3498.250023946936	3
0	14478	3498.337815145926	2
0	14484	3498.530716321478	3
0	14488	3499.866287229666	4
0	14492	3501.840553841056	3
0	14500	3502.318700753699	2
0	14508	3503.949477921764	3
0	14513	3505.383724459138	2
0	14519	3507.443787641014	1
0	14524	3507.475759192262	0
0	14540	3508.591828278751	1
0	14541	3509.17604100743	0
0	14547	3509.601919583584	1
0	14550	3511.584548551734	0
0	14598	3520.566164614066	1
0	14600	3521.606744225807	2
0	14604	3522.003032903517	3
0	14607	3523.02367577245	2
0	14614	3523.675476897044	1
0	14623	3526.294354247846	0
0	14629	3526.445632240515	1
0	14630	3526.611037349296	0
0	14643	3527.662121707313	1
0	14647	3531.550922053901	2
0	14648	3531.594024746516	1
0	14653	3532.281119792666	0
0	14664	3535.186158361428	1
0	14667	3535.884832395361	0
0	14681	3537.775193271748	1
0	14682	3538.374653187114	0
0	14690	3538.699358799179	1
0	14692	3539.941007213533	0
0	14704	3541.154084682643	1
0	14710	3542.779135725562	2
0	14712	3544.250935047834	1
0	14717	3544.45734140609	0
0	14732	3547.7429770361	1
0	14736	3550.716794005882	0
0	14762	3565.055104660961	1
0	14763	3566.420720271902	0
0	14804	3575.623211761456	1
0	14805	3576.539524853589	0
0	14814	3577.289863496695	1
0	14818	3580.003000737938	0
0	14856	3585.16187883322	1
0	14858	3585.347609923463	2
0	14860	3585.710852460391	3
0	14862	3588.432201325246	2
0	14871	3589.881259141521	3
0	14872	3591.106367718106	2
0	14880	3592.180830245918	1
0	14888	3593.777443248507	2
0	14889	3593.843725268244	1
0	14897	3596.011781353593	0
0	14914	3597.768154489944	1
0	14916	3600.24305332934	2
0	14917	3601.864949760483	1
0	14923	3602.312673790788	2
0	14924	3602.934842610462	1
0	14929	3603.091167231062	0
0	14954	3607.390759358593	1
0	14955	3607.398798307909	0
0	14968	3607.923390158434	1
0	14969	3607.993700975451	0
0	14992	3615.374107219918	1
0	14994	3616.258144474953	2
0	14998	3616.570746870736	3
0	15000	3617.142157842796	4
0	15003	3617.397763813857	5
0	15004	3617.635176590402	4
0	15012	3618.72457473257	3
0	15017	3619.238547469683	2
0	15021	3620.479602624986	3
0	15024	3620.624418824955	2
0	15030	3623.27189863645	3
0	15035	3625.382650797474	2
0	15043	3627.699304638462	1
0	15050	3628.517499241761	2
0	15054	3630.072274941911	1
0	15062	3630.980847210903	0
0	15100	3636.294554518994	1
0	15101	3636.987567191817	0
0	15264	3690.308942259829	1
0	15265	3691.128047648909	0
0	15279	3693.08865114739	1
0	15281	3693.599388882016	2
0	15282	3693.98141173225	1
0	15290	3695.344408540204	0
0	15304	3698.946538462517	1
0	15308	3699.344966217085	2
0	15309	3700.262204276877	1
0	15317	3701.818271277347	0
0	15330	3703.334276374821	1
0	15333	3704.386240351925	0
0	15346	3706.172994394901	1
0	15354	3707.027180728747	2
0	15356	3708.457735255471	1
0	15361	3709.119851113253	0
0	15369	3711.285086991136	1
0	15370	3711.51208916428	0
0	15390	3715.064559533239	1
0	15392	3715.474966822909	2
0	15394	3716.057844344957	3
0	15395	3717.720693364745	2
0	15401	3719.30656816141	1
0	15407	3720.556423833953	2
0	15408	3720.821108021783	1
0	15413	3721.818472813051	0
0	15458	3737.217843388004	1
0	15461	3738.620169390524	0
0	15480	3742.175876774297	1
0	15481	3743.473134626497	0
0	15501	3744.792540124198	1
0	15503	3745.468366134109	0
0	15568	3758.886939117536	1
0	15569	3758.920179219356	0
0	15583	3762.336828602942	1
0	15585	3763.012169304931	0
0	15594	3763.438143763032	1
0	15598	3764.729800631936	0
0	15654	3774.562637220491	1
0	15656	3774.601190964096	2
0	15657	3776.050683842941	1
0	15663	3777.255927340053	0
0	15677	3780.532973611369	1
0	15678	3783.117945176887	0
0	15699	3786.005174167799	1
0	15702	3786.240779880583	0
0	15778	3810.564847702512	1
0	15779	3810.674318893311	0
0	15816	3820.370269432325	1
0	15818	3820.761162717616	0
0	15869	3844.978553360844	1
0	15871	3845.45034470675	2
0	15873	3846.307024248457	3
0	15876	3848.63932462155	2
0	15883	3849.837558866329	3
0	15887	3850.748176957349	2
0	15893	3850.890310491241	3
0	15894	3852.613607847445	2
0	15900	3853.274419090271	1
0	15909	3857.128920378799	0
0	15920	3857.7971591711	1
0	15921	3857.905063748797	0
0	15979	3869.765444954875	1
0	15983	3870.756717101896	2
0	15984	3871.388339177113	1
0	15990	3872.810789472838	0
0	16001	3872.997650329886	1
0	16005	3875.68026156612	0
0	16036	3883.447520758302	1
0	16037	3884.220188910454	0
0	16044	3884.969841616336	1
0	16045	3886.422407922215	0
0	16053	3889.170965753996	1
0	16055	3889.418990922658	2
0	16057	3890.209966942399	1
0	16062	3891.378250612901	0
0	16072	3892.039555990909	1
0	16074	3892.492456989998	2
0	16077	3893.537818186869	1
0	16086	3896.092886343117	0
0	16092	3896.489854924309	1
0	16094	3896.599907890549	2
0	16096	3897.627338026879	3
0	16100	3899.038404604234	2
0	16105	3899.552709903366	1
0	16111	3899.891122334789	2
0	16112	3900.245565473478	1
0	16118	3900.315091747496	0
0	16125	3900.751512184672	1
0	16128	3903.035675893531	0
0	16147	3905.188089200711	1
0	16149	3906.44935923208	2
0	16156	3909.965446282509	3
0	16160	3913.205296519221	2
0	16165	3914.166961675419	1
0	16171	3914.281607822857	2
0	16173	3915.486972901256	3
0	16174	3915.958525932688	2
0	16180	3916.08845365021	3
0	16184	3916.297322311902	2
0	16190	3916.72842809541	1
0	16196	3916.859377853183	0
0	16210	3922.182692162605	1
0	16212	3922.984923704961	2
0	16213	3923.404155208399	1
0	16218	3923.477770905125	0
0	16224	3923.884916072577	1
0	16225	3923.986049595395	0
0	16248	3927.921166181796	1
0	16250	3928.486033078788	2
0	16251	3929.566264395802	1
0	16258	3929.8373723046	2
0	16260	3931.770672970499	1
0	16266	3931.880871076192	2
0	16267	3932.321125829366	1
0	16274	3937.071956864592	0
0	16299	3943.114278464985	1
0	16300	3947.045342373574	0
0	16307	3947.715710003744	1
0	16309	3947.90486815131	2
0	16310	3948.515563388538	1
0	16317	3949.313272576724	0
0	16344	3952.996125012586	1
0	16346	3955.418568634911	0
0	16369	3964.797833763716	1
0	16370	3965.63584590059	0
0	16377	3966.419332749435	1
0	16379	3966.795875223614	0
0	16403	3973.158227282922	1
0	16404	3974.052120130005	0
0	16410	3978.122860155237	1
0	16411	3978.237638434588	0
0	16453	3990.17404668211	1
0	16454	3990.965963057151	0
0	16513	4000.943332483856	1
0	16514	4001.300494390396	0
0	16542	4003.026603265382	1
0	16543	4003.253135043229	0
0	16549	4003.653073883451	1
0	16550	4003.874236501145	0
0	16581	4015.519698642156	1
0	16583	4015.615238961015	2
0	16585	4016.692923594171	1
0	16594	4018.394347821021	2
0	16596	4019.235834745174	1
0	16601	4019.31841139584	0
0	16609	4019.879317568281	1
0	16615	4020.959700381342	2
0	16616	4021.568346973122	1
0	16624	4022.346784219859	2
0	16626	4022.528973000247	3
0	16628	4023.329720847366	4
0	16629	4026.668239901539	3
0	16634	4026.970077148421	2
0	16639	4027.281911147975	1
0	16646	4028.52855940018	2
0	16647	4031.094854625238	1
0	16652	4031.225342591562	0
0	16668	4031.478147776426	1
0	16669	4031.526244867023	0
0	16676	4032.802268305181	1
0	16677	4033.118545217175	0
0	16695	4040.642720268029	1
0	16696	4040.995942049125	0
0	16749	4061.414079443925	1
0	16751	4061.479794461466	2
0	16752	4062.331223844847	1
0	16757	4063.248977691461	0
0	16770	4065.702925510233	1
0	16772	4065.831389975028	2
0	16773	4066.08870153846	1
0	16781	4066.756107205208	0
0	16787	4066.840147056932	1
0	16788	4067.906177545544	0
0	16808	4073.397887743509	1
0	16809	4074.519478170777	0
0	16816	4075.716407063264	1
0	16817	4075.746926839502	0
0	16843	4083.113810772995	1
0	16845	4083.234683454821	2
0	16846	4083.52911039807	1
0	16852	4083.776518219515	0
0	16865	4084.727467520676	1
0	16869	4086.589637895577	0
0	16888	4087.746774977058	1
0	16893	4089.089367128061	2
0	16897	4089.205603630623	3
0	16900	4089.413690368685	2
0	16906	4090.076036823161	3
0	16908	4090.734866368086	2
0	16914	4092.002162725109	3
0	16915	4092.265446482911	2
0	16921	4092.785227714112	1
0	16927	4093.316606339206	0
0	16934	4094.65629342997	1
0	16939	4096.678791080217	0
0	16958	4099.792202561967	1
0	16961	4100.443461563284	2
0	16962	4100.654912903554	1
0	16967	4101.940140692975	0
0	16990	4103.580051259321	1
0	16993	4104.035796554892	2
0	16997	4105.024894560526	1
0	17004	4106.053772361919	0
0	17011	4107.471244881838	1
0	17012	4107.94408539342	0
0	17058	4118.507980467903	1
0	17059	4119.195481181252	0
0	17073	4120.77434693904	1
0	17077	4121.553272841599	2
0	17078	4121.584291941435	1
0	17085	4121.847181584444	2
0	17088	4124.161993633974	1
0	17095	4127.037775151945	0
0	17101	4127.111394113107	1
0	17102	4127.770622440043	0
0	17119	4133.986554794854	1
0	17120	4134.439977455485	0
0	17126	4135.016051348423	1
0	17127	4135.340623578138	0
0	17145	4136.652068919941	1
0	17146	4137.440245206449	0
0	17167	4140.699513222931	1
0	17169	4141.034487835978	0
0	17176	4141.534068204374	1
0	17178	4141.629485908642	2
0	17179	4143.316146874477	1
0	17187	4144.011755585696	2
0	17190	4145.64772692137	1
0	17196	4146.890037608103	2
0	17199	4147.167404439768	1
0	17205	4148.382657781508	0
0	17227	4151.396570213727	1
0	17229	4151.725414555577	2
0	17231	4152.414504381627	3
0	17234	4153.61944883103	4
0	17236	4155.899297441418	5
0	17238	4156.409219071034	6
0	17239	4156.823085984965	5
0	17244	4157.711742520995	4
0	17254	4160.067210369149	3
0	17259	4160.239720649927	2
0	17264	4160.297659613053	1
0	17272	4161.06513369305	2
0	17273	4161.408879218772	1
0	17280	4161.789905176473	0
0	17288	4163.332075560564	1
0	17291	4164.040406710567	0
0	17297	4164.133162669191	1
0	17299	4164.88069400249	0
0	17313	4166.841819470363	1
0	17316	4169.010889742014	0
0	17322	4169.095970906516	1
0	17324	4170.4747127547	0
0	17331	4171.086602698175	1
0	17332	4171.093048675147	0
0	17343	4171.266638482634	1
0	17345	4172.464237174707	0
0	17356	4173.274203279104	1
0	17357	4173.534588060113	0
0	17371	4175.257385465423	1
0	17372	4175.972371039937	0
0	17394	4184.672223266603	1
0	17395	4184.719675243802	0
0	17426	4195.078158489986	1
0	17430	4196.840029129858	2
0	17431	4202.709947017613	1
0	17437	4202.789293736073	2
0	17441	4204.205792018875	3
0	17442	4204.947247746817	2
0	17447	4205.860264126493	1
0	17458	4208.623273639453	0
0	17469	4210.32808271977	1
0	17470	4210.832467590489	0
0	17481	4212.966145754543	1
0	17482	4213.368475028533	0
0	17498	4216.695921701281	1
0	17501	4218.520189255462	0
0	17507	4218.612433155506	1
0	17508	4218.663435872676	0
0	17564	4244.763521821197	1
0	17565	4245.372175045527	0
0	17587	4250.60111468903	1
0	17588	4251.094839113967	0
0	17596	4252.177654745508	1
0	17603	4253.110390163988	0
0	17612	4253.58215683015	1
0	17614	4254.191730202013	0
0	17626	4256.712718065293	1
0	17628	4256.717775819106	2
0	17629	4256.779794333355	1
0	17639	4258.951359896647	2
0	17641	4259.15478489128	3
0	17642	4259.525696380125	2
0	17648	4260.002738101498	1
0	17653	4260.283197743911	0
0	17670	4262.541156132709	1
0	17674	4262.84977737095	2
0	17675	4263.100240920567	1
0	17680	4263.235819052174	0
0	17734	4277.601214617291	1
0	17736	4277.866460097274	0
0	17773	4289.325180093321	1
0	17776	4289.852056765586	0
0	17782	4290.639321725466	1
0	17785	4291.256668238042	2
0	17788	4292.731397484106	3
0	17795	4293.713109731827	2
0	17801	4294.219106403019	1
0	17806	4295.815012861167	0
0	17817	4296.229365238	1
0	17822	4297.057630481961	2
0	17824	4298.35654667922	3
0	17825	4299.108875611546	2
0	17830	4302.575835955914	1
0	17835	4303.099999020334	0
0	17841	4303.137210131749	1
0	17843	4303.705319095282	0
0	17869	4306.259555366394	1
0	17870	4307.78284254367	0
0	17988	4333.381268055788	1
0	17989	4333.837462547387	0
0	18003	4336.462216437162	1
0	18004	4337.872767641891	0
0	18028	4347.620210068226	1
0	18030	4347.633633831946	2
0	18032	4349.133694854899	1
0	18037	4349.440982985559	0
0	18076	4356.381277089579	1
0	18079	4357.273029394076	2
0	18080	4357.634929502408	1
0	18088	4359.205105850647	0
0	18094	4360.154315272798	1
0	18096	4360.714910262096	0
0	18122	4364.762032817424	1
0	18126	4365.452875369879	0
0	18157	4374.843422042175	1
0	18158	4377.177339963277	0
0	18170	4379.533514932108	1
0	18172	4381.201305519399	2
0	18177	4383.308631328643	1
0	18183	4383.325211996789	2
0	18188	4385.227044164766	1
0	18194	4385.80316957263	2
0	18196	4388.117741876542	1
0	18202	4388.129171882826	2
0	18204	4389.873782929393	1
0	18210	4390.269952718449	0
0	18217	4390.638685491766	1
0	18220	4391.568250183723	0
0	18226	4391.637492588699	1
0	18227	4391.696930392524	0
0	18235	4392.465503452901	1
0	18238	4395.11305424732	2
0	18239	4395.167446945862	1
0	18247	4397.690773376611	0
0	18274	4402.830642820399	1
0	18276	4403.896003036641	2
0	18277	4403.915539130301	1
0	18285	4404.807089847522	0
0	18299	4406.890369888307	1
0	18300	4407.829744982222	0
0	18311	4409.111430211771	1
0	18315	4410.942375791493	0
0	18337	4414.497768045241	1
0	18341	4415.934657370267	2
0	18342	4417.597078892457	1
0	18348	4418.397076779481	0
0	18362	4420.282295311905	1
0	18367	4421.149166972252	0
0	18373	4421.284711533484	1
0	18374	4421.663263213658	0
0	18383	4422.235623662515	1
0	18387	4423.361174061662	0
0	18413	4432.326313053308	1
0	18417	4434.298656391413	2
0	18418	4434.930171455031	1
0	18423	4434.93294482853	0
0	18488	4451.10176625169	1
0	18489	4451.246067924384	0
0	18500	4452.743004039848	1
0	18501	4452.956794157196	0
0	18540	4462.452588282462	1
0	18541	4462.540438924293	0
0	18558	4464.825090491365	1
0	18559	4464.830794658311	0
0	18581	4471.388230694736	1
0	18582	4471.399305399084	0
0	18588	4471.484880622889	1
0	18589	4471.554868810954	0
0	18604	4476.412367058012	1
0	18605	4476.423141269049	0
0	18648	4495.421184655836	1
0	18649	4495.462986601274	0
0	18725	4517.20354768924	1
0	18728	4517.931928696338	2
0	18731	4519.45001034189	3
0	18735	4520.491830179101	4
0	18736	4520.87023309255	3
0	18743	4522.194390083002	2
0	18750	4523.585748692357	3
0	18751	4525.093688904694	2
0	18756	4525.406050591915	1
0	18762	4526.657907349851	0
0	18773	4528.384152338321	1
0	18774	4528.442243974345	0
0	18780	4528.922332446945	1
0	18783	4529.248464975808	2
0	18784	4529.305490916224	1
0	18790	4529.422616173001	0
0	18821	4534.168497919603	1
0	18822	4534.294311617924	0
0	18878	4544.427916945149	1
0	18880	4544.554852137064	2
0	18881	4544.931232259928	1
0	18887	4545.338546324274	0
0	18940	4564.35235430819	1
0	18943	4564.942998899679	2
0	18945	4567.233957798255	3
0	18946	4567.672793236344	2
0	18953	4568.013829879118	3
0	18954	4568.207681810069	2
0	18960	4568.649993423013	3
0	18962	4569.632435088705	2
0	18972	4571.123840065702	3
0	18976	4573.094266302311	4
0	18978	4574.675184438569	5
0	18980	4574.786123769745	6
0	18981	4575.449376398249	5
0	18987	4575.96926933485	4
0	18992	4576.377897258135	3
0	18999	4576.640929787846	4
0	19001	4576.770609419657	3
0	19008	4577.801040326627	2
0	19015	4579.106359117596	1
0	19022	4579.894297554981	0
0	19031	4582.613345501557	1
0	19033	4583.634439419815	2
0	19034	4584.517564082776	1
0	19039	4584.758022308273	0
0	19050	4585.189420448505	1
0	19053	4586.403856681593	0
0	19066	4588.859609217684	1
0	19067	4588.934078568062	0
0	19080	4590.295746108773	1
0	19082	4591.123087100083	2
0	19085	4591.402081028179	3
0	19086	4591.753336058133	2
0	19092	4592.656340144224	1
0	19098	4592.766410375183	2
0	19104	4594.384382281177	1
0	19109	4595.54990640715	0
0	19120	4596.004023040761	1
0	19122	4596.608704663999	0
0	19151	4603.376919683563	1
0	19154	4603.693213129738	2
0	19155	4603.960555486231	1
0	19164	4604.524863682329	2
0	19165	4605.882769363447	1
0	19172	4606.086713692342	2
0	19175	4606.828393989666	1
0	19184	4610.778101426875	0
0	19196	4613.692124144412	1
0	19197	4614.965301606871	0
0	19208	4615.534638690056	1
0	19210	4615.646444944329	2
0	19211	4615.724428080088	1
0	19220	4617.999117428927	0
0	19237	4620.135183162197	1
0	19238	4620.202971418404	0
0	19255	4622.204621389507	1
0	19256	4622.901195439816	0
0	19290	4628.398425052222	1
0	19295	4629.132132716487	0
0	19302	4630.442562250956	1
0	19304	4632.908520113004	0
0	19318	4634.199848594811	1
0	19320	4636.148946576354	2
0	19322	4636.155725055195	3
0	19324	4640.042265456886	4
0	19327	4641.436193838703	3
0	19332	4641.757858127238	2
0	19339	4641.902053171043	1
0	19346	4644.344787099904	0
0	19364	4646.152557204478	1
0	19365	4646.696233326497	0
0	19374	4647.845195251906	1
0	19375	4648.515128305837	0
0	19401	4653.424343015038	1
0	19403	4653.592933445208	2
0	19405	4655.480853775042	3
0	19407	4655.848901248352	4
0	19408	4656.578349557976	3
0	19414	4656.668769669942	4
0	19415	4656.968589189747	3
0	19427	4660.351265536809	2
0	19435	4661.575822851706	1
0	19440	4662.040250362886	0
0	19446	4662.052107236885	1
0	19447	4662.081812766151	0
0	19478	4667.192787484315	1
0	19479	4667.209663600839	0
0	19486	4667.328471576602	1
0	19488	4667.851853316542	2
0	19489	4668.251842060767	1
0	19495	4668.926687475052	0
0	19507	4670.433823701455	1
0	19508	4670.654992224519	0
0	19515	4670.822149665746	1
0	19524	4672.172873284894	2
0	19528	4672.939955917129	3
0	19529	4673.485931743547	2
0	19536	4673.533074237924	3
0	19538	4674.063113758504	4
0	19539	4674.447581344382	3
0	19544	4674.588683601162	2
0	19550	4675.022721350031	3
0	19551	4675.123049648685	2
0	19556	4675.623092958769	1
0	19563	4676.542562976136	2
0	19567	4678.035456512335	3
0	19569	4678.225664440545	2
0	19576	4679.66978276058	1
0	19583	4680.737288086785	2
0	19584	4681.28002998604	1
0	19589	4682.114156087497	0
0	19601	4686.850160193352	1
0	19603	4688.366708825016	2
0	19610	4692.506384113855	1
0	19615	4693.94776580382	0
0	19635	4702.128077024926	1
0	19636	4702.674338475705	0
0	19683	4713.056614172572	1
0	19690	4715.62158696195	0
0	19697	4716.49120979794	1
0	19698	4716.523190766087	0
0	19720	4721.159679668828	1
0	19722	4721.703744487336	2
0	19725	4722.210361018353	1
0	19734	4723.598503780389	2
0	19736	4723.878004429579	3
0	19741	4726.04695156083	2
0	19747	4726.14767945217	3
0	19749	4726.829343294272	4
0	19751	4727.485885880731	3
0	19759	4728.107640456881	2
0	19765	4728.85692389097	1
0	19770	4728.955959767698	0
0	19786	4732.481117095596	1
0	19788	4732.652755307763	2
0	19790	4732.939766019314	3
0	19797	4736.439896678222	2
0	19803	4737.789882777254	1
0	19809	4738.48631497447	2
0	19813	4740.987806455492	3
0	19814	4743.772285793725	2
0	19819	4744.133654866015	1
0	19824	4744.499295917186	0
0	19841	4747.231482314305	1
0	19843	4747.694087070012	2
0	19844	4747.963223073641	1
0	19849	4748.139170018467	0
0	19856	4748.378526596982	1
0	19859	4749.013927235406	2
0	19860	4749.333042799516	1
0	19865	4749.655270504232	0
0	19892	4751.874299482858	1
0	19895	4753.542301440337	2
0	19899	4754.083461295796	1
0	19905	4754.432777646423	0
0	19915	4754.672713193182	1
0	19917	4755.570351611394	2
0	19923	4758.029628911661	1
0	19931	4761.31817864613	0
0	19943	4765.570587787998	1
0	19946	4767.554736282996	0
0	19952	4769.234151571317	1
0	19954	4769.375785202553	2
0	19955	4772.724226405482	1
0	19962	4773.270691869999	0
0	19973	4774.810800910484	1
0	19975	4775.342976286921	2
0	19976	4776.149016290443	1
0	19981	4776.159490503101	0
0	20002	4783.634901946835	1
0	20004	4783.652850222041	2
0	20005	4783.708636900783	1
0	20010	4785.502899598366	0
0	20024	4787.09419948333	1
0	20025	4787.196407156063	0
0	20037	4788.09924501014	1
0	20038	4788.786667111993	0
0	20049	4789.5553067544	1
0	20052	4790.032593968604	2
0	20054	4790.111718990056	3
0	20055	4790.4044106683	2
0	20061	4790.835769593344	1
0	20066	4791.006042397402	0
0	20084	4792.976804918618	1
0	20085	4794.759497978759	0
0	20096	4795.712498615777	1
0	20097	4796.710215080221	0
0	20122	4800.360531562203	1
0	20126	4801.129693740574	2
0	20129	4802.592314335057	1
0	20134	4802.663923841967	0
0	20154	4804.649984412472	1
0	20156	4805.584750175981	0
0	20169	4805.990409850042	1
0	20170	4806.098277965359	0
0	20187	4808.304321913096	1
0	20189	4808.827714060036	2
0	20191	4809.289858732598	3
0	20195	4810.423693497523	4
0	20198	4810.858762485332	3
0	20206	4812.791297548102	4
0	20207	4813.362115944443	3
0	20212	4813.698523692584	2
0	20217	4814.108274900677	1
0	20223	4814.939857682318	0
0	20237	4816.168015865105	1
0	20243	4817.941322720844	2
0	20245	4817.977902577723	3
0	20246	4822.454030716958	2
0	20253	4823.278194023632	3
0	20254	4824.995212319099	2
0	20260	4826.671491742052	1
0	20265	4826.970865869722	0
0	20273	4829.072589039574	1
0	20275	4830.600705788722	2
0	20276	4830.969821777963	1
0	20284	4833.016076277025	0
0	20325	4842.639780843103	1
0	20326	4846.570662985956	0
0	20332	4847.323272289423	1
0	20333	4847.358356855099	0
0	20339	4847.664431872754	1
0	20343	4849.683227843741	2
0	20345	4850.487267155308	1
0	20350	4850.944987318218	0
0	20392	4866.172010907631	1
0	20393	4867.022938713537	0
0	20409	4869.712843256745	1
0	20410	4871.007488684777	0
0	20424	4875.535164671944	1
0	20426	4875.888568264416	0
0	20471	4886.674132377412	1
0	20473	4887.689306987936	0
0	20479	4888.332153744012	1
0	20480	4888.501012449378	0
0	20493	4890.080211673734	1
0	20494	4891.070142068307	0
0	20517	4894.092661860825	1
0	20519	4894.468539155105	2
0	20522	4895.562734348366	1
0	20527	4895.773964510964	0
0	20533	4895.89579552321	1
0	20536	4897.330057541368	0
0	20551	4904.074909668825	1
0	20552	4904.158200436193	0
0	20566	4907.214488876072	1
0	20568	4907.742511505815	0
0	20575	4907.969802915297	1
0	20578	4909.416771634069	0
0	20584	4909.529545682615	1
0	20589	4913.856195888776	0
0	20596	4914.154491549328	1
0	20597	4914.271277181267	0
0	20623	4920.128034156229	1
0	20624	4920.859108058567	0
0	20637	4922.386546283282	1
0	20638	4922.54572176632	0
0	20681	4935.137030926727	1
0	20687	4938.373233952365	2
0	20689	4938.472735430892	3
0	20690	4938.809495154324	2
0	20697	4939.900078252764	3
0	20699	4941.159584956143	4
0	20700	4941.186312205316	3
0	20711	4943.508928405485	2
0	20716	4943.743687772039	1
0	20721	4943.977731656314	0
0	20733	4944.246869773885	1
0	20734	4944.430578038514	0
0	20820	4961.0343536466	1
0	20822	4962.923740496064	0
0	20854	4981.976817606371	1
0	20856	4982.582528827076	0
0	20871	4985.842739618987	1
0	20872	4986.239298469405	0
0	20887	4991.051564633892	1
0	20889	4991.943874990697	0
0	20918	4996.711291531255	1
0	20919	4997.60382875028	0
0	20949	5001.556055914358	1
0	20951	5002.611630013184	2
0	20952	5003.890386365376	1
0	20960	5006.1810809244	2
0	20962	5007.092959761466	3
0	20963	5007.959072171973	2
0	20969	5008.614079841045	1
0	20975	5008.892208065086	0
0	20983	5009.789308020747	1
0	20984	5010.847398365017	0
0	21022	5021.563595402053	1
0	21023	5021.701974431529	0
0	21039	5023.987974401524	1
0	21040	5024.229415150713	0
0	21100	5039.73369974679	1
0	21105	5043.450133588869	0
0	21127	5048.109401921949	1
0	21132	5051.363315783908	0
0	21150	5055.587010594552	1
0	21154	5056.342620954424	2
0	21156	5056.40108706408	3
0	21159	5059.267454031195	4
0	21160	5059.819224447622	3
0	21166	5060.947926449016	2
0	21173	5061.891775145954	3
0	21174	5062.054722028614	2
0	21179	5062.456601487103	1
0	21185	5065.215846725425	0
0	21197	5066.520118942227	1
0	21198	5067.096167124896	0
0	21229	5074.776745906961	1
0	21230	5074.910461767755	0
0	21246	5080.544047020986	1
0	21248	5081.130059540038	2
0	21249	5083.628063571017	1
0	21254	5085.392435924897	0
0	21268	5086.766461241169	1
0	21269	5087.479211532107	0
0	21280	5089.142841134895	1
0	21281	5089.184299671243	0
0	21318	5093.985923970898	1
0	21319	5094.049062198289	0
0	21325	5094.330067107231	1
0	21326	5094.8411351264	0
0	21337	5098.876974256163	1
0	21339	5099.2713640595	2
0	21343	5100.193351997028	1
0	21348	5100.46823132396	0
0	21356	5100.902148043755	1
0	21357	5101.009631956741	0
0	21381	5105.182545429713	1
0	21387	5107.19858462984	2
0	21388	5107.35188058103	1
0	21394	5107.439329355609	2
0	21395	5107.624715052847	1
0	21401	5108.091600320121	0
0	21455	5130.255890477495	1
0	21457	5130.387822078336	2
0	21460	5132.020148434276	3
0	21461	5132.803847977228	2
0	21467	5132.835275818083	3
0	21469	5134.6352573996	2
0	21474	5135.780884516081	1
0	21479	5136.498853333897	0
0	21501	5139.875160924902	1
0	21505	5141.054125786502	2
0	21507	5142.599131406265	3
0	21508	5144.674035224932	2
0	21516	5147.039273671421	3
0	21517	5147.178974551266	2
0	21522	5147.223519600973	1
0	21527	5148.294582436571	0
0	21547	5153.789677431997	1
0	21549	5154.358529966404	0
0	21589	5162.117891337478	1
0	21592	5163.10176261731	0
0	21643	5173.537372690869	1
0	21644	5173.722166254426	0
0	21650	5173.959208958709	1
0	21651	5173.980909079989	0
0	21703	5186.052757471226	1
0	21706	5186.431951117489	2
0	21707	5187.201763993776	1
0	21712	5187.258071448003	0
0	21842	5233.897376965545	1
0	21843	5234.017392221433	0
0	21854	5235.520784159296	1
0	21855	5235.760993641511	0
0	21866	5236.611437852341	1
0	21869	5237.575944816394	0
0	21884	5239.307261829723	1
0	21885	5240.036141121575	0
0	21892	5240.163233443123	1
0	21894	5241.091124293523	2
0	21895	5241.286568831	1
0	21900	5241.362565752979	0
0	21922	5246.953506284058	1
0	21925	5247.432850276178	0
0	21933	5249.391919513735	1
0	21935	5249.834670249563	2
0	21936	5250.062036321152	1
0	21943	5252.867812519254	0
0	21955	5254.822097354775	1
0	21956	5255.557548050513	0
0	21971	5260.963113463566	1
0	21973	5261.301834644287	2
0	21976	5261.5324444091	3
0	21977	5261.636239317451	2
0	21982	5261.786877198737	1
0	21988	5262.178724780922	0
0	22002	5266.13426982203	1
0	22004	5267.392420359332	2
0	22006	5268.793027963897	1
0	22011	5270.284176736575	0
0	22019	5271.271347547111	1
0	22022	5271.381969489303	0
0	22056	5277.553854319917	1
0	22057	5277.762699638209	0
0	22072	5283.318179804051	1
0	22076	5284.432032339964	0
0	22097	5288.478682383375	1
0	22098	5289.184769295546	0
0	22139	5301.938196985959	1
0	22141	5302.304437733578	2
0	22143	5302.304888893404	3
0	22146	5303.442337504628	2
0	22151	5303.519272925142	1
0	22158	5305.493013920444	0
0	22167	5307.240187075802	1
0	22170	5307.448121082927	2
0	22175	5307.944922449169	3
0	22176	5308.243677943423	2
0	22181	5308.721143545452	1
0	22188	5309.778357476865	0
0	22196	5310.33682935177	1
0	22200	5310.767874201911	2
0	22201	5312.229911954955	1
0	22208	5312.417710799532	2
0	22209	5312.453871320245	1
0	22215	5313.16695426394	0
0	22241	5316.023552376925	1
0	22243	5316.421040346131	2
0	22244	5316.488796741458	1
0	22250	5317.901086729415	0
0	22274	5322.54187273383	1
0	22275	5324.03378069212	0
0	22340	5337.258839681655	1
0	22341	5337.401495440919	0
0	22366	5351.078321136027	1
0	22367	5351.248220686581	0
0	22387	5355.682295160896	1
0	22388	5355.746214768291	0
0	22409	5358.691121302665	1
0	22410	5359.851704936957	0
0	22478	5376.922774522918	1
0	22481	5377.115226398498	0
0	22489	5379.153056249375	1
0	22491	5379.235275922684	2
0	22493	5379.274691365388	3
0	22495	5379.427873266203	2
0	22502	5380.284839369758	3
0	22503	5380.919383293792	2
0	22511	5382.081485634813	3
0	22512	5382.202217689383	2
0	22519	5383.063787554064	1
0	22524	5383.125006029514	0
0	22538	5386.347418050668	1
0	22539	5386.625760584786	0
0	22568	5393.269561501195	1
0	22569	5394.160235077861	0
0	22575	5394.545573211589	1
0	22576	5394.766341871623	0
0	22628	5407.26531289322	1
0	22629	5408.373687016871	0
0	22641	5410.36980129165	1
0	22643	5411.280155006491	2
0	22647	5412.346625974794	3
0	22649	5412.924028217615	4
0	22651	5413.550341698176	5
0	22655	5414.1652148339	6
0	22657	5416.905990350225	7
0	22659	5420.053966319834	8
0	22661	5421.275815273883	9
0	22662	5421.614091936214	8
0	22667	5421.705042276773	7
0	22674	5423.667372200073	6
0	22680	5424.587546045378	5
0	22685	5425.042391498832	4
0	22693	5427.476253454891	5
0	22694	5427.855214951845	4
0	22699	5428.001367847202	3
0	22710	5429.882981384931	4
0	22711	5430.070362827775	3
0	22720	5432.596341377368	2
0	22726	5432.77841301212	1
0	22732	5433.500646417631	0
0	22753	5435.914038978028	1
0	22755	5436.02901767428	0
0	22761	5436.669708773756	1
0	22764	5436.800514262221	2
0	22765	5436.95840282207	1
0	22770	5438.358924787081	0
0	22822	5450.043306466836	1
0	22829	5451.677266158736	2
0	22830	5452.062453240949	1
0	22835	5452.216356554696	0
0	22848	5457.529406904158	1
0	22853	5461.125791432074	0
0	22859	5461.648184910459	1
0	22861	5461.668575268341	2
0	22862	5461.91285054799	1
0	22868	5461.95980152937	2
0	22870	5462.12314069884	3
0	22872	5462.727494449124	2
0	22879	5464.005306280737	3
0	22881	5465.945568703202	2
0	22889	5466.27340939846	1
0	22895	5467.268539727266	0
0	22908	5469.423606321534	1
0	22909	5469.674852073158	0
0	22917	5471.952695896655	1
0	22924	5475.494616835865	2
0	22925	5476.321696172439	1
0	22930	5476.369659012875	0
0	22948	5480.152190148531	1
0	22949	5480.417196547649	0
0	22960	5481.289788192714	1
0	22963	5484.905480826994	0
0	22992	5489.524867963991	1
0	22993	5489.855505433487	0
0	23002	5490.35043934085	1
0	23006	5490.780578566743	2
0	23009	5492.078054629335	1
0	23016	5492.292610339733	2
0	23017	5492.826547853369	1
0	23024	5493.568756246026	0
0	23031	5494.498726142733	1
0	23033	5494.698181574777	0
0	23039	5495.146730229978	1
0	23041	5496.329204161915	0
0	23055	5497.857451063542	1
0	23057	5498.170897072009	2
0	23062	5499.751307960598	1
0	23074	5503.802646681571	2
0	23078	5505.941277363826	3
0	23079	5506.013121512828	2
0	23086	5506.557207658426	1
0	23092	5506.756764891275	0
0	23120	5512.199972925704	1
0	23122	5513.517766526709	2
0	23123	5513.81248930375	1
0	23128	5513.893604916779	0
0	23144	5515.499377268384	1
0	23146	5515.571694199596	2
0	23148	5516.177542031094	1
0	23156	5517.958025008968	0
0	23183	5523.655986188181	1
0	23184	5524.951166872991	0
0	23221	5531.390593202024	1
0	23222	5531.78808354943	0
0	23228	5531.938873221258	1
0	23230	5532.190543648749	0
0	23286	5542.534096056135	1
0	23287	5542.727857472877	0
0	23309	5547.190417870458	1
0	23310	5548.107898744938	0
0	23335	5557.144021927885	1
0	23336	5557.359038474939	0
0	23359	5562.804298894678	1
0	23361	5563.45260274792	2
0	23362	5564.261592395558	1
0	23367	5564.776342054389	0
0	23373	5565.196104230937	1
0	23375	5567.336875737225	0
0	23382	5568.282520724994	1
0	23384	5568.881827061374	2
0	23385	5569.010879614959	1
0	23390	5569.166605096442	0
0	23480	5600.15525462402	1
0	23481	5600.203088893823	0
0	23527	5610.826946181693	1
0	23528	5610.839886506768	0
0	23548	5616.392872384544	1
0	23549	5616.894487181456	0
0	23561	5623.079182615257	1
0	23564	5623.457126352797	0
0	23570	5623.505122215763	1
0	23574	5624.920054831586	0
0	23647	5649.008556706954	1
0	23652	5652.352818807383	2
0	23654	5654.601660158897	3
0	23656	5655.60021592801	4
0	23658	5658.302075781166	5
0	23659	5661.120856138648	4
0	23664	5662.051337758278	3
0	23669	5662.062067470185	2
0	23675	5662.687907048885	1
0	23680	5663.239279538851	0
0	23693	5663.442072175805	1
0	23696	5664.271116699725	0
0	23702	5665.017685294885	1
0	23703	5665.262733388019	0
0	23730	5669.708365127367	1
0	23731	5670.480008510312	0
0	23748	5672.187349906919	1
0	23749	5672.996320805287	0
0	23755	5673.088904513189	1
0	23756	5674.055346106169	0
0	23768	5675.619169465415	1
0	23773	5678.21922310286	0
0	23876	5707.47903169161	1
0	23877	5707.827215770335	0
0	23909	5712.217857375784	1
0	23911	5712.500588121226	2
0	23916	5713.345343471784	1
0	23922	5713.588599302786	2
0	23925	5713.99636298487	3
0	23926	5714.065782271003	2
0	23931	5714.152850875043	1
0	23936	5714.728534729286	0
0	23942	5714.78706504098	1
0	23943	5715.357652135664	0
0	23950	5715.709788255978	1
0	23951	5715.812570236053	0
0	23978	5719.513562393607	1
0	23983	5722.018505197217	0
0	23987	5723.37565571349	1
0	23992	5724.430679410868	2
0	23993	5724.831478120683	1
0	23999	5725.217405486951	0
0	24033	5738.602641640382	1
0	24035	5740.0738194635	2
0	24036	5740.313116941416	1
0	24042	5740.557462646457	0
0	24055	5741.010545967059	1
0	24057	5741.237479549588	2
0	24059	5741.315878533211	3
0	24062	5742.604750928139	2
0	24071	5743.594828531141	1
0	24077	5744.336437512769	2
0	24079	5744.825806266139	1
0	24085	5745.826794871301	0
0	24094	5747.120546705603	1
0	24095	5748.07497438764	0
0	24113	5751.380536910994	1
0	24114	5751.545157697002	0
0	24124	5752.923212789855	1
0	24125	5752.924978376254	0
0	24132	5753.211935606442	1
0	24133	5753.543356955037	0
0	24170	5763.274325980454	1
0	24177	5764.660316825892	2
0	24179	5765.774155892788	3
0	24180	5767.575345613275	2
0	24187	5767.755892094792	3
0	24188	5769.357251045515	2
0	24195	5769.707397612293	3
0	24196	5770.429368038487	2
0	24202	5771.324447670751	1
0	24207	5771.978073668939	0
0	24225	5775.644123839117	1
0	24230	5780.684594833638	0
0	24237	5782.239868501932	1
0	24239	5782.479780207071	2
0	24241	5782.524400791316	3
0	24243	5783.157521213185	4
0	24244	5783.474774121034	3
0	24249	5783.49009482851	2
0	24254	5784.716126707647	1
0	24259	5784.784688622417	0
0	24272	5786.278770747795	1
0	24273	5786.662525962686	0
0	24279	5786.669575605666	1
0	24281	5787.508007478975	0
0	24299	5792.04073524091	1
0	24300	5792.272941675215	0
0	24325	5794.8522694375	1
0	24330	5796.420918967868	0
0	24344	5798.395370448755	1
0	24346	5799.388789623502	0
0	24354	5800.342239588251	1
0	24356	5801.181948945608	0
0	24407	5815.118942719755	1
0	24410	5816.447321137629	2
0	24412	5816.478083641972	3
0	24413	5816.72138160163	2
0	24420	5818.185152907438	3
0	24423	5818.807341231379	4
0	24424	5819.061398612998	3
0	24429	5819.534814185419	2
0	24434	5820.163642044376	1
0	24440	5820.735135657374	2
0	24441	5821.285535871723	1
0	24446	5821.357921646184	0
0	24487	5829.301891268112	1
0	24492	5832.8471585119	0
0	24570	5853.218881317724	1
0	24572	5853.701300472618	0
0	24689	5877.694899513953	1
[...]
5	116784	27756.073641200282	14.732197023045
5	116794	27760.119889290401	11.13912704603
5	116801	27760.456839723184	0.127294885264
5	116811	27761.820580413806	1.335799206259
5	116851	27765.84204498518	3.188009987745
5	116856	27766.912233888322	3.128775309725
5	116863	27768.643579282624	0.166422470028
5	116875	27772.666006501886	3.551677301082
5	116910	27776.980955367206	6.346495339362
5	116933	27785.758122977405	1.075937614096
5	116940	27787.055523253978	1.833937476799
5	116953	27788.858164943531	2.343480991616
5	116981	27793.217328285746	6.044254864019
5	116992	27795.474849494377	3.829773214525
5	116997	27795.890099758987	2.005121305
5	117004	27796.94498737296	1.95551785064
5	117017	27798.787307484562	3.724049468487
5	117078	27810.79194236097	14.232100404889
5	117131	27818.477136609217	21.042152530337
5	117143	27822.934765681334	23.650300051694
5	117177	27831.527198298739	24.41804973463
5	117235	27842.355794455929	27.659606650342
5	117240	27843.505344516675	27.399994801288
5	117247	27845.95499757878	28.931640852015
5	117254	27846.554910581243	27.83738006319
5	117264	27847.908592271781	28.513199292699
5	117282	27854.303637965367	31.264245526879
5	117290	27857.454068434132	33.248481543281
5	117300	27861.853466092089	34.860920628933
5	117309	27863.605306075438	30.674811938577
5	117336	27867.536927535327	21.271781175938
5	117341	27868.14929582585	20.622048546011
5	117350	27868.684212861088	18.323717552519
5	117361	27870.187064397772	19.135029103592
5	117365	27873.656085434778	7.73594348156
5	117397	27884.467340872101	1.398451003279
5	117412	27888.846176673771	2.472655211007
5	117451	27897.951143723761	4.558470197447
5	117469	27904.104361135034	9.476246063723
5	117476	27906.161233276755	9.780704351729
5	117498	27909.980369486929	1.309091265801
5	117593	27924.708862124547	1.309879020413
5	117611	27929.556775792502	1.071075176243
5	117618	27932.459555958296	0.702455064799
5	117629	27938.48696899432	0.652824171599
5	117636	27939.033068281558	0.063058654429
5	117650	27941.038475231065	1.540611554872
5	117660	27941.952823831768	1.597093744543
5	117678	27944.802389301662	1.596853852694
5	117701	27949.030356935916	2.23526239984
5	117714	27951.22234997689	4.369641588272
5	117722	27951.932371176547	3.216329206439
5	117745	27956.840365429213	7.626110153501
5	117757	27958.085120022831	6.973291642886
5	117764	27960.877430842953	2.206548535718
5	117779	27963.242112942035	0.082294922556
5	117796	27965.518224374866	1.111272583404
5	117814	27970.367280247972	3.998014898509
5	117852	27979.519296590534	4.56524026617
5	117860	27983.539929987686	1.231314659208
5	117891	27990.626812749259	1.142826984215
5	117917	27996.708263991418	1.525400362797
5	117925	27999.558798623398	0.445313462512
5	117932	28000.932048899866	0.412143611347
5	117939	28001.049537448648	0.108397603034
5	117962	28011.921654041517	2.578155169763
5	117977	28021.188358776745	0.283776935937
5	117984	28023.80632007012	2.078329240099
5	118003	28027.177050648211	1.621239019574
5	118010	28028.287821273124	2.003869472897
5	118017	28028.8163402479	1.252730923819
5	118051	28036.044725627811	0.630129250595
5	118069	28038.751543404334	2.800809284796
5	118088	28048.70081835243	0.005457567767
5	118102	28051.158078662153	0.261825870224
5	118130	28061.539148800485	1.499985824928
5	118150	28064.270582899315	0.1171479791
5	118157	28066.276201154095	0.964715540577
5	118182	28078.330629218349	0.089657252346
5	118195	28080.343104078753	0.792597983579
5	118251	28090.961802828742	2.693002389201
5	118267	28093.175747054531	2.15002868799
5	118272	28097.498053250395	5.353569636264
5	118282	28100.943756914	1.434740497464
5	118286	28102.717170697311	2.104112379523
5	118352	28120.964889922411	6.291927758042
5	118366	28123.491299303022	1.923760109411
5	118390	28129.172044208815	1.491383643344
5	118480	28145.942751652535	1.040264293521
5	118512	28151.798108213551	0.789382647385
5	118522	28153.894454491369	2.541127786677
5	118534	28159.532472360708	4.551761967914
5	118569	28166.05485731052	7.778844639136
5	118579	28168.248602405044	4.643072680102
5	118589	28170.16715084896	6.269732181468
5	118599	28172.834545035746	8.564343524238
5	118614	28175.069091949691	7.08196300265
5	118624	28179.540387520784	1.696869039085
5	118741	28214.512521416638	11.510856865332
5	118745	28214.589622060034	5.229271814102
5	118754	28219.227188795687	3.099909635187
5	118770	28228.534921917563	2.778582886391
5	118777	28230.693903820692	0.450077171018
5	118799	28235.427881070615	3.728701749372
5	118830	28238.536585412389	2.286331241784
5	118855	28243.073259666286	0.330540391904
5	118891	28250.866333530811	2.163715229908
5	118906	28258.513481684047	0.609078050685
5	118947	28266.319872255531	0.907089821918
5	118954	28266.636505909651	0.026483683376
5	118965	28269.412065183302	0.569311645417
5	118985	28273.691015402139	0.899898690767
5	119041	28294.342197124808	0.339238309565
5	119049	28296.344926072799	0.799300215566
5	119057	28298.433683106771	0.907009626745
5	119073	28303.574775687929	1.529859954268
5	119080	28304.944738680247	0.561515499215
5	119122	28316.089125789791	1.214843075412
5	119152	28321.664254685307	2.796112218167
5	119171	28326.296192597202	3.899572425062
5	119224	28335.650361832812	5.116324203959
5	119237	28337.30056916055	5.390396170441
5	119281	28349.66691837181	0.797990070382
5	119315	28361.957508846163	2.281377793173
5	119322	28365.664871745716	1.539416113031
5	119349	28374.44551716356	7.827567282955
5	119385	28382.608786943136	11.399012079342
5	119403	28386.259315100165	14.143902176012
5	119410	28387.340450159025	8.895594678674
5	119421	28389.380450101038	8.274815774043
5	119428	28389.909523035941	0.232450984609
5	119448	28396.73234832255	4.349978529798
5	119488	28408.034468583164	3.972139411451
5	119521	28414.940944129495	0.127431506032
5	119539	28422.967584634036	0.812952093571
5	119566	28432.706221250317	3.319149708485
5	119586	28438.664099303212	0.132558182355
5	119593	28439.325408619427	0.069912898132
5	119621	28444.240824505633	3.06002751907
5	119658	28449.71830811433	0.363426339705
5	119715	28459.992336574353	5.350853736388
5	119719	28460.348939095277	2.935903561372
5	119735	28462.592848469298	0.141822653361
5	119752	28469.8089134044	0.051867748352
5	119767	28474.207755920291	2.020850538699
5	119783	28478.210535568468	0.349896912645
5	119838	28491.41181831365	0.936917740306
5	119870	28494.568381498644	2.675186575539
5	119885	28496.359150402108	4.053521696697
5	119892	28498.764527635023	3.680956206507
5	119940	28512.713159944419	10.083854009071
5	119944	28514.634931578122	4.256257371245
5	119952	28516.227827219362	1.524269131669
5	119978	28526.779757848037	2.303728593083
5	119991	28528.791523622711	0.118293840861
5	120008	28535.083247040394	5.766758715062
5	120058	28542.633960220874	8.137557805528
5	120120	28554.408943150752	1.103185788783
5	120154	28560.583050412485	4.068334114939
5	120158	28560.97408206838	1.722035261129
5	120179	28566.235848476611	0.496784830292
5	120191	28569.851087816257	1.984434692987
5	120199	28572.029401008511	0.508487948856
5	120214	28575.536813700748	1.338411750904
5	120221	28577.478147621547	0.370539471246
5	120237	28583.006900306449	3.087976351657
5	120292	28598.548781890984	3.717019574954
5	120304	28601.73908769168	3.154888160873
5	120344	28615.551199941246	15.001895571473
5	120421	28630.431443680114	27.228394198137
5	120433	28633.255733792031	21.56657359581
5	120443	28634.846725861472	19.385518641206
5	120454	28635.767095064385	13.831130468748
5	120460	28636.750657331789	11.780317369604
5	120467	28638.487743397041	13.2732389031
5	120481	28639.494419438224	13.602407121674
5	120492	28650.173301073446	17.890746963901
5	120499	28650.733667600101	17.31411504732
5	120526	28655.618807838167	17.102878393954
5	120542	28657.554078650159	18.858283472114
5	120547	28658.779842638928	17.107423840296
5	120554	28660.689022064124	18.51531965217
5	120564	28663.704475846209	20.010273910119
5	120601	28669.818646490224	17.226646979957
5	120615	28673.750629904154	18.710664432268
5	120620	28674.655758780089	19.02082010072
5	120631	28678.325761423928	21.495614540258
5	120652	28685.837277080954	25.859538801156
5	120660	28689.24753105157	25.029339342455
5	120667	28690.826105916032	25.345959448138
5	120677	28694.385049023007	26.860209184615
5	120687	28694.906501245177	26.822960844987
5	120694	28695.728617905483	22.534409331572
5	120705	28697.035453951481	7.130632405003
5	120717	28702.683113684933	8.352869988326
5	120726	28703.698052072723	1.258888808893
5	120735	28708.204976823893	1.281253961246
5	120759	28712.48795322699	0.077195663915
5	120771	28714.207332958812	1.597434561371
5	120785	28718.366917282101	4.996445307483
5	120797	28722.225648431288	0.525133240264
5	120837	28728.534037585782	1.093992619402
5	120852	28730.813661187793	0.182236694423
5	120869	28734.174117114184	0.724369842816
5	120877	28737.037195622279	0.275352777861
5	120974	28767.371100967641	10.292679924949
5	120986	28769.969171746871	10.341186577226
5	121000	28771.468521380564	4.077774732698
5	121009	28774.6515151752	3.904776468725
5	121026	28777.599733524602	2.306937289738
5	121081	28799.389268645995	10.501299723246
5	121116	28809.202156699571	14.741308554843
5	121138	28813.445354259036	13.814682686086
5	121148	28815.459891503741	7.460403001762
5	121156	28818.981627161219	8.641797629105
5	121176	28822.801534243588	9.447841081558
5	121197	28830.970198161612	9.601200803843
5	121209	28834.410286480264	2.283391383174
5	121237	28842.125785507128	2.193951265994
5	121250	28847.118706068716	6.713325802007
5	121294	28855.925479994533	13.960218853112
5	121299	28857.112751908567	13.834174727728
5	121307	28861.511472349588	16.250272178242
5	121313	28862.583960092094	14.089120444528
5	121318	28862.787360544416	14.179646847697
5	121326	28864.117029231384	14.209469086745
5	121338	28864.789068860499	11.859401657502
5	121365	28870.031705984831	5.046181152712
5	121376	28872.306890303403	4.568574212367
5	121392	28877.08357336327	8.585364342891
5	121403	28877.632215141622	4.989446530813
5	121408	28878.734084052101	5.98576348491
5	121412	28884.533362860282	10.940354310039
5	121453	28894.897479961166	1.093141885233
5	121460	28896.71132373027	0.329315016983
5	121468	28899.028343573722	1.739674616174
5	121475	28901.182220497039	0.86879518874
5	121488	28906.4870626362	3.251757082021
5	121500	28907.132406192236	0.732665838879
5	121510	28915.206698918794	8.320012659061
5	121550	28917.445333303838	0.865474697654
5	121597	28923.17362774024	3.94423962871
5	121611	28927.595773936825	7.083237721247
5	121637	28931.227957796257	10.229229412011
5	121644	28934.278607223078	12.857560152877
5	121654	28940.302851768976	11.313739072178
5	121666	28946.490238582685	4.587714051087
5	121671	28951.809435712531	8.129807608407
5	121678	28952.933953457221	8.781230945698
5	121693	28954.502666085612	0.545144848986
5	121716	28964.247277704132	2.700598728738
5	121723	28967.440133387046	5.332103650275
5	121736	28970.477763389361	4.939229092307
5	121855	28997.55705751177	22.851267171061
5	121860	28998.01993037316	20.970387661276
5	121864	28998.454641507059	10.065339678257
5	121877	29003.610452653181	4.589258669805
5	121892	29006.907413175414	3.431306871838
5	121915	29009.444218911889	2.916757160609
5	121952	29017.732897712688	3.273918011104
5	121962	29018.729969379405	3.017879500362
5	121973	29022.220534398959	0.329358815198
5	122005	29027.302171914554	0.470185322788
5	122016	29033.970205249968	0.830731823737
5	122100	29052.563900044725	11.525980621356
5	122113	29053.725483431056	4.384657336522
5	122161	29063.42247648809	7.352786460324
5	122172	29066.502509164614	8.282053023101
5	122182	29067.578926287445	2.446307562448
5	122189	29070.766813017637	2.886275383038
5	122201	29074.288398755444	2.234935660476
5	122248	29087.002468764296	1.786141246077
5	122268	29095.250197846315	6.125551398318
5	122307	29103.348980372707	4.377781334668
5	122314	29105.125080880987	5.075725070349
5	122333	29109.794096729256	9.246438803758
5	122356	29112.76439824024	6.84690395601
5	122384	29117.205202716398	1.170231666247
5	122410	29120.309204017037	1.294213633015
5	122414	29120.890356442005	1.862858675863
5	122429	29127.998146883371	0.266494411563
5	122470	29138.17671381428	6.728177772304
5	122515	29151.191126640957	5.075197347744
5	122533	29153.507212482898	6.703328421022
5	122550	29155.792942166238	3.120914135875
5	122561	29156.852414038722	0.313264407689
5	122565	29156.855875722911	0.111542287076
5	122573	29161.357505767435	2.749973768437
5	122621	29169.60934601537	6.207179787839
5	122658	29178.281898273153	12.107817271971
5	122666	29179.660808784187	10.64807805598
5	122670	29181.01728099963	10.746877693884
5	122707	29189.336026626224	0.175574455933
5	122720	29195.08943613381	1.750785529367
5	122748	29200.27303438225	1.674064335403
5	122766	29203.19648481517	0.269592395671
5	122773	29205.127026651134	0.186691161632
5	122785	29217.386564740143	1.148737152678
5	122810	29220.873026793517	0.1287050531
5	122819	29221.899162500982	0.669371212059
5	122849	29231.271137209771	3.769654237491
5	122859	29232.134193371595	1.455353692595
5	122867	29235.784062988683	0.855113092172
5	122882	29239.763123679775	0.165826418637
5	122925	29253.35326179095	2.305081082503
5	122932	29258.927845155036	5.711559168823
5	122940	29261.321811595399	6.31303662732
5	122970	29266.788200235092	1.058049947592
5	123025	29278.536918310564	3.052035477864
5	123032	29281.030698308199	3.029209994789
5	123072	29289.567850975485	1.972379382506
5	123079	29291.21024886792	0.108922134738
5	123105	29297.472870910838	5.721084902198
5	123124	29301.553310202549	1.748221325624
5	123155	29307.796700870407	5.497807458941
5	123160	29308.652829276937	2.614033992629
5	123164	29309.534229909409	2.263107068381
5	123182	29316.828594064825	3.215611011695
5	123193	29323.713966827382	8.396764169576
5	123209	29326.873749462231	6.321345890608
5	123250	29334.165490835856	11.973668333572
5	123270	29337.507238549332	8.431696009686
5	123277	29341.070260196501	8.926044903898
5	123282	29344.180822486028	11.975925444686
5	123286	29346.857979003324	7.440220190788
5	123369	29361.310528295824	6.42173752591
5	123377	29362.877298070475	0.338377426905
5	123417	29381.489790313158	0.368733615828
5	123424	29382.362815822578	0.024077734795
5	123439	29387.449559482649	1.054830151351
5	123457	29394.363636005086	0.759449353009
5	123466	29397.193381132079	2.895635069278
5	123559	29411.794115828755	13.306565630423
5	123635	29425.550433777663	23.115125388988
5	123642	29427.662465241171	24.535675640319
5	123656	29432.29002790789	19.61957516134
5	123680	29435.57524724038	19.335801306133
5	123685	29435.648674127652	16.72202467649
5	123694	29440.505608495069	17.341888036262
5	123727	29445.32625354164	19.394774890051
5	123735	29446.767254900514	15.516123608837
5	123748	29448.858184779636	15.225669295896
5	123779	29457.778242825295	17.449414165044
5	123791	29458.883452682021	15.887649988339
5	123796	29459.337503016591	14.375004842331
5	123803	29460.244362873863	9.568805623458
5	123823	29462.776354554046	8.523904579053
5	123855	29468.974174639208	0.362552217833
5	123865	29473.803246667666	2.753513972652
5	123877	29476.019620703768	2.194172025695
5	123893	29478.699473965874	0.987062164616
5	123977	29503.62595202989	1.008576378077
5	124031	29511.994316864289	7.710575793953
5	124067	29516.293360645657	11.618019559055
5	124083	29518.492791834631	4.872864808087
5	124093	29520.656162207219	4.588883576217
5	124098	29520.949631337975	0.786446849658
5	124109	29525.450555680665	5.16633759023
5	124124	29528.245103129342	3.663558007994
5	124137	29529.99231752932	3.229147056936
5	124149	29534.725135648772	1.293572055249
5	124179	29546.845740200864	1.625403757153
5	124189	29548.240320969249	2.186690134518
5	124199	29551.241585057395	2.351275898497
5	124215	29553.715598446151	1.609661531734
5	124240	29558.747015077584	5.589336782142
5	124251	29560.371670641507	3.014797807394
5	124256	29561.678366593683	1.900923838212
5	124265	29564.659697520496	4.356774265694
5	124270	29565.705914163032	2.373976108791
5	124274	29567.060681584321	3.058417668825
5	124300	29574.004959802215	4.937063933124
5	124321	29579.122054934236	9.97575817059
5	124326	29579.748814936197	8.339983101461
5	124381	29590.323182485703	5.808110678493
5	124394	29591.818038567295	7.249585948048
5	124408	29595.671049403688	0.13330503928
5	124455	29613.030747429479	3.931298525957
5	124483	29619.615952778334	0.943795193222
5	124488	29620.302389737537	0.923650008664
5	124524	29627.281547090716	2.674078703197
5	124528	29628.346205833102	2.315692671332
5	124549	29639.211541972492	4.962075298505
5	124601	29651.606416788611	14.289458752949
5	124618	29654.902366560004	15.095767817382
5	124622	29655.007131317352	11.562255383045
5	124636	29659.271898067983	1.382095792638
5	124663	29662.103852696786	0.165397362662
5	124672	29665.621992760109	1.748024398024
5	124702	29674.950755783789	5.089237365589
5	124713	29677.029662036236	0.730372154121
5	124761	29687.094029151486	4.347096993803
5	124793	29692.21554056618	8.969746695121
5	124817	29698.229996010575	11.280903066527
5	124822	29699.518111110531	11.95671526687
5	124829	29701.216136351362	11.069085408576
5	124834	29701.654473986339	4.920508422586
5	124838	29701.848114529304	1.260905478965
5	124845	29705.945683923758	0.868834374693
5	124853	29708.273239654606	2.15313072653
5	124865	29711.768573392228	1.563550880479
5	124895	29718.251995786528	7.094965257877
5	124920	29721.168792269573	8.972063694854
5	124924	29721.732370741818	1.532817894953
5	125144	29770.326997951181	42.688908276509
5	125188	29786.846997255807	57.85579169927
5	125220	29791.332825295611	53.144761721883
5	125230	29791.523991017619	50.006286185829
5	125244	29797.78206759496	54.85998007248
5	125308	29810.795467945175	62.691416692236
5	125317	29812.221297814234	63.895107961214
5	125342	29815.388968738373	55.184288402345
5	125347	29815.547490309774	51.005473186947
5	125356	29816.523763132398	40.793135681225
5	125361	29817.637144616857	35.471703560888
5	125368	29818.738223265855	34.98416384768
5	125385	29821.191191869511	26.422286999927
5	125428	29832.096509980666	36.247443473839
5	125439	29834.491139641775	35.824963728465
5	125454	29835.32999353828	34.252459149619
5	125461	29836.494901986035	29.743253049936
5	125478	29840.248379044821	32.510996467179
5	125498	29842.671787404498	32.871300022361
5	125505	29844.870624555749	33.718648559379
5	125510	29846.255824942015	33.710492549418
5	125518	29848.4655190969	35.117877265898
5	125541	29853.001677273352	38.894313072804
5	125547	29853.850384369537	38.302364017211
5	125562	29855.178084384726	38.721239280754
5	125610	29865.456691968714	46.352529750414
5	125615	29865.843315826005	40.859364941156
5	125621	29867.33812867412	40.314535156502
5	125628	29870.519918836058	36.597941337835
5	125633	29871.322771951824	28.129581448788
5	125640	29872.437562850819	18.5747894496
5	125663	29876.871730425408	15.848223736323
5	125668	29877.18942672805	15.748778669339
5	125673	29877.705779428924	4.44165789843
5	125682	29879.465974002793	3.168860359583
5	125691	29887.483680609995	9.527114595046
5	125712	29893.2156368204	14.298642860593
5	125717	29893.421311659535	9.086425392151
5	125729	29896.341979722433	4.36411727379
5	125753	29900.256838824958	6.719265905843
5	125777	29903.572764743848	2.291608346448
5	125785	29905.648893500322	1.028355417142
5	125799	29911.4738648324	2.428396536774
5	125822	29915.277611200469	6.039242787527
5	125841	29919.230429458715	6.566797989035
5	125851	29923.58533497556	1.189779940952
5	125920	29932.272510653694	3.953496036162
5	125929	29932.985240116942	3.604744179838
5	125941	29933.717140437693	0.617233621629
5	125963	29935.991040115169	0.843266290969
5	125970	29937.202742688348	1.96922501324
5	126013	29945.012780003108	5.173043213959
5	126042	29952.096507729648	4.154502809676
5	126051	29956.022548646586	0.205555593834
5	126061	29957.601120555837	0.358644680486
5	126066	29957.909005272612	0.550435916327
5	126086	29962.323535029738	0.527746196405
5	126122	29974.165829945122	0.057409352714
5	126178	29992.183183177454	14.003420610583
5	126192	29996.0741074685	7.401897166176

