version 2
run Second-n5-9-20191016-17:04:37-2336
attr configname Second-n5
attr datetime 20191016-17:04:37
attr experiment Second-n5
attr inifile omnetpp.ini
attr iterationvars ""
attr iterationvarsf ""
attr measurement ""
attr network org.omnetpp.queueing.Pizza
attr processid 2336
attr repetition 9
attr replication ""
attr resultdir results
attr runnumber 9
attr seedset 9
param **.PS.maxInventoriedPS 5
param **.U1.interArrivalTime exponential(3s)
param **.U2.interArrivalTime exponential(5s)
param **.PS.serviceTimeForInventoryU1 exponential(1.0s)
param **.PS.serviceTimeForInventoryU2 exponential(1.2s)
param **.PS.serviceTimeDirectU1 exponential(1.4s)
param **.PS.serviceTimeDirectU2 exponential(1.4s)
param **.PS.probabilityProducing 0.7
param **.CS.serviceTimeU1 exponential(1.1s)
param **.CS.serviceTimeU2 exponential(1.4s)

vector 0 Pizza.EntryQueueU1 queueLength:vector ETV
attr interpolationmode sample-hold
attr title "queue length, vector"
vector 1 Pizza.CS queueLength:vector ETV
attr interpolationmode sample-hold
attr title "queue length, vector"
vector 2 Pizza.EntryQueueU2 queueLength:vector ETV
attr interpolationmode sample-hold
attr title "queue length, vector"
vector 3 Pizza.sink lifeTime:vector ETV
attr interpolationmode none
attr title "lifetime of arrived jobs, vector"
attr unit s
vector 4 Pizza.sink lifeTimeU1:vector ETV
attr interpolationmode none
attr title "lifetime of arrived jobs, vector"
attr unit s
vector 5 Pizza.sink lifeTimeU2:vector ETV
attr interpolationmode none
attr title "lifetime of arrived jobs, vector"
attr unit s
0	0	0	0
0	20	2.569630456354	1
0	21	2.588265067867	0
0	32	3.11699001608	1
0	33	3.158751378979	0
0	79	25.721771339875	1
0	80	26.419191560364	0
0	92	29.044403001965	1
0	93	30.680547547454	0
0	115	34.930749364046	1
0	116	36.725432045687	0
0	153	59.484787447222	1
0	158	60.238118516148	0
0	164	60.306551666239	1
0	165	60.318047481787	0
0	174	61.612393556739	1
0	175	62.563297791922	0
0	190	66.144040448649	1
0	192	67.403365020611	2
0	194	67.417087896812	3
0	202	69.178654840861	4
0	203	69.97289571545	3
0	208	70.241474528932	2
0	214	70.334562823972	3
0	219	72.110965701713	2
0	224	72.119961937264	1
0	231	73.579818278428	0
0	238	74.252420176373	1
0	240	75.016487736677	2
0	246	77.457521961231	3
0	247	77.466695646217	2
0	253	78.390591462497	1
0	258	79.243758553636	0
0	272	80.320531639292	1
0	274	81.007201701016	0
0	293	85.753316023103	1
0	294	87.935543087214	0
0	312	92.670072109272	1
0	315	93.776459559501	0
0	321	93.800060553595	1
0	323	94.523825101695	0
0	378	111.051648760273	1
0	381	111.934504915868	0
0	389	112.122264446919	1
0	390	113.971984274799	0
0	419	119.943861412887	1
0	421	120.498505176355	0
0	454	133.365109625585	1
0	455	133.94616130698	0
0	483	138.234847359221	1
0	487	141.504889799381	0
0	494	141.664481363147	1
0	498	144.376662110256	0
0	514	145.688017989695	1
0	516	145.854168433533	2
0	519	147.12814844668	3
0	520	147.441845933824	2
0	525	147.491597306001	1
0	533	147.801472876797	2
0	534	148.132649768428	1
0	539	148.153605553099	0
0	545	148.240297170639	1
0	548	149.305360430857	2
0	549	149.458310285238	1
0	553	152.984197261807	2
0	557	155.384314469117	1
0	564	157.081480329735	2
0	566	157.180367229092	3
0	567	158.037431423891	2
0	573	158.289308326835	3
0	577	159.618092968374	2
0	583	161.837785423258	1
0	589	161.9280737108	2
0	590	161.930028555186	1
0	598	162.276364116657	0
0	605	163.363746739445	1
0	607	165.078354573158	0
0	625	166.732806354974	1
0	626	166.877018074355	0
0	643	168.967114402118	1
0	644	169.079491473594	0
0	687	178.665114466275	1
0	689	178.698927845678	2
0	691	180.198840892156	1
0	696	180.65702951517	0
0	702	182.028515871203	1
0	704	182.197238848507	2
0	706	182.703615202412	1
0	714	183.41347007607	2
0	715	186.429525787717	1
0	722	186.882727249013	0
0	820	214.281150811942	1
0	822	214.5061702501	2
0	827	215.410183059401	1
0	835	217.330497984565	0
0	842	218.568532517389	1
0	844	218.663977832812	2
0	845	218.695300882019	1
0	855	221.72136608568	2
0	858	222.320779825745	1
0	865	224.192104836552	2
0	869	225.088011146022	1
0	874	225.119513212525	0
0	911	232.785497385478	1
0	914	233.449583828896	0
0	926	235.078887335823	1
0	927	235.088866321332	0
0	957	242.645043198545	1
0	960	243.664287430333	0
0	966	244.654527620132	1
0	970	245.666794315984	2
0	972	246.288795437015	3
0	975	247.607042844645	2
0	981	247.804158375602	3
0	984	248.199496927993	4
0	986	248.409686560736	5
0	987	248.967190162486	4
0	993	249.087337405297	3
0	1001	251.714619463632	2
0	1007	252.673292686146	1
0	1012	252.997726920078	0
0	1026	255.63912054992	1
0	1027	255.782230250486	0
0	1034	257.170564204331	1
0	1036	258.213383295112	0
0	1042	258.301201041612	1
0	1048	260.015071492108	2
0	1052	261.024859233793	3
0	1053	263.256451425532	2
0	1060	266.138129626143	3
0	1062	266.986804051989	4
0	1063	267.01120206846	3
0	1069	267.47281007453	4
0	1071	267.983451350184	5
0	1072	268.427471581719	4
0	1078	269.397853557934	3
0	1086	270.112548933003	4
0	1087	272.090358702904	3
0	1092	272.225217170485	2
0	1097	272.329203525066	1
0	1103	272.338589993905	2
0	1107	273.428161541281	1
0	1113	273.678608281096	0
0	1143	282.729929653175	1
0	1144	282.861650357707	0
0	1154	284.230626094093	1
0	1155	284.287481308935	0
0	1170	286.050400337943	1
0	1171	286.689593939291	0
0	1192	288.289198894764	1
0	1195	288.509515453758	0
0	1276	317.060866898076	1
0	1277	317.805753989011	0
0	1288	321.236176549662	1
0	1292	321.653337167651	2
0	1295	321.807667085844	1
0	1301	323.767930487681	0
0	1313	324.351267070224	1
0	1314	325.483727645699	0
0	1323	327.211103088665	1
0	1325	328.697543250509	2
0	1329	329.730133144226	3
0	1333	330.093845266351	4
0	1336	332.318852388407	5
0	1339	341.507903435185	4
0	1344	341.985284424232	3
0	1349	342.228831779226	2
0	1356	342.412446375777	3
0	1358	344.092877869325	2
0	1364	344.37687803734	1
0	1370	344.542084504986	2
0	1372	345.323841008092	1
0	1377	345.438928327625	0
0	1404	350.297844311635	1
0	1405	350.390326589668	0
0	1420	357.099755692867	1
0	1422	357.387347070669	2
0	1423	357.462733343328	1
0	1430	357.55244071328	0
0	1460	364.162162517505	1
0	1463	364.59404825142	0
0	1474	367.652557359427	1
0	1477	368.367419024081	2
0	1480	370.791696741468	1
0	1485	370.812542397466	0
0	1492	371.575922414829	1
0	1494	372.695326428452	2
0	1497	372.818528404047	1
0	1502	373.344086278415	0
0	1522	377.256489519722	1
0	1523	378.274968965702	0
0	1572	385.713655794989	1
0	1576	386.813570243593	2
0	1579	386.837240611447	3
0	1581	387.435658875115	2
0	1586	389.224073018288	1
0	1591	389.272964624108	0
0	1670	411.088003120622	1
0	1673	411.851540388183	0
0	1722	425.518799602491	1
0	1725	426.543229704477	0
0	1755	431.28978660351	1
0	1760	433.441489589808	0
0	1794	442.638795095586	1
0	1797	443.598301921996	0
0	1806	446.759789560897	1
0	1809	448.466300207656	2
0	1812	450.059400078345	1
0	1819	450.539645632622	2
0	1820	453.025219728359	1
0	1825	453.369326070424	0
0	1831	453.610142572971	1
0	1832	454.180604239781	0
0	1840	455.395583586962	1
0	1842	455.510226217326	2
0	1844	456.158936951431	1
0	1851	456.679448100094	0
0	1859	457.101221853321	1
0	1864	458.204759115148	0
0	1882	460.392762660703	1
0	1883	460.75868159106	0
0	1932	468.943356724377	1
0	1937	475.606728658734	0
0	1951	477.757894169205	1
0	1954	478.649419320144	0
0	1981	485.282030833928	1
0	1982	485.579327330294	0
0	1989	486.947614839719	1
0	1993	488.515534188877	2
0	1994	488.642219117165	1
0	2001	488.793260870592	0
0	2019	490.846139888199	1
0	2024	492.75581645218	0
0	2049	498.805462419054	1
0	2051	499.528502386751	0
0	2082	505.625314208842	1
0	2083	506.084195771605	0
0	2123	514.077578074178	1
0	2125	514.081740908665	2
0	2127	514.422086921595	1
0	2136	515.690300109085	2
0	2139	516.262782473729	1
0	2145	516.567459576165	2
0	2147	517.140999230723	3
0	2148	518.11960060063	2
0	2153	518.182823047796	1
0	2158	519.193837107281	0
0	2217	535.150739114259	1
0	2218	535.514846381378	0
0	2263	548.122979796084	1
0	2265	549.355327771548	0
0	2301	557.134195533171	1
0	2304	559.028275236102	0
0	2355	570.754221827237	1
0	2358	572.921987150135	0
0	2364	572.922326806323	1
0	2365	573.127523241435	0
0	2379	576.604329323541	1
0	2380	577.054541546344	0
0	2398	579.721666610797	1
0	2402	580.796838623448	2
0	2404	581.314547175448	1
0	2413	582.199840113599	0
0	2426	583.256023281692	1
0	2427	583.272986544879	0
0	2446	587.587053918306	1
0	2447	587.933497225407	0
0	2464	590.715016768054	1
0	2465	591.420118924601	0
0	2472	592.455530276154	1
0	2474	593.004730981455	0
0	2510	606.242549510358	1
0	2512	607.223279661085	0
0	2518	607.329455186237	1
0	2519	608.080620998719	0
0	2525	608.947688074908	1
0	2526	609.260675280639	0
0	2542	615.359200907799	1
0	2544	615.821424164623	2
0	2547	616.871105887878	1
0	2552	617.475289712235	0
0	2615	631.900161384873	1
0	2618	633.783058453247	0
0	2624	634.118386117128	1
0	2626	634.392676646892	0
0	2668	642.710458769755	1
0	2669	644.046013329032	0
0	2675	644.344107470746	1
0	2676	644.923846101535	0
0	2717	663.830112872424	1
0	2718	663.849110639248	0
0	2820	686.232893771175	1
0	2823	687.302078778219	2
0	2824	687.328545141379	1
0	2830	688.243509529232	0
0	2883	699.854435251913	1
0	2884	700.848815057051	0
0	2979	732.405841661117	1
0	2980	732.532812572746	0
0	3011	736.158288633379	1
0	3012	736.941227838295	0
0	3054	750.576074910353	1
0	3055	752.712255025899	0
0	3069	756.162144646913	1
0	3070	756.235669660863	0
0	3076	756.633198440401	1
0	3077	756.659991436517	0
0	3084	757.909928960221	1
0	3086	758.659233035795	0
0	3131	769.890948635852	1
0	3132	771.03862113912	0
0	3138	771.125589334783	1
0	3140	771.960981784774	2
0	3141	773.115875556507	1
0	3146	773.517243474322	0
0	3166	777.685965482435	1
0	3168	779.146816097734	0
0	3219	790.593433706676	1
0	3220	791.896639341838	0
0	3262	802.1201037472	1
0	3267	803.682136933579	0
0	3273	803.804827935198	1
0	3274	803.972220028939	0
0	3336	821.917825306507	1
0	3337	822.347840136777	0
0	3367	835.565715965409	1
0	3368	835.578534740973	0
0	3406	841.90923097141	1
0	3407	842.514506115443	0
0	3455	855.971517699674	1
0	3458	857.31303581662	2
0	3461	858.044692447361	1
0	3467	858.691659666241	0
0	3548	885.07414443818	1
0	3553	887.904456429023	0
0	3578	891.457343732446	1
0	3582	894.683064955328	2
0	3583	894.905280585904	1
0	3588	895.743670139149	0
0	3614	899.288902051503	1
0	3618	900.988904094969	0
0	3632	903.409729356774	1
0	3634	905.505111446584	2
0	3636	906.066337999688	3
0	3638	907.32109587851	4
0	3639	908.079230344643	3
0	3644	908.097688938298	2
0	3649	908.135350651021	1
0	3655	909.079852463978	0
0	3688	919.020697789983	1
0	3689	919.425530781923	0
0	3803	951.262182469661	1
0	3804	951.529315955151	0
0	3881	973.000864669647	1
0	3883	974.49119647352	0
0	3937	995.219880427853	1
0	3939	996.40824296273	0
0	3955	998.502809041349	1
0	3957	999.358646908694	2
0	3959	999.534343263728	3
0	3962	1002.171357680119	2
0	3969	1003.279525160571	1
0	3976	1004.685896220965	0
0	4027	1016.949853166004	1
0	4029	1020.994601995042	0
0	4046	1024.901354047496	1
0	4049	1025.195031247172	0
0	4090	1031.130536707173	1
0	4091	1031.273024008232	0
0	4097	1031.569646272175	1
0	4099	1031.824412469071	2
0	4101	1033.046482638443	1
0	4106	1033.134993073631	0
0	4120	1034.955953040425	1
0	4121	1035.231646976866	0
0	4129	1035.961639216138	1
0	4130	1036.100897248084	0
0	4150	1045.987156094397	1
0	4152	1046.610181142003	2
0	4154	1046.620941411593	3
0	4155	1046.658933905641	2
0	4161	1047.792740211617	3
0	4164	1048.871734338708	2
0	4170	1049.443541312764	3
0	4173	1049.838717744455	4
0	4174	1049.91372910481	3
0	4181	1050.741405073209	2
0	4186	1051.694002697188	1
0	4193	1051.883198987308	0
0	4236	1057.223739099858	1
0	4238	1058.29014950348	2
0	4240	1058.476004293859	3
0	4241	1058.834936043791	2
0	4252	1060.758521972095	1
0	4257	1060.935252801996	0
0	4263	1061.598450269866	1
0	4264	1062.653200597668	0
0	4276	1063.847951242805	1
0	4278	1064.62606420316	2
0	4279	1064.82573817769	1
0	4286	1064.903329599993	2
0	4287	1065.107750128715	1
0	4292	1065.161640415213	0
0	4311	1069.372698765281	1
0	4314	1070.550098380131	0
0	4368	1087.156062999789	1
0	4369	1087.752881154302	0
0	4571	1146.836074580997	1
0	4575	1148.751204380407	2
0	4576	1149.869539520382	1
0	4582	1149.88149822233	2
0	4584	1150.972621935088	3
0	4585	1151.052129724437	2
0	4592	1152.241031939062	3
0	4594	1152.82067623442	4
0	4595	1153.278948735655	3
0	4605	1154.388928358983	4
0	4606	1155.91429576064	3
0	4611	1156.241913163565	2
0	4616	1156.477197160948	1
0	4621	1156.494602160837	0
0	4640	1158.256123439447	1
0	4641	1158.658302903769	0
0	4656	1159.927821670018	1
0	4657	1160.394986933822	0
0	4675	1163.967996546636	1
0	4677	1164.349692983332	2
0	4680	1165.520085967597	1
0	4685	1165.898393465487	0
0	4703	1167.663318384272	1
0	4705	1168.126761597348	2
0	4707	1168.171202288738	3
0	4708	1168.192790554195	2
0	4714	1168.530341127501	3
0	4715	1168.962782869272	2
0	4722	1169.517206770523	1
0	4727	1170.384404050337	0
0	4759	1186.256227767699	1
0	4760	1186.448810677214	0
0	4774	1189.597151688055	1
0	4775	1190.438628336218	0
0	4862	1224.780798614716	1
0	4863	1226.58064896495	0
0	4870	1227.696290264237	1
0	4871	1227.968609052733	0
0	4884	1228.462843489079	1
0	4887	1229.523665588911	0
0	4899	1230.955500169283	1
0	4901	1231.097034838024	2
0	4902	1232.430986355206	1
0	4908	1233.576508938251	0
0	4941	1241.064760955081	1
0	4945	1242.303444944163	2
0	4947	1242.484486139706	3
0	4952	1246.007609418596	2
0	4958	1246.162695715963	1
0	4963	1246.327734261038	0
0	5019	1260.826434334429	1
0	5021	1262.15434191209	2
0	5024	1262.994002929204	1
0	5031	1264.779470497435	2
0	5032	1266.036411767953	1
0	5038	1266.782797755803	0
0	5052	1268.666280090639	1
0	5053	1268.837170265798	0
0	5073	1282.057059761608	1
0	5074	1282.621340192796	0
0	5096	1291.672157566713	1
0	5100	1292.316449722748	2
0	5102	1292.761459918097	1
0	5107	1292.856923302967	0
0	5129	1298.393159887229	1
0	5131	1299.524827064719	0
0	5168	1317.387615793513	1
0	5172	1319.288968973525	2
0	5173	1319.818286430957	1
0	5180	1320.304516572433	0
0	5197	1322.958008233959	1
0	5198	1323.316996439081	0
0	5225	1334.613150628695	1
0	5226	1335.342096167054	0
0	5251	1340.866031108132	1
0	5253	1341.833845472392	0
0	5264	1342.6229787392	1
0	5266	1342.691615413103	2
0	5270	1344.983435528737	3
0	5271	1346.41153126711	2
0	5276	1346.500681392212	1
0	5284	1347.50395781155	2
0	5285	1348.969850178158	1
0	5291	1349.352696025532	2
0	5293	1349.510130284024	3
0	5294	1349.792384435083	2
0	5300	1351.318974119536	1
0	5307	1351.588774770695	2
0	5308	1352.583265429801	1
0	5313	1354.231454877695	0
0	5319	1354.821637293957	1
0	5320	1356.091027369838	0
0	5368	1371.168224468357	1
0	5370	1371.46470692963	2
0	5373	1372.739613169818	1
0	5379	1374.392059497412	0
0	5385	1374.88270329598	1
0	5386	1374.928094309632	0
0	5396	1376.476615828878	1
0	5397	1376.748051870558	0
0	5405	1379.967783607763	1
0	5407	1380.04361100464	2
0	5411	1380.477419861203	3
0	5415	1381.098528685849	4
0	5418	1381.396206297325	5
0	5419	1382.050677983997	4
0	5426	1383.142273772387	3
0	5433	1384.305351439165	2
0	5438	1384.716529616326	1
0	5443	1386.306104699714	0
0	5460	1387.774855261494	1
0	5461	1388.373577918875	0
0	5488	1393.915366422656	1
0	5489	1394.125727588738	0
0	5503	1397.418902402188	1
0	5504	1397.712328996346	0
0	5511	1398.897564229127	1
0	5517	1401.565969354761	0
0	5523	1402.192875171221	1
0	5525	1402.316496143704	0
0	5531	1402.418042939273	1
0	5536	1405.108231939066	0
0	5554	1408.779152784518	1
0	5556	1408.817078183176	2
0	5558	1409.770795535203	1
0	5564	1410.459716569372	2
0	5566	1410.669547608412	1
0	5571	1411.080661426255	0
0	5652	1423.301004804779	1
0	5658	1424.953001219927	0
0	5725	1438.249463808515	1
0	5727	1439.270965544202	0
0	5769	1450.783288665529	1
0	5770	1450.969046481657	0
0	5782	1452.352395240033	1
0	5783	1452.781124352433	0
0	5792	1453.65300586082	1
0	5796	1453.867238884134	2
0	5798	1454.310411078566	3
0	5800	1454.319460927506	4
0	5803	1454.661898168149	3
0	5809	1454.906975520821	2
0	5814	1454.999729265791	1
0	5821	1455.616780400564	2
0	5822	1456.00405068519	1
0	5828	1456.165025458007	2
0	5831	1457.169507599626	1
0	5837	1458.495791929191	0
0	5857	1461.218799898179	1
0	5859	1461.57874846496	0
0	5867	1463.528519796769	1
0	5868	1463.720882811357	0
0	5931	1478.411235950848	1
0	5932	1478.741720661928	0
0	5938	1479.181947745799	1
0	5943	1482.575149237431	2
0	5947	1483.354369594486	3
0	5948	1483.575255143686	2
0	5955	1484.966486673063	3
0	5958	1485.81662324557	2
0	5964	1486.774447414851	3
0	5966	1487.691244681574	2
0	5971	1488.252036003367	1
0	5976	1488.377626491012	0
0	5988	1488.992174819923	1
0	5990	1489.225153966155	0
0	6010	1490.771826226434	1
0	6011	1490.923452594926	0
0	6025	1495.780632818014	1
0	6027	1496.286708075364	2
0	6028	1497.281477019534	1
0	6034	1498.560388773923	2
0	6036	1498.780572559716	3
0	6039	1499.637993509771	2
0	6046	1500.296043182623	1
0	6052	1502.603569808487	0
0	6091	1513.684537300389	1
0	6093	1514.184143624124	2
0	6094	1514.773205932734	1
0	6099	1514.847225758525	0
0	6144	1526.198357866715	1
0	6147	1527.514834373193	0
0	6200	1540.409789694894	1
0	6201	1540.574241868353	0
0	6208	1541.109478496065	1
0	6213	1542.213905819517	2
0	6214	1543.345308392365	1
0	6220	1544.05066863372	2
0	6222	1544.68152639166	1
0	6229	1545.245994533585	2
0	6230	1545.856903643546	1
0	6237	1548.32502702173	0
0	6243	1548.422019709459	1
0	6245	1548.928943778013	2
0	6249	1551.117833944085	3
0	6250	1551.40409410587	2
0	6257	1552.004187527169	1
0	6266	1553.152893599191	0
0	6285	1554.840847729401	1
0	6289	1557.329634805005	0
0	6301	1559.132608755792	1
0	6302	1559.819627549392	0
0	6321	1562.075842896935	1
0	6322	1562.895119682006	0
0	6382	1580.964743014845	1
0	6383	1581.130850439866	0
0	6406	1587.752942951202	1
0	6408	1588.907979272258	0
0	6444	1599.028585208923	1
0	6445	1600.41647955925	0
0	6457	1601.916460847128	1
0	6458	1601.958502011336	0
0	6487	1604.308529182596	1
0	6488	1604.457345099373	0
0	6512	1608.253834701506	1
0	6513	1608.519337062578	0
0	6532	1613.223321092512	1
0	6533	1615.913003264705	0
0	6548	1617.338432872726	1
0	6549	1618.280860777642	0
0	6568	1621.45228722303	1
0	6569	1621.672710558837	0
0	6580	1622.718834973347	1
0	6581	1622.790794906842	0
0	6592	1624.105058523098	1
0	6596	1624.460362944558	0
0	6604	1624.826681696418	1
0	6606	1625.259443587609	2
0	6608	1626.226373263101	3
0	6609	1626.519035310844	2
0	6617	1628.247289237945	1
0	6623	1628.552408854799	2
0	6624	1628.562434235068	1
0	6632	1629.413771696829	0
0	6638	1629.563879185192	1
0	6641	1630.407214685004	0
0	6649	1630.84060342237	1
0	6650	1630.910655481877	0
0	6654	1631.64285400323	1
0	6658	1633.613800726369	0
0	6672	1635.03104172233	1
0	6677	1636.508375875542	0
0	6684	1637.944318175255	1
0	6686	1639.004176318155	2
0	6688	1639.349483823748	3
0	6698	1643.699713657461	2
0	6703	1643.96499920139	1
0	6708	1645.118804168877	0
0	6745	1654.904619737735	1
0	6747	1656.350145085829	2
0	6750	1657.414063363033	1
0	6757	1658.109651807693	2
0	6758	1658.836452021548	1
0	6765	1659.758123980238	2
0	6767	1660.573663398095	1
0	6774	1661.12461999203	2
0	6775	1661.333720445232	1
0	6781	1661.382909545585	2
0	6788	1662.787539062607	1
0	6794	1663.769313068342	0
0	6828	1668.6902710138	1
0	6829	1669.239763005173	0
0	6836	1670.580605389698	1
0	6837	1670.635163715625	0
0	6887	1688.991546652821	1
0	6890	1689.454720865778	0
0	6912	1696.04692259067	1
0	6915	1698.141969425162	0
0	6932	1701.943720843936	1
0	6938	1705.160668817807	0
0	6966	1710.656522000299	1
0	6967	1710.739114080802	0
0	6996	1713.840011525781	1
0	6998	1714.704389618795	0
0	7014	1718.648809271718	1
0	7015	1718.933074327642	0
0	7048	1724.622448209761	1
0	7050	1726.277273674793	2
0	7052	1728.150732604762	1
0	7057	1728.671795192807	0
0	7091	1739.34210214016	1
0	7092	1740.480225089236	0
0	7128	1750.5899867668	1
0	7129	1750.687825167216	0
0	7142	1753.852793132123	1
0	7143	1754.091280046635	0
0	7150	1757.045889645862	1
0	7153	1757.724337715353	0
0	7159	1757.766435305628	1
0	7161	1758.904494310514	0
0	7167	1758.994030744138	1
0	7168	1759.027161210483	0
0	7177	1760.382744559151	1
0	7178	1760.886440313248	0
0	7185	1761.277228841497	1
0	7186	1761.410036071014	0
0	7206	1765.619096384204	1
0	7207	1766.859494825728	0
0	7221	1768.265427107674	1
0	7222	1768.552114961974	0
0	7244	1771.819992441696	1
0	7247	1772.869614985204	2
0	7249	1773.515154035086	3
0	7250	1773.845251651251	2
0	7258	1775.534949989631	3
0	7260	1775.913685632544	2
0	7267	1776.039602688436	3
0	7268	1776.32102099697	2
0	7273	1776.632490615323	1
0	7278	1776.693824930683	0
0	7312	1788.509274863127	1
0	7314	1789.887555093979	2
0	7315	1790.339310072141	1
0	7320	1790.451442706234	0
0	7326	1791.58808001278	1
0	7328	1791.607429547285	2
0	7329	1792.862865037024	1
0	7337	1794.099408211258	2
0	7338	1794.367847447334	1
0	7343	1795.05512021478	0
0	7372	1802.725045315269	1
0	7373	1803.232280222202	0
0	7379	1803.387212397942	1
0	7381	1803.701325523312	0
0	7387	1804.33824291345	1
0	7388	1804.399701670852	0
0	7392	1805.245497811197	1
0	7396	1806.887019982262	0
0	7415	1810.497115857652	1
0	7420	1813.133115085903	0
0	7435	1816.469776678022	1
0	7436	1816.938571063797	0
0	7457	1819.785856372356	1
0	7461	1822.657174913726	0
0	7467	1823.000612161019	1
0	7468	1823.369231674385	0
0	7483	1830.607318080795	1
0	7486	1832.183286080629	0
0	7493	1834.373474436345	1
0	7494	1835.227941370095	0
0	7501	1836.111201142336	1
0	7502	1836.531728962118	0
0	7516	1838.834720836348	1
0	7517	1839.140925622088	0
0	7525	1840.811123330767	1
0	7526	1840.958464786465	0
0	7532	1841.084819686641	1
0	7535	1841.371254591917	2
0	7538	1842.66490513469	1
0	7545	1843.39358400728	2
0	7546	1843.48143064731	1
0	7552	1844.006086992295	2
0	7553	1844.95394011333	1
0	7558	1845.055538458635	0
0	7571	1845.76915811722	1
0	7573	1847.059359365849	2
0	7574	1848.002297394041	1
0	7581	1848.613696404004	0
0	7598	1852.916249444774	1
0	7599	1852.992818296776	0
0	7637	1856.559613903502	1
0	7638	1858.143914941661	0
0	7661	1862.72833735871	1
0	7663	1864.63906667746	2
0	7664	1864.65922172411	1
0	7669	1864.931895701258	0
0	7724	1888.468569167957	1
0	7727	1889.903732983051	2
0	7728	1890.275759977716	1
0	7734	1890.57606770027	2
0	7738	1891.77862641909	3
0	7739	1892.756850109432	2
0	7745	1893.119445316664	3
0	7746	1893.167808939653	2
0	7752	1894.054253294053	1
0	7757	1900.473304070671	0
0	7768	1901.252149913149	1
0	7769	1901.685726867617	0
0	7833	1919.2579564933	1
0	7834	1919.422679354157	0
0	7844	1921.55406624892	1
0	7845	1922.050055517261	0
0	7872	1931.555091895003	1
0	7873	1931.613377546834	0
0	7879	1932.582373572073	1
0	7882	1934.680313003291	0
0	7888	1934.842406008212	1
0	7890	1936.155492733013	0
0	7896	1936.399694595674	1
0	7897	1936.428703944169	0
0	7903	1936.719950694465	1
0	7904	1937.903871663592	0
0	7952	1949.008143034105	1
0	7956	1951.744604880951	0
0	7964	1952.794518485145	1
0	7966	1953.596485393774	2
0	7968	1954.291497427253	1
0	7974	1955.485247845319	0
0	7989	1959.34969102334	1
0	7992	1962.488413341921	0
0	8007	1968.634611723287	1
0	8010	1968.911528549046	0
0	8065	1980.399725316392	1
0	8068	1981.627627115769	0
0	8075	1982.763563959012	1
0	8076	1984.070103251928	0
0	8092	1985.417228521948	1
0	8093	1986.089315865341	0
0	8105	1987.798292153453	1
0	8106	1988.000726403079	0
0	8121	1991.485412125401	1
0	8122	1991.531329949356	0
0	8157	2002.232852560574	1
0	8161	2004.247419847767	2
0	8162	2005.39663627527	1
0	8167	2006.494243615699	0
0	8180	2009.336955377226	1
0	8181	2009.586569687931	0
0	8187	2010.3533312395	1
0	8188	2010.375471019049	0
0	8201	2011.135863194556	1
0	8204	2011.654273370549	0
0	8217	2012.679383815017	1
0	8218	2013.544391978336	0
0	8227	2015.932395503843	1
0	8230	2016.624628864555	2
0	8232	2016.983652056692	3
0	8233	2018.419187874616	2
0	8238	2018.933527857867	1
0	8243	2018.951868896141	0
0	8306	2037.762422820799	1
0	8307	2037.923004627565	0
0	8322	2041.593875286	1
0	8324	2041.768010156208	2
0	8326	2042.309339548832	3
0	8327	2042.366855080362	2
0	8333	2044.849464481008	1
0	8339	2046.431258680817	0
0	8472	2081.253236080501	1
0	8473	2081.27317128753	0
0	8560	2105.892659095744	1
0	8562	2105.908863683464	2
0	8563	2105.963702367939	1
0	8568	2106.036203308254	0
0	8575	2106.812349338312	1
0	8580	2111.004942357957	0
0	8599	2112.598071418807	1
0	8602	2114.66327821773	0
0	8608	2114.885949709051	1
0	8612	2115.633836590454	0
0	8624	2117.382748013313	1
0	8628	2118.125727136586	2
0	8632	2119.937056040485	1
0	8639	2120.848520301511	0
0	8657	2125.078599952192	1
0	8659	2126.770399397704	2
0	8660	2127.122610858013	1
0	8665	2127.452221335385	0
0	8732	2143.710486087586	1
0	8733	2143.799242806293	0
0	8765	2154.129507696323	1
0	8766	2154.234418088552	0
0	8774	2154.865121764709	1
0	8777	2155.309427270959	2
0	8779	2155.591762289713	3
0	8780	2156.480882594134	2
0	8786	2159.421715605944	3
0	8789	2160.568739025057	4
0	8790	2161.831954722633	3
0	8795	2162.793640168418	2
0	8802	2163.083050434104	1
0	8808	2163.765778578936	2
0	8810	2164.208062579098	1
0	8818	2164.805632262265	0
0	8834	2168.474466883573	1
0	8836	2168.701305967024	0
0	8844	2169.66394871126	1
0	8846	2170.100172370753	2
0	8847	2170.109156815995	1
0	8854	2171.002747230524	2
0	8855	2171.309627731856	1
0	8860	2172.013718269748	0
0	8899	2177.301081376485	1
0	8900	2180.138266492453	0
0	8906	2180.252949304351	1
0	8907	2180.262703458153	0
0	8937	2186.665261528362	1
0	8939	2187.047055241396	2
0	8940	2187.183610761762	1
0	8946	2187.412926795119	2
0	8947	2187.517853992904	1
0	8952	2189.066714518985	0
0	8965	2189.944297514953	1
0	8972	2192.885511389455	0
0	8978	2193.154637213908	1
0	8981	2195.698323154795	0
0	9009	2203.476710543762	1
0	9014	2205.54935551204	2
0	9017	2208.198288405232	3
0	9019	2208.637386916004	4
0	9020	2208.961066425348	3
0	9025	2209.248686360354	2
0	9032	2210.403207431478	1
0	9037	2210.653075566568	0
0	9074	2224.387222668152	1
0	9075	2224.57796483936	0
0	9096	2227.451665807241	1
0	9098	2227.73506295403	2
0	9100	2228.348193161742	3
0	9101	2229.684959387614	2
0	9107	2230.665953401265	1
0	9113	2231.388736748716	0
0	9153	2238.374089725322	1
0	9154	2242.054927866341	0
0	9162	2243.823946034956	1
0	9167	2246.64596985685	2
0	9168	2247.873318170733	1
0	9174	2248.415191894789	0
0	9190	2251.560168042326	1
0	9191	2251.995053431129	0
0	9212	2254.449123446241	1
0	9213	2256.343847115341	0
0	9225	2257.557860572526	1
0	9226	2257.591965322179	0
0	9232	2257.834281338089	1
0	9236	2259.343974273914	2
0	9238	2259.349940184983	3
0	9239	2259.91560938765	2
0	9246	2260.723433929708	3
0	9247	2261.127127573176	2
0	9254	2261.418133309644	1
0	9261	2262.221648787626	0
0	9275	2265.824833561941	1
0	9278	2268.931245739615	2
0	9279	2269.647067404714	1
0	9286	2270.9711805903	0
0	9303	2274.118414739059	1
0	9304	2275.351441807097	0
0	9311	2277.480055062997	1
0	9312	2278.168417612153	0
0	9318	2278.383043397961	1
0	9322	2282.343613296372	2
0	9324	2282.959793551847	3
0	9325	2284.233261994172	2
0	9335	2287.780431416584	1
0	9340	2287.902652752091	0
0	9347	2288.685425074627	1
0	9350	2289.818667851477	2
0	9351	2290.553349629875	1
0	9356	2292.822278664338	0
0	9393	2302.910986693357	1
0	9395	2303.230260453874	0
0	9417	2305.953672888957	1
0	9419	2306.250535852806	2
0	9422	2307.356262456143	3
0	9424	2308.265677971583	4
0	9426	2308.280241889513	5
0	9428	2309.669531796564	6
0	9429	2310.060447985875	5
0	9435	2310.466206071567	6
0	9437	2310.557597397542	7
0	9439	2310.862272540167	8
0	9440	2311.565993302592	7
0	9445	2312.886291033941	6
0	9450	2313.099130234954	5
0	9456	2313.406880439456	4
0	9462	2314.785839331021	3
0	9468	2315.419563387794	4
0	9470	2316.955788983397	5
0	9471	2319.283724781625	4
0	9478	2323.392999669394	3
0	9482	2324.717941716373	4
0	9487	2326.83496454616	5
0	9493	2328.973866649627	4
0	9498	2329.779494348478	3
0	9504	2330.159468853463	2
0	9512	2330.874456366521	3
0	9515	2331.549483077049	2
0	9521	2332.988055260335	1
0	9526	2334.281504248933	0
0	9537	2335.749647115209	1
0	9539	2336.889963448987	2
0	9540	2337.378511370308	1
0	9546	2338.397204155484	0
0	9574	2341.759999550045	1
0	9575	2342.094861285297	0
0	9611	2352.839615688516	1
0	9612	2353.330687555171	0
0	9643	2357.28131864334	1
0	9645	2358.984730500015	2
0	9646	2359.25834067215	1
0	9652	2359.953369184322	0
0	9715	2372.861184303744	1
0	9719	2372.991879548657	0
0	9725	2373.167091936104	1
0	9728	2374.113514177658	2
0	9732	2377.408175259812	1
0	9739	2378.001251302472	0
0	9756	2379.838439897472	1
0	9758	2380.624212126727	0
0	9787	2388.352247086346	1
0	9788	2390.072287268727	0
0	9817	2396.122724944379	1
0	9819	2396.222894429386	2
0	9821	2396.619666336133	3
0	9822	2396.706210860015	2
0	9829	2399.778995411823	1
0	9835	2400.019560642487	0
0	9916	2419.879671038088	1
0	9917	2421.645518473172	0
0	9923	2421.785819264002	1
0	9925	2422.509768208984	2
0	9926	2422.971434927587	1
0	9932	2423.409950214849	0
0	9979	2431.54695937107	1
0	9980	2432.093169127615	0
0	9993	2433.91893147453	1
0	9997	2434.616258486395	2
0	10001	2436.040853991183	3
0	10006	2437.559801239784	4
0	10007	2438.312921242291	3
0	10014	2438.94686620406	4
0	10016	2439.065904617353	5
0	10018	2439.191513122287	6
0	10020	2439.402138268789	7
0	10022	2441.719304765055	8
0	10023	2442.699942487774	7
0	10028	2444.231505945847	6
0	10038	2447.915966170772	5
0	10044	2447.927139643466	6
0	10047	2449.391515028254	7
0	10048	2449.867983313708	6
0	10058	2451.13834607448	7
0	10060	2451.205485940732	8
0	10061	2451.275645904938	7
0	10067	2451.377212100168	8
0	10069	2451.712790028128	9
0	10070	2451.735783618738	8
0	10076	2452.42519474215	9
0	10079	2453.618342700347	10
0	10080	2453.659158186576	9
0	10086	2454.149063946576	10
0	10092	2454.526579510627	11
0	10093	2454.981168494952	10
0	10100	2456.151527320974	11
0	10101	2456.338086355451	10
0	10107	2456.763448233636	11
0	10108	2456.954602067994	10
0	10113	2457.230379063408	9
0	10118	2457.641828555953	8
0	10128	2458.942683333346	9
0	10129	2459.479204876588	8
0	10134	2462.257901039876	7
0	10140	2462.659479769234	8
0	10141	2463.15273986758	7
0	10146	2463.481644220504	6
0	10151	2465.153857608968	5
0	10155	2467.310906481167	6
0	10157	2467.71934420807	7
0	10162	2469.582472000159	6
0	10170	2470.923297596051	5
0	10175	2471.80311172898	4
0	10181	2473.50199342398	5
0	10183	2473.736264720533	6
0	10186	2474.498068998295	5
0	10190	2476.267244624777	6
0	10193	2476.481919667965	5
0	10200	2477.853830103661	4
0	10204	2477.944394032095	5
0	10206	2478.065800677879	6
0	10215	2480.890106498717	7
0	10216	2481.157825967126	6
0	10221	2481.415271809461	5
0	10226	2483.526328396765	4
0	10231	2484.597601740043	3
0	10235	2485.063615895967	4
0	10237	2485.339092343548	5
0	10239	2485.391138724502	6
0	10243	2485.961037072817	7
0	10244	2485.966960470168	6
0	10250	2487.578446163254	5
0	10256	2487.802540497599	6
0	10257	2487.880347080353	5
0	10264	2489.009913955081	4
0	10272	2491.648302120716	5
0	10274	2491.971768760076	6
0	10276	2492.018822908477	7
0	10277	2492.431553674055	6
0	10283	2493.662368006857	7
0	10285	2493.871158721485	8
0	10287	2494.002226396912	9
0	10290	2495.397124942921	8
0	10296	2496.486200935379	9
0	10299	2497.439775105216	8
0	10309	2497.968019219651	7
0	10315	2498.763658543469	6
0	10320	2499.351235329824	5
0	10325	2499.401770479331	4
0	10330	2499.534436194832	3
0	10334	2500.084448585899	4
0	10338	2500.815367706661	5
0	10341	2503.213589959598	4
0	10352	2507.441991293227	3
0	10358	2508.444290599076	4
0	10361	2511.348885289454	3
0	10366	2511.48313337042	2
0	10372	2515.193856379492	3
0	10373	2515.65880926062	2
0	10378	2515.910317536505	1
0	10384	2515.93314370866	2
0	10385	2516.532326873213	1
0	10391	2516.728680976331	2
0	10392	2516.827053938809	1
0	10397	2517.752983046261	0
0	10453	2526.577863343505	1
0	10456	2527.558408558898	0
0	10463	2527.743590841495	1
0	10465	2529.593475276508	0
0	10488	2534.765103099145	1
0	10489	2534.851618645831	0
0	10496	2534.983238206887	1
0	10497	2535.101802354625	0
0	10526	2543.55526851985	1
0	10529	2544.15769385814	0
0	10560	2551.529141045935	1
0	10562	2553.27911254877	2
0	10564	2553.686681055706	3
0	10567	2555.187308937927	2
0	10574	2555.725371519536	1
0	10584	2559.001659131577	0
0	10590	2559.373513248369	1
0	10594	2561.117814275018	0
0	10617	2562.884824682522	1
0	10618	2563.484489725569	0
0	10634	2565.003944876015	1
0	10643	2568.36210475387	0
0	10661	2571.007622874168	1
0	10662	2571.078682435264	0
0	10669	2572.289014669791	1
0	10670	2572.380851293055	0
0	10707	2578.956943200828	1
0	10708	2579.515611537123	0
0	10715	2579.792866896372	1
0	10716	2581.551181937602	0
0	10753	2590.764131786412	1
0	10755	2591.497145231705	2
0	10757	2592.173124064008	3
0	10758	2592.495467000659	2
0	10763	2593.356400116676	1
0	10769	2594.500908136434	0
0	10793	2600.293764338412	1
0	10796	2601.538856583397	0
0	10838	2609.103472658686	1
0	10840	2609.206472449484	2
0	10844	2610.507555962413	1
0	10850	2611.386349349399	2
0	10851	2611.784433592946	1
0	10857	2612.199241886837	0
0	10867	2613.070244645234	1
0	10870	2613.820193104564	0
0	10876	2614.245604547795	1
0	10877	2614.960946755535	0
0	10922	2623.515503445492	1
0	10924	2624.395484634373	2
0	10925	2624.696308471207	1
0	10930	2624.795189748352	0
0	10970	2642.41261979868	1
0	10971	2642.809433403411	0
0	11029	2657.704748556966	1
0	11031	2658.759855304988	0
0	11063	2666.315801614322	1
0	11064	2666.360035131628	0
0	11085	2669.424969896999	1
0	11087	2670.706027262735	0
0	11110	2674.01571707761	1
0	11112	2674.807544271747	2
0	11113	2675.096519002911	1
0	11119	2677.442725572856	0
0	11158	2688.439067765385	1
0	11167	2692.673781811723	2
0	11168	2694.345764809977	1
0	11173	2694.437845128769	0
0	11183	2696.775143626209	1
0	11185	2698.743083264145	2
0	11187	2699.716790888718	3
0	11188	2700.104494786679	2
0	11193	2700.435737657243	1
0	11199	2700.697006699103	2
0	11200	2700.934601713487	1
0	11206	2701.197515701032	2
0	11213	2703.0728509056	3
0	11219	2704.458082211375	2
0	11227	2707.501183051367	1
0	11235	2708.008425445195	2
0	11240	2708.658539710701	1
0	11247	2708.905704105452	0
0	11253	2709.799372104552	1
0	11256	2710.136235247659	0
0	11273	2711.310237137286	1
0	11275	2711.4394163011	2
0	11280	2712.94439392296	1
0	11285	2713.285257469107	0
0	11312	2719.657710344004	1
0	11315	2722.720588779619	0
0	11321	2723.057793626019	1
0	11323	2723.349655213355	0
0	11345	2728.257153271018	1
0	11347	2728.417144374219	2
0	11349	2728.423153263972	3
0	11350	2728.503141383817	2
0	11356	2729.406423981478	3
0	11357	2729.453370716866	2
0	11362	2729.954333462647	1
0	11370	2731.292254359636	2
0	11373	2732.419514959119	1
0	11378	2732.978489540328	0
0	11384	2733.176869708289	1
0	11386	2733.590556668974	0
0	11393	2734.121357155672	1
0	11396	2735.046474317438	2
0	11397	2735.087033209675	1
0	11403	2735.69194910441	0
0	11409	2737.427935710576	1
0	11415	2742.46922464751	0
0	11444	2749.816958571634	1
0	11446	2751.129585244044	2
0	11447	2752.676245104026	1
0	11452	2753.05103009208	0
0	11487	2760.665600071263	1
0	11489	2761.538385541207	0
0	11500	2761.942399317223	1
0	11502	2762.521562407261	2
0	11507	2763.520930972458	3
0	11508	2764.103574097684	2
0	11516	2765.317975975399	1
0	11521	2765.623940604207	0
0	11532	2766.674071306543	1
0	11534	2766.97630576019	2
0	11536	2767.42360407463	3
0	11544	2771.124113658736	4
0	11547	2771.526480459466	3
0	11554	2773.783193515884	4
0	11556	2774.801131645925	5
0	11557	2775.413762466202	4
0	11565	2777.277119736574	3
0	11570	2777.846976153064	2
0	11576	2778.774425302471	1
0	11583	2779.275104575592	0
0	11594	2779.614268880083	1
0	11595	2779.660041391467	0
0	11610	2782.696664687524	1
0	11616	2783.375310900538	2
0	11617	2783.488540888005	1
0	11623	2783.594050026802	2
0	11624	2783.641751304803	1
0	11630	2783.890734705153	0
0	11639	2784.263808911152	1
0	11644	2786.836415829044	0
0	11659	2790.584588127041	1
0	11666	2793.863866588869	0
0	11675	2795.20364541206	1
0	11676	2795.226894272562	0
0	11687	2795.910525584735	1
0	11689	2796.682906205349	0
0	11742	2813.387934148467	1
0	11743	2814.189884964802	0
0	11764	2818.345813552348	1
0	11767	2819.767002299122	2
0	11768	2819.93224786111	1
0	11774	2822.35790734898	0
0	11781	2823.037774783981	1
0	11782	2823.311398466064	0
0	11788	2823.441488473148	1
0	11789	2823.671742708333	0
0	11830	2832.300577306454	1
0	11833	2834.870623603347	0
0	11848	2837.827305078199	1
0	11852	2839.66901130258	2
0	11854	2840.013016327854	3
0	11855	2840.517649062409	2
0	11860	2841.177021718508	1
0	11866	2841.187795699173	2
0	11867	2841.792157501696	1
0	11872	2841.95161228365	0
0	11880	2844.816617386668	1
0	11882	2844.873732938165	2
0	11883	2845.06305631617	1
0	11888	2845.087896489948	0
0	11936	2859.069499926567	1
0	11937	2859.097930272282	0
0	11950	2860.35169040928	1
0	11952	2860.445920787362	2
0	11953	2860.992628928116	1
0	11958	2861.274243002423	0
0	11984	2868.687639906042	1
0	11985	2868.85220661721	0
0	12037	2881.260322202241	1
0	12042	2884.62254763886	2
0	12043	2886.388684594381	1
0	12048	2887.487299342169	0
0	12054	2888.74399189427	1
0	12056	2888.939039400866	2
0	12057	2890.734202039053	1
0	12067	2893.811142254556	0
0	12081	2896.691000250406	1
0	12084	2897.488827054829	2
0	12085	2897.604230966214	1
0	12090	2898.307848152976	0
0	12111	2901.34574876808	1
0	12112	2901.787530405161	0
0	12145	2908.212565499261	1
0	12149	2911.021106068365	2
0	12150	2911.508510480699	1
0	12157	2912.314442840772	2
0	12158	2912.50975310353	1
0	12163	2912.655173562489	0
0	12171	2913.389451635857	1
0	12173	2914.90633980537	0
0	12179	2916.345026460475	1
0	12182	2917.595136562061	0
0	12189	2918.701166074968	1
0	12190	2918.777029166907	0
0	12238	2935.692849679794	1
0	12239	2935.718094649717	0
0	12252	2937.047426381718	1
0	12254	2937.426603950805	0
0	12299	2948.785711270967	1
0	12300	2949.389460588563	0
0	12308	2950.837954757867	1
0	12309	2952.40296398157	0
0	12354	2961.849561500233	1
0	12355	2964.879706804769	0
0	12385	2976.752170092635	1
0	12386	2976.905777714362	0
0	12414	2978.725814375493	1
0	12416	2980.959348859116	2
0	12422	2985.674808838054	1
0	12428	2986.53589850938	0
0	12521	3010.130841055878	1
0	12522	3010.714268245577	0
0	12547	3028.384181255688	1
0	12548	3028.468057375735	0
0	12556	3029.383581079024	1
0	12557	3029.440141251083	0
0	12609	3036.504171815139	1
0	12612	3036.838420136857	0
0	12636	3044.027644152874	1
0	12642	3045.104367218457	2
0	12644	3045.206961405819	3
0	12645	3046.724859474529	2
0	12650	3046.947640823425	1
0	12657	3048.110515416175	0
0	12674	3053.297459314149	1
0	12676	3054.433836481865	2
0	12682	3055.280879557601	1
0	12687	3056.434215790792	0
0	12693	3056.520598939869	1
0	12696	3056.565185365247	0
0	12707	3057.388025736722	1
0	12709	3057.711721095619	0
0	12715	3058.091494693555	1
0	12718	3059.998873373918	2
0	12719	3060.116782489451	1
0	12729	3061.272020987923	0
0	12748	3065.593785832624	1
0	12749	3066.238584074013	0
0	12762	3067.81430167813	1
0	12764	3068.06378677163	2
0	12765	3068.982518020064	1
0	12772	3069.315334420679	0
0	12782	3070.936490427008	1
0	12787	3072.24221491374	2
0	12788	3073.079745746807	1
0	12793	3073.91143799217	0
0	12804	3077.534296409972	1
0	12805	3078.075589400872	0
0	12824	3082.654526102142	1
0	12825	3082.870512788293	0
0	12870	3099.711879217288	1
0	12871	3099.781563132955	0
0	12925	3113.987767207779	1
0	12926	3114.023751524986	0
0	13004	3134.913580427929	1
0	13010	3137.046837381327	2
0	13011	3137.668081986233	1
0	13017	3138.624193814645	0
0	13033	3140.929491688507	1
0	13036	3143.169076544975	0
0	13048	3145.186679890361	1
0	13050	3145.315201742307	2
0	13054	3147.529968977697	3
0	13055	3148.782687431148	2
0	13060	3149.103195805418	1
0	13065	3149.396173443565	0
0	13090	3152.442301764653	1
0	13092	3152.786278124542	0
0	13103	3153.782964311664	1
0	13104	3154.189633587546	0
0	13118	3158.072680606303	1
0	13124	3159.983465283349	2
0	13125	3160.371500922318	1
0	13131	3162.708965721835	0
0	13142	3163.652617024321	1
0	13144	3163.966101385537	0
0	13159	3166.207087722918	1
0	13160	3166.274832467381	0
0	13281	3208.792677285462	1
0	13285	3209.761332287675	2
0	13287	3211.134061986956	3
0	13288	3212.581432046381	2
0	13293	3213.142654500635	1
0	13299	3213.633097010162	0
0	13335	3224.09222900833	1
0	13336	3224.671478533059	0
0	13356	3228.087677154065	1
0	13360	3228.600460371749	2
0	13362	3229.056863892386	3
0	13363	3231.459630781276	2
0	13368	3231.964045484807	1
0	13373	3233.257247259595	0
0	13381	3233.456879861617	1
0	13382	3233.526312015529	0
0	13389	3233.906229749104	1
0	13390	3234.923720915529	0
0	13402	3238.204874362606	1
0	13406	3239.661474548828	2
0	13409	3240.559153359347	1
0	13415	3240.835137012759	2
0	13421	3244.705093764258	1
0	13427	3245.118152538946	2
0	13428	3245.218762517279	1
0	13436	3246.042416929536	2
0	13439	3246.649533809264	3
0	13440	3246.984649892438	2
0	13447	3247.641831170742	1
0	13453	3248.520996906159	0
0	13474	3252.171762058699	1
0	13477	3253.804291124782	0
0	13494	3254.995673752045	1
0	13497	3256.05070396497	0
0	13516	3259.016252092252	1
0	13518	3259.377840577636	2
0	13521	3262.357055979991	1
0	13528	3262.704978659416	0
0	13553	3270.153761827339	1
0	13561	3273.155633431072	2
0	13563	3273.889906864262	3
0	13566	3274.539500524649	4
0	13568	3275.905289873886	5
0	13571	3277.521125342094	4
0	13576	3277.887067266725	3
0	13584	3278.361724152698	4
0	13586	3278.50381486066	5
0	13588	3278.872729704233	6
0	13589	3279.248359338938	5
0	13594	3279.476529035397	4
0	13600	3279.640837786938	5
0	13601	3280.311813306775	4
0	13606	3280.552018802583	3
0	13612	3281.046066987495	2
0	13617	3282.208863440833	1
0	13627	3283.551021314319	2
0	13628	3283.827202972174	1
0	13640	3285.305469142166	2
0	13641	3286.401165172727	1
0	13646	3286.54929536463	0
0	13688	3294.516114931309	1
0	13689	3294.805549582163	0
0	13706	3299.72178070698	1
0	13707	3299.79498619164	0
0	13768	3312.764821949657	1
0	13774	3317.665639673206	2
0	13778	3319.696606019444	3
0	13779	3319.728196746775	2
0	13786	3320.864031723846	3
0	13789	3321.968353646321	4
0	13790	3322.420199175301	3
0	13795	3322.630816367681	2
0	13801	3323.023038206558	1
0	13811	3324.772409913039	2
0	13815	3326.780961356631	1
0	13821	3328.289483506643	0
0	13835	3330.240374566673	1
0	13836	3330.553142734179	0
0	13880	3343.613918279679	1
0	13882	3343.761357451974	2
0	13884	3343.97299227927	3
0	13889	3345.33569246617	4
0	13891	3345.469155037399	5
0	13892	3345.582465022723	4
0	13898	3346.239757398218	5
0	13899	3346.368736925915	4
0	13904	3346.905989253169	3
0	13910	3347.631232121114	4
0	13911	3347.639486985207	3
0	13917	3348.929287973067	2
0	13923	3349.2270954001	3
0	13925	3349.365996375521	4
0	13928	3351.313448892527	3
0	13933	3352.147422499256	2
0	13941	3355.407408881767	3
0	13942	3356.181622641303	2
0	13946	3357.407183243593	3
0	13949	3357.931302618022	2
0	13955	3359.749351712695	3
0	13957	3360.268617857202	4
0	13960	3361.097297964786	3
0	13966	3361.464213677386	4
0	13968	3362.825379079877	3
0	13975	3363.177992448957	2
0	13981	3364.644244263762	1
0	13988	3365.090814305948	2
0	13989	3365.873019114024	1
0	13996	3367.294544741238	0
0	14004	3368.082096259352	1
0	14006	3368.514641682369	2
0	14009	3370.707541423147	1
0	14014	3371.04023770755	0
0	14021	3371.723831004573	1
0	14022	3372.065704036204	0
0	14046	3374.47048518981	1
0	14048	3375.125363412341	0
0	14068	3376.226482856978	1
0	14072	3380.122379284454	0
0	14107	3392.400864329989	1
0	14110	3394.427007176951	0
0	14139	3400.310964816778	1
0	14141	3400.893688464803	2
0	14143	3402.164117790332	3
0	14148	3403.532294166714	2
0	14153	3403.61256463204	1
0	14161	3405.143694774027	2
0	14162	3407.155090570763	1
0	14168	3408.550887638274	0
0	14181	3409.316827804974	1
0	14182	3409.380978153924	0
0	14189	3409.849889111205	1
0	14192	3410.227806673313	0
0	14216	3417.407709294259	1
0	14219	3418.237133095168	0
0	14261	3430.033646296229	1
0	14265	3430.838712880575	0
0	14310	3443.76415816603	1
0	14312	3443.88045299496	2
0	14313	3444.464022173314	1
0	14318	3444.827970525336	0
0	14382	3476.466909268075	1
0	14388	3478.524893890074	0
0	14437	3484.697115882425	1
0	14438	3484.815677206798	0
0	14478	3497.402927125773	1
0	14481	3499.983892283547	0
0	14519	3512.463492362705	1
0	14520	3513.003885923171	0
0	14542	3523.170128669255	1
0	14544	3525.901827874357	2
0	14545	3525.939906471168	1
0	14551	3526.066280263871	0
0	14632	3544.553900752324	1
0	14637	3549.896316744139	0
0	14680	3563.054226443163	1
0	14681	3563.559410514605	0
0	14705	3573.738272189378	1
0	14706	3574.161054724779	0
0	14720	3580.734286791311	1
0	14721	3582.265087576872	0
0	14742	3583.594762177147	1
0	14748	3588.31357230903	0
0	14754	3588.316909349714	1
0	14755	3588.506293559135	0
0	14767	3589.847190563964	1
0	14768	3590.263960803102	0
0	14792	3596.000395270659	1
0	14799	3599.194402578712	0
0	14810	3599.907472029991	1
0	14811	3600.144572129268	0
0	14819	3601.15046121638	1
0	14820	3601.708159603242	0
0	14841	3617.772244238079	1
0	14844	3620.051958964821	0
0	14850	3620.464970686103	1
0	14853	3621.443381748992	0
0	14859	3622.741635654842	1
0	14860	3623.357132200418	0
0	14867	3623.92499902554	1
0	14869	3626.377535775343	0
0	14875	3626.525816155316	1
0	14876	3626.686726097448	0
0	14911	3631.979000306417	1
0	14912	3632.297798463335	0
0	14944	3637.542306387342	1
0	14946	3637.735336702899	2
0	14947	3638.072229518888	1
0	14953	3638.297763010031	2
0	14957	3639.833057788568	1
0	14967	3641.854906491937	2
0	14969	3644.127147995529	1
0	14974	3644.148943559225	0
0	15012	3658.28876100233	1
0	15014	3659.156971932172	2
0	15017	3660.935541256041	1
0	15022	3661.51041717215	0
0	15060	3671.221702610522	1
0	15061	3671.983441973213	0
0	15092	3685.583064848219	1
0	15094	3685.784008800828	0
0	15100	3686.561145717316	1
0	15101	3687.079494811571	0
0	15124	3693.489533154089	1
0	15126	3693.864883714607	2
0	15130	3694.903008818253	3
0	15134	3696.290355039867	2
0	15140	3696.394238042719	3
0	15144	3696.568530878811	2
0	15151	3697.992565710366	1
0	15157	3698.297927570384	0
0	15168	3698.739285922247	1
0	15169	3698.768592657598	0
0	15182	3699.714206939512	1
0	15183	3701.0656273156	0
0	15195	3702.576067294456	1
0	15196	3704.0455741524	0
0	15208	3704.864623095487	1
0	15210	3705.086285153389	2
0	15216	3706.034596689104	3
0	15217	3706.246595983708	2
0	15222	3706.29318964691	1
0	15228	3707.051354202817	2
0	15229	3707.358446453763	1
0	15235	3708.754629492831	0
0	15251	3711.001597264943	1
0	15256	3712.734787773308	2
0	15259	3712.918741172078	3
0	15262	3713.346979766719	2
0	15267	3713.938208892933	1
0	15273	3714.818315663146	2
0	15275	3715.577991600409	1
0	15281	3716.288501869477	0
0	15287	3716.909217388535	1
0	15288	3716.973351760164	0
0	15307	3720.617183843706	1
0	15308	3720.887023740366	0
0	15336	3731.878678581558	1
0	15338	3731.971997872977	2
0	15339	3732.965654037781	1
0	15344	3733.25897322791	0
0	15373	3737.372958488822	1
0	15375	3737.472242437518	2
0	15376	3737.842141479324	1
0	15381	3738.308754792798	0
0	15408	3745.275147260999	1
0	15409	3745.819994737303	0
0	15415	3746.71445613237	1
0	15416	3746.757858055839	0
0	15466	3756.002250734993	1
0	15471	3757.473614665966	0
0	15499	3763.421924889483	1
0	15504	3764.88015247374	2
0	15505	3766.330895066015	1
0	15510	3766.352492696809	0
0	15540	3771.611988667598	1
0	15544	3773.319770188543	0
0	15550	3773.494414832042	1
0	15551	3773.808561601039	0
0	15562	3774.126907444943	1
0	15567	3775.9950283849	2
0	15568	3776.68523290353	1
0	15575	3777.877622013354	0
0	15586	3778.125757204331	1
0	15587	3778.391318494839	0
0	15603	3781.295717276418	1
0	15605	3783.458348177702	2
0	15606	3784.388955261564	1
0	15611	3784.84698001955	0
0	15642	3793.850165338286	1
0	15644	3793.910209699849	2
0	15647	3796.280180620584	1
0	15652	3796.365568046355	0
0	15675	3800.583184364779	1
0	15676	3800.770042702509	0
0	15689	3804.228990978842	1
0	15691	3805.690844674775	2
0	15693	3805.904321658714	3
0	15697	3806.249292891271	4
0	15699	3806.703832375709	5
0	15701	3807.491336349336	6
0	15702	3807.579278730668	5
0	15709	3808.537279276791	6
0	15713	3808.669031449236	7
0	15714	3809.333849448401	6
0	15721	3809.481102432489	7
0	15723	3809.504956738123	8
0	15727	3815.145889892689	7
0	15732	3816.149079929641	6
0	15737	3816.195902170001	5
0	15744	3816.899411822206	6
0	15745	3817.761038059857	5
0	15752	3819.647416026512	4
0	15757	3819.966875773924	3
0	15763	3822.023940231507	2
0	15768	3822.205905774001	1
0	15773	3822.460416794	0
0	15795	3825.182178936281	1
0	15797	3826.826883469751	0
0	15834	3831.420790316018	1
0	15838	3831.816992372276	2
0	15840	3833.762352487575	3
0	15843	3836.056221401567	2
0	15848	3836.335418990348	1
0	15854	3837.044117878366	0
0	15860	3837.45174629119	1
0	15862	3838.351855392242	2
0	15864	3838.62603519428	3
0	15865	3838.724232057353	2
0	15870	3838.91192873714	1
0	15875	3840.519002568245	0
0	15888	3841.402806329952	1
0	15891	3841.57507026439	2
0	15893	3841.8707975426	3
0	15894	3841.907791179717	2
0	15905	3845.025992377677	1
0	15914	3847.323241478461	0
0	15926	3849.252499648182	1
0	15928	3849.666543870336	2
0	15929	3851.095876003941	1
0	15936	3852.410727181974	2
0	15939	3853.391055233912	1
0	15944	3853.447820329735	0
0	15950	3854.090808219331	1
0	15952	3854.766889048647	2
0	15953	3855.157347043704	1
0	15960	3857.313628003865	0
0	15979	3860.130926519546	1
0	15983	3860.968512144642	0
0	16013	3865.926258379727	1
0	16016	3870.014349793776	2
0	16018	3870.858005695584	3
0	16019	3872.69786764537	2
0	16028	3874.201190250106	1
0	16033	3874.362867953728	0
0	16068	3878.813383781758	1
0	16069	3879.200005511005	0
0	16129	3903.00003289998	1
0	16133	3904.641820526964	2
0	16134	3905.480837300814	1
0	16140	3906.213769387915	2
0	16142	3906.94456988672	3
0	16143	3907.300776145344	2
0	16151	3907.711076885207	3
0	16155	3909.266947947627	4
0	16157	3909.594773664794	5
0	16158	3910.903176286905	4
0	16163	3911.333803285926	3
0	16168	3911.54290170709	2
0	16173	3912.757072105306	1
0	16178	3913.499469875652	0
0	16192	3915.979253015885	1
0	16194	3916.518375293801	2
0	16197	3917.181062655424	3
0	16198	3917.925228168271	2
0	16205	3918.998345740826	1
0	16211	3919.051264386974	2
0	16212	3919.628049453169	1
0	16218	3919.97179000968	0
0	16254	3935.827628901686	1
0	16255	3937.646813488993	0
0	16277	3946.164045930244	1
0	16281	3947.183688150959	0
0	16293	3948.371506095474	1
0	16295	3948.406869481417	2
0	16297	3948.917219034754	3
0	16298	3949.152959782915	2
0	16307	3952.471709111669	3
0	16311	3954.8696928122	4
0	16312	3955.759520681894	3
0	16321	3956.619821029369	2
0	16328	3957.024104098264	3
0	16330	3957.719925322557	2
0	16337	3958.567083802494	1
0	16343	3958.706358755989	0
0	16361	3962.774790086642	1
0	16362	3963.981338728711	0
0	16376	3966.76460186598	1
0	16377	3967.092808219708	0
0	16384	3967.467757442826	1
0	16385	3968.44597176677	0
0	16391	3968.704641191409	1
0	16396	3970.75028632374	0
0	16412	3974.620429437895	1
0	16418	3975.490780854959	2
0	16419	3976.033633425176	1
0	16427	3977.846172194604	0
0	16447	3980.051585480605	1
0	16449	3980.511815586964	2
0	16451	3981.066888646918	3
0	16452	3982.078674619433	2
0	16463	3986.188800773497	1
0	16470	3987.377332237155	2
0	16473	3988.591271173039	1
0	16482	3989.500380704388	2
0	16484	3992.150358169113	1
0	16490	3992.822264170209	0
0	16504	3997.714524285784	1
0	16505	3998.075887974299	0
0	16517	4000.555811109457	1
0	16518	4000.689722747219	0
0	16535	4001.293605271438	1
0	16539	4003.30048547886	2
0	16540	4004.334796249145	1
0	16545	4004.49261949096	0
0	16561	4007.463127626659	1
0	16563	4007.620861512848	0
0	16575	4009.607265362761	1
0	16576	4011.067389146279	0
0	16595	4016.26244374324	1
0	16596	4016.401965252455	0
0	16613	4023.05066881579	1
0	16614	4024.980406618257	0
0	16621	4025.589690682218	1
0	16622	4027.26298395068	0
0	16639	4032.111324892311	1
0	16643	4033.321847874949	2
0	16646	4035.955644495901	1
0	16652	4036.581162047375	0
0	16667	4039.855466032109	1
0	16668	4039.877217060942	0
0	16688	4042.84681642505	1
0	16691	4044.790585028849	0
0	16697	4045.01149662838	1
0	16698	4045.539972572183	0
0	16708	4050.099946955514	1
0	16713	4052.571387250981	0
0	16719	4053.506135221959	1
0	16720	4054.152017018793	0
0	16729	4056.43484902009	1
0	16733	4057.8279508038	0
0	16749	4060.661222255916	1
0	16751	4061.286477293975	0
0	16762	4062.047354121432	1
0	16764	4062.617500827749	2
0	16765	4062.654365118276	1
0	16771	4064.45640324069	0
0	16788	4067.889121328424	1
0	16791	4070.079949836712	0
0	16798	4070.931856980023	1
0	16801	4071.353382148631	2
0	16805	4072.991130049463	1
0	16811	4073.749993419929	2
0	16814	4077.067869150757	1
0	16820	4077.270917577726	0
0	16842	4083.341385578191	1
0	16844	4083.438866898841	0
0	16851	4083.966949766321	1
0	16852	4084.315292969242	0
0	16867	4086.106861669182	1
0	16870	4089.627538332107	0
0	16876	4089.685513301676	1
0	16879	4090.292775046648	2
0	16880	4090.540077651165	1
0	16887	4090.957709157269	2
0	16889	4092.345542372234	1
0	16894	4092.392674006544	0
0	16904	4093.075737883973	1
0	16908	4094.271224939241	0
0	16930	4098.094356636585	1
0	16932	4098.542568406705	2
0	16933	4099.574378122865	1
0	16939	4100.676513871988	0
0	16969	4107.718664036337	1
0	16972	4111.213087919109	0
0	16999	4118.126729169134	1
0	17001	4118.492514757431	2
0	17005	4123.855661176903	3
0	17006	4129.144938393171	2
0	17014	4129.416385379393	3
0	17015	4129.983616283328	2
0	17020	4130.729470229365	1
0	17026	4130.736558293634	2
0	17027	4131.164144425233	1
0	17032	4133.13393438907	0
0	17049	4138.587009091216	1
0	17051	4139.285591538082	2
0	17053	4139.98341196607	3
0	17061	4141.546990602215	2
0	17068	4142.206839833192	3
0	17069	4142.273632732499	2
0	17078	4144.31362682184	3
0	17079	4145.045272870076	2
0	17087	4146.318913965468	3
0	17092	4149.432525867002	4
0	17094	4151.932300147941	5
0	17095	4152.252797784683	4
0	17102	4154.70634496166	5
0	17103	4154.832292813414	4
0	17108	4154.966940896824	3
0	17114	4156.764509163868	4
0	17116	4157.11353040673	5
0	17119	4157.495522332068	6
0	17122	4159.048850034906	7
0	17124	4160.181357313349	8
0	17125	4160.412549935594	7
0	17131	4160.798824472668	6
0	17136	4161.011857719297	5
0	17143	4161.743260401333	6
0	17145	4162.542536355461	5
0	17152	4164.170856482307	6
0	17156	4165.174358257152	5
0	17161	4165.185373473103	4
0	17167	4165.443097366327	5
0	17168	4166.267698197572	4
0	17173	4166.619666950181	3
0	17179	4168.503310960538	2
0	17185	4169.495860460831	1
0	17192	4170.885931963414	2
0	17194	4171.251336340341	1
0	17200	4171.59734406702	0
0	17218	4173.688823590906	1
0	17220	4173.926092906632	2
0	17222	4174.326607383244	3
0	17227	4175.425256963969	2
0	17235	4176.118607674289	1
0	17240	4176.19632390283	0
0	17246	4176.545528656975	1
0	17247	4177.117339524564	0
0	17251	4177.670271197928	1
0	17256	4180.996011412639	0
0	17262	4181.326402989634	1
0	17267	4183.507348035245	0
0	17285	4185.528561453972	1
0	17288	4185.991069018837	2
0	17292	4188.152278308224	3
0	17293	4188.717068933897	2
0	17298	4188.986288832848	1
0	17304	4189.093983972206	2
0	17305	4189.126840858832	1
0	17312	4189.595859277927	0
0	17326	4191.24813641513	1
0	17327	4192.945894261778	0
0	17365	4197.025960709373	1
0	17370	4198.741690469355	0
0	17376	4198.879883309209	1
0	17379	4200.160273116031	0
0	17385	4200.36900075948	1
0	17386	4200.580619597693	0
0	17411	4204.434649365622	1
0	17412	4204.964167573222	0
0	17428	4207.085351134113	1
0	17436	4209.847313575544	2
0	17441	4212.516056461887	1
0	17446	4212.936765404191	0
0	17461	4215.276064407184	1
0	17464	4216.377785508244	0
0	17471	4216.575746508738	1
0	17474	4216.743157685549	2
0	17476	4217.286278340332	3
0	17477	4217.331697396643	2
0	17482	4217.526855614297	1
0	17488	4218.376651682394	2
0	17489	4218.460286182794	1
0	17495	4219.292199442371	2
0	17496	4219.328341616623	1
0	17502	4222.696886124347	0
0	17579	4240.601244732385	1
0	17581	4241.284612765531	2
0	17582	4241.322564473826	1
0	17587	4241.84146039604	0
0	17600	4242.578795468787	1
0	17601	4242.672113941949	0
0	17626	4250.253814905627	1
0	17627	4250.760224366367	0
0	17633	4250.859379639426	1
0	17634	4250.910445132412	0
0	17642	4251.698926981737	1
0	17643	4251.832286581189	0
0	17649	4251.864127807937	1
0	17651	4252.915014601418	0
0	17657	4253.326683765271	1
0	17658	4253.507917695562	0
0	17675	4256.704054758335	1
0	17677	4257.716813615545	0
0	17684	4258.551762478233	1
0	17686	4258.92425229253	2
0	17688	4259.750183821886	1
0	17694	4260.068434460434	0
0	17744	4272.706569034671	1
0	17748	4273.409256414952	2
0	17749	4273.554386457385	1
0	17755	4275.11217673122	0
0	17819	4303.736221843266	1
0	17821	4304.498335364442	2
0	17823	4305.552288177254	3
0	17825	4305.958875284577	4
0	17826	4306.506654253868	3
0	17832	4306.983269358099	2
0	17837	4307.279803348427	1
0	17846	4309.189194836665	2
0	17849	4309.675268367765	1
0	17854	4310.834719080178	0
0	17873	4311.763223906664	1
0	17876	4312.173217678665	2
0	17880	4314.321494348823	1
0	17886	4316.015521241681	0
0	17962	4339.114522701528	1
0	17963	4339.349389384353	0
0	17969	4340.571433894926	1
0	17972	4341.406647459898	0
0	17996	4346.314533575251	1
0	17998	4347.164508993658	2
0	17999	4347.841591031398	1
0	18004	4347.915649042469	0
0	18027	4352.39804206964	1
0	18029	4353.788519483292	0
0	18046	4362.539625332943	1
0	18049	4365.318998459515	0
0	18070	4370.007700913459	1
0	18072	4370.391584562261	2
0	18073	4372.351622315105	1
0	18078	4373.005738203233	0
0	18091	4373.931479226257	1
0	18092	4375.170746285203	0
0	18098	4375.23837617468	1
0	18099	4375.977077860937	0
0	18106	4376.903201698453	1
0	18108	4377.997976475356	0
0	18134	4383.479322773902	1
0	18136	4384.30507560123	0
0	18144	4385.275299797685	1
0	18147	4386.209267039336	2
0	18150	4386.674025534268	1
0	18158	4388.293731018467	2
0	18160	4389.019436617918	1
0	18169	4390.675265890896	0
0	18218	4402.243974738601	1
0	18222	4405.560362799648	0
0	18249	4408.146524381808	1
0	18252	4408.855680271169	0
0	18274	4412.76935474587	1
0	18276	4413.055614121524	2
0	18278	4417.779057180919	3
0	18281	4417.961553723104	2
0	18288	4419.091927192379	1
0	18293	4419.161045258718	0
0	18299	4420.02550288904	1
0	18300	4421.595785564609	0
0	18337	4428.372160705983	1
0	18346	4431.639667735451	0
0	18363	4432.975110249487	1
0	18364	4433.398587290467	0
0	18386	4438.034195942905	1
0	18387	4439.223458840609	0
0	18421	4447.365097559419	1
0	18422	4447.507756356998	0
0	18434	4448.49353206825	1
0	18436	4450.453447162269	2
0	18438	4451.125159159858	3
0	18440	4451.957680329197	4
0	18441	4452.146989194977	3
0	18447	4452.222226012563	4
0	18449	4453.545906605411	3
0	18456	4454.150888734641	2
0	18462	4454.196668807665	3
0	18463	4454.752253712586	2
0	18468	4454.78034469167	1
0	18473	4455.232566371768	0
0	18500	4461.768004359499	1
0	18501	4463.085374052778	0
0	18513	4463.94768463014	1
0	18514	4465.997066250437	0
0	18545	4472.834974341428	1
0	18548	4473.28068706828	0
0	18555	4474.895693486902	1
0	18556	4475.13391212739	0
0	18641	4502.772218638734	1
0	18643	4503.777323528272	0
0	18650	4503.888040046635	1
0	18653	4504.812443974311	2
0	18657	4506.322041352669	1
0	18668	4508.302726152535	2
0	18669	4509.582270819439	1
0	18677	4514.83870797641	0
0	18688	4515.027338329295	1
0	18689	4515.045540676772	0
0	18705	4515.489178097261	1
0	18709	4516.569817798608	0
0	18715	4516.717423888778	1
0	18717	4517.757137908943	0
0	18783	4536.823678594953	1
0	18788	4542.54047801096	0
0	18809	4548.770642450669	1
0	18811	4549.345438596576	2
0	18812	4550.022859696296	1
0	18818	4550.060029870027	2
0	18819	4550.098787758708	1
0	18824	4550.949396722854	0
0	18830	4550.995261125183	1
0	18831	4551.12972156495	0
0	18857	4559.754467766269	1
0	18860	4560.464506256919	0
0	18869	4563.389631723489	1
0	18870	4563.444909133578	0
0	18882	4564.576044209127	1
0	18883	4565.350524363198	0
0	18893	4567.124249587295	1
0	18897	4568.536484543179	2
0	18900	4570.466570020608	1
0	18906	4571.312552096227	0
0	18928	4576.8597810766	1
0	18930	4579.544284512264	2
0	18932	4579.651210753093	3
0	18936	4581.760768148668	4
0	18939	4582.912932831257	3
0	18945	4585.386715276017	2
0	18950	4586.286088368319	1
0	18960	4587.679708444375	2
0	18961	4587.835210765696	1
0	18966	4588.090305398176	0
0	18978	4588.702441156702	1
0	18979	4588.804909137198	0
0	19018	4603.006471606544	1
0	19021	4603.262584146774	0
0	19027	4603.331308443277	1
0	19030	4604.672946166263	2
0	19032	4604.767950251356	3
0	19034	4605.666758514821	4
0	19036	4606.106329587778	3
0	19041	4606.923549124054	2
0	19048	4607.477441893016	3
0	19049	4607.638343731656	2
0	19056	4608.08849407618	1
0	19062	4608.686459416312	2
0	19065	4609.060612927064	1
0	19071	4609.142785263929	0
0	19187	4640.946590102194	1
0	19188	4642.784083823583	0
0	19248	4667.865725380376	1
0	19250	4667.970208987602	2
0	19251	4668.079176319809	1
0	19258	4668.268216416469	2
0	19259	4668.891274269529	1
0	19264	4668.929039824431	0
0	19274	4669.844354655253	1
0	19278	4670.214431207422	2
0	19281	4672.764814321637	1
0	19287	4673.248109266271	2
0	19291	4674.670913235481	3
0	19293	4675.78084997554	2
0	19299	4677.145687834732	1
0	19304	4677.363451355229	0
0	19320	4680.269859058032	1
0	19321	4680.762012573261	0
0	19337	4682.867360728301	1
0	19338	4683.024124991545	0
0	19352	4683.386508543193	1
0	19355	4684.205440599434	2
0	19357	4685.368404003843	3
0	19358	4686.205982591379	2
0	19364	4689.064902607687	1
0	19370	4690.500756733551	2
0	19371	4690.604115267265	1
0	19376	4691.27172187974	0
0	19408	4701.138617297508	1
0	19412	4703.146174541308	0
0	19432	4705.977780061648	1
0	19435	4706.569065265411	0
0	19480	4719.283368775094	1
0	19483	4719.838192427478	0
0	19490	4720.119836488219	1
0	19491	4720.404773300246	0
0	19517	4725.47555243612	1
0	19521	4725.907070440766	2
0	19522	4726.983431038612	1
0	19528	4727.123987457843	2
0	19532	4727.427816782375	1
0	19538	4728.389423491378	0
0	19577	4735.762293399388	1
0	19579	4737.183755631116	2
0	19580	4737.203048443291	1
0	19585	4737.829406915882	0
0	19627	4747.163823967542	1
0	19629	4747.200955181842	2
0	19631	4747.39020723769	3
0	19632	4747.440374705252	2
0	19637	4747.500535709471	1
0	19643	4747.518676514232	2
0	19646	4747.868474924708	1
0	19651	4747.896443406743	0
0	19658	4748.146680279256	1
0	19659	4748.304988584368	0
0	19701	4756.645237221414	1
0	19705	4759.185449645308	2
0	19709	4761.009249506451	3
0	19710	4764.834758236841	2
0	19716	4765.799654844493	1
0	19723	4766.16489325756	2
0	19724	4766.2215538438	1
0	19730	4766.379612903854	0
0	19743	4771.515323902805	1
0	19744	4772.356778856427	0
0	19763	4776.92714732558	1
0	19764	4777.061609709276	0
0	19787	4786.625798195511	1
0	19788	4786.694894530221	0
0	19809	4788.141178599036	1
0	19810	4788.229924441151	0
0	19857	4797.0897924831	1
0	19859	4797.220277997943	2
0	19860	4797.33031736313	1
0	19865	4798.06993488995	0
0	19881	4800.186762999818	1
0	19885	4804.696432282049	0
0	19892	4804.874226346813	1
0	19893	4805.863570605672	0
0	19904	4807.129984253321	1
0	19907	4807.886459558069	2
0	19909	4807.926329468374	3
0	19910	4808.24043613865	2
0	19918	4809.613006312805	1
0	19925	4810.779075619309	0
0	19980	4823.073009611209	1
0	19981	4823.178729906653	0
0	19988	4824.312797418966	1
0	19989	4825.055151265241	0
0	20019	4835.358089981204	1
0	20020	4835.766391251446	0
0	20026	4835.803602466529	1
0	20027	4835.830158555768	0
0	20099	4863.659220831595	1
0	20100	4864.562540759231	0
0	20122	4872.415807767845	1
0	20128	4875.827224678405	0
0	20160	4886.209241979557	1
0	20162	4886.32440399614	2
0	20165	4887.515559879203	1
0	20170	4887.861398704914	0
0	20179	4889.401734193584	1
0	20183	4890.364563935883	2
0	20185	4890.949150852243	3
0	20186	4891.419560499884	2
0	20192	4892.228291465855	1
0	20198	4892.322210479875	2
0	20200	4893.04393985241	1
0	20205	4893.449745688479	0
0	20221	4896.013649221836	1
0	20224	4896.601858207398	0
0	20236	4898.334240785339	1
0	20239	4899.600599501181	2
0	20243	4900.55267541441	3
0	20245	4902.226748212742	2
0	20251	4903.398972305711	3
0	20252	4903.425593375265	2
0	20257	4903.989447666271	1
0	20263	4904.381859445235	2
0	20265	4905.979979283164	3
0	20268	4906.481405812738	4
0	20271	4907.867321356829	5
0	20273	4907.940882162763	6
0	20274	4908.558636935732	5
0	20281	4909.297134710876	4
0	20286	4909.832252216643	3
0	20292	4910.659269920553	4
0	20295	4911.956380403042	3
0	20299	4913.568311127525	4
0	20302	4913.928329790308	3
0	20312	4916.705356829183	2
0	20320	4917.978796141004	1
0	20330	4920.337781884554	0
0	20357	4923.34786082595	1
0	20360	4924.309080669654	0
0	20394	4935.073339857303	1
0	20395	4937.586908035958	0
0	20406	4941.138381419828	1
0	20409	4941.209275929585	2
0	20411	4941.392351756885	3
0	20414	4941.488341288191	2
0	20420	4941.916687942733	1
0	20426	4942.901870218947	0
0	20432	4943.444867996257	1
0	20436	4943.608728106763	2
0	20438	4943.947928981452	1
0	20443	4944.210015863239	0
0	20459	4946.984194910007	1
0	20464	4947.751821084683	0
0	20473	4950.580030211002	1
0	20475	4950.935372384105	2
0	20477	4950.960068948021	3
0	20478	4951.602988107604	2
0	20483	4952.109565720316	1
0	20489	4952.829405310976	2
0	20492	4954.378812471532	3
0	20496	4955.094741522399	2
0	20507	4958.171817066038	1
0	20512	4958.810948449245	0
0	20540	4967.518659600593	1
0	20541	4970.886920543281	0
0	20567	4975.096336043124	1
0	20570	4976.929275527898	0
0	20583	4981.935817551667	1
0	20584	4984.179259849662	0
0	20592	4984.697386237437	1
0	20594	4985.495610233901	2
0	20595	4985.846800489748	1
0	20601	4987.115515380597	0
0	20617	4989.023185979195	1
0	20619	4989.953098831061	2
0	20620	4990.237708375368	1
0	20628	4992.497466668794	2
0	20629	4992.90106287114	1
0	20634	4993.053954576819	0
0	20641	4993.739182686299	1
0	20644	4999.476479108687	0
0	20663	5002.096572606178	1
0	20665	5002.491342520253	0
0	20673	5003.473684827088	1
0	20674	5003.508500644281	0
0	20683	5004.095204369722	1
0	20686	5007.729952611254	0
0	20766	5030.341598851932	1
0	20767	5030.523574467116	0
0	20773	5030.665168791681	1
0	20776	5031.199010610015	0
0	20801	5041.68885300629	1
0	20805	5043.057677765412	0
0	20818	5044.503192411968	1
0	20823	5046.124005705601	0
0	20841	5047.278767222677	1
0	20842	5047.324432765232	0
0	20933	5070.780729153556	1
0	20934	5071.168421504128	0
0	20979	5078.028385281213	1
0	20983	5078.802806465778	0
0	21043	5093.336719270666	1
0	21044	5093.42554746258	0
0	21050	5093.52962262077	1
0	21051	5093.544502245066	0
0	21084	5100.658122526876	1
0	21086	5104.605867304904	0
0	21092	5104.633693544625	1
0	21093	5104.790930389417	0
0	21100	5105.367426133342	1
0	21101	5105.585369091802	0
0	21110	5106.55378021747	1
0	21112	5108.355550745755	0
0	21131	5110.531519881924	1
0	21133	5110.881479456482	0
0	21164	5119.594396557188	1
0	21166	5119.604224396823	2
0	21167	5120.144235896912	1
0	21175	5122.716683669723	2
0	21176	5124.534461793095	1
0	21184	5125.287316923457	0
0	21209	5134.302356135005	1
0	21210	5135.169361287501	0
0	21222	5135.710187569829	1
0	21224	5135.75898339518	2
0	21226	5135.892017421175	3
0	21228	5138.215474088101	2
0	21234	5138.747029181133	3
0	21236	5139.996149307814	2
0	21242	5140.230612726696	3
0	21245	5140.962882989171	2
0	21255	5144.481904018891	1
0	21260	5144.594417483076	0
0	21271	5145.363177855337	1
0	21272	5146.497023971326	0
0	21313	5153.339879495209	1
0	21314	5153.476256898401	0
0	21350	5159.54440617884	1
0	21352	5160.204643269512	0
0	21389	5174.40008144721	1
0	21390	5175.114290753989	0
0	21436	5183.613115883565	1
0	21437	5184.565807977449	0
0	21444	5185.768342565075	1
0	21447	5186.945212384123	0
0	21508	5201.68664518329	1
0	21509	5201.987503399128	0
0	21515	5202.340838181064	1
0	21517	5203.867717545325	2
0	21518	5204.468195377602	1
0	21523	5205.3851231959	0
0	21558	5214.720177877752	1
0	21565	5217.756053770912	2
0	21569	5218.134545425722	3
0	21570	5218.72106671441	2
0	21575	5218.919068298532	1
0	21580	5218.951598409852	0
0	21594	5221.503189744498	1
0	21595	5227.487279597735	0
0	21618	5231.823672487924	1
0	21619	5232.280342316979	0
0	21636	5235.636773994012	1
0	21638	5235.662969437343	2
0	21640	5235.807424828537	3
0	21641	5236.313159195324	2
0	21648	5236.550314009382	3
0	21649	5239.936252943998	2
0	21654	5240.243966671753	1
0	21664	5243.22300789013	2
0	21666	5243.251885523001	3
0	21668	5243.27525445309	4
0	21669	5243.352169350431	3
0	21675	5243.687682499359	4
0	21676	5243.836249882661	3
0	21682	5243.970876291281	4
0	21685	5247.792390473785	3
0	21693	5249.055880386634	2
0	21698	5249.922080035433	1
0	21705	5250.678291805509	2
0	21711	5253.410506823848	3
0	21712	5254.850381441748	2
0	21717	5255.005268477727	1
0	21723	5255.710895065685	2
0	21724	5256.166896165009	1
0	21730	5257.549613546421	2
0	21738	5259.547434289424	3
0	21739	5259.761870912078	2
0	21744	5260.329734443379	1
0	21750	5260.497568648832	2
0	21752	5261.410184308674	3
0	21753	5262.893536384965	2
0	21761	5263.787233685346	1
0	21766	5264.796800058975	0
0	21810	5270.618167429881	1
0	21812	5271.065437033172	2
0	21816	5273.041725395968	3
0	21817	5273.884802575407	2
0	21822	5274.317558523671	1
0	21827	5274.914669195391	0
0	21846	5281.038452782476	1
0	21847	5281.62750506405	0
0	21865	5284.729518298097	1
0	21868	5285.553074924034	0
0	21886	5288.925249095598	1
0	21888	5290.815905594511	0
0	21903	5292.921408812332	1
0	21909	5297.513753221389	2
0	21913	5297.858357821147	3
0	21915	5301.165852583557	4
0	21916	5301.502585234129	3
0	21922	5302.289799151103	2
0	21927	5303.36999972571	1
0	21932	5303.773091765176	0
0	21946	5306.768821108177	1
0	21952	5309.828118205662	0
0	21958	5311.079201642368	1
0	21961	5312.994651632731	0
0	21972	5316.415271137746	1
0	21975	5317.074556263589	0
0	21989	5320.274025944708	1
0	21990	5321.120788914721	0
0	22003	5324.294980585927	1
0	22005	5324.40524273089	2
0	22011	5328.272407805478	1
0	22016	5328.676046985739	0
0	22043	5333.00135789745	1
0	22047	5334.534549606451	0
0	22056	5335.574170442779	1
0	22061	5336.503925586106	2
0	22063	5336.894560166215	3
0	22066	5337.073511409875	2
0	22072	5337.607273906906	3
0	22073	5337.810297789559	2
0	22078	5338.624926304149	1
0	22083	5339.143946176304	0
0	22094	5339.841350773971	1
0	22096	5339.963678704349	0
0	22112	5343.758638501142	1
0	22115	5345.039696095669	0
0	22121	5345.042780676657	1
0	22127	5346.930129205472	0
0	22133	5347.108040118962	1
0	22134	5347.16652854952	0
0	22174	5360.976307310337	1
0	22177	5362.309422026508	0
0	22183	5363.057321858849	1
0	22185	5363.375188500186	2
0	22191	5365.461522103488	1
0	22199	5366.647426002577	0
0	22233	5373.389374268105	1
0	22234	5375.081511045732	0
0	22245	5377.813124385498	1
0	22247	5378.147700221417	0
0	22311	5395.556885527591	1
0	22312	5395.601692435526	0
0	22352	5407.256855184458	1
0	22355	5408.52422837226	0
0	22362	5409.442941327395	1
0	22365	5410.805336362974	2
0	22366	5411.683600306147	1
0	22372	5412.719760366691	0
0	22460	5438.211812837186	1
0	22461	5438.215406450754	0
0	22499	5443.446336473614	1
0	22501	5444.426777725297	2
0	22504	5446.282598666547	1
0	22509	5447.120059116737	0
0	22540	5459.114845496672	1
0	22542	5460.162615731436	0
0	22590	5473.890318319041	1
0	22591	5474.077855333229	0
0	22597	5476.579783806803	1
0	22598	5476.635475362437	0
0	22604	5476.755965625623	1
0	22605	5476.875773147974	0
0	22625	5479.036680415812	1
0	22626	5479.430514144643	0
0	22648	5483.821128034619	1
0	22652	5485.82870202523	2
0	22654	5487.22829611959	1
0	22661	5488.536569444867	0
0	22667	5489.363244183138	1
0	22670	5491.102769013433	2
0	22674	5492.974746696999	1
0	22683	5494.567088145409	0
0	22690	5495.914468385194	1
0	22691	5497.30238390221	0
0	22697	5499.147998091189	1
0	22699	5499.964153564798	2
0	22701	5500.481877894433	3
0	22702	5500.564651576143	2
0	22707	5500.84398633742	1
0	22712	5500.896855404058	0
0	22778	5512.222172180313	1
0	22781	5512.974814480272	2
0	22782	5513.042779822593	1
0	22787	5513.077187833003	0
0	22809	5518.136611004801	1
0	22812	5519.662395564803	0
0	22847	5526.588649905177	1
0	22848	5526.900734762723	0
0	22855	5527.629669044944	1
0	22859	5529.208687725399	0
0	22906	5545.105560478961	1
0	22908	5545.372505088792	2
0	22911	5547.366777042564	3
0	22912	5550.007904368595	2
0	22917	5550.06288741174	1
0	22923	5550.378553161594	2
0	22929	5552.130436899146	1
0	22936	5553.370053950934	2
0	22938	5553.877565141457	3
0	22939	5554.947520090838	2
0	22944	5556.328149253198	1
0	22949	5557.604320272729	0
0	23036	5585.341319216715	1
0	23037	5586.171811667562	0
0	23098	5599.731150455491	1
0	23102	5600.13998767663	2
0	23104	5600.87293562515	1
0	23109	5601.458776371638	0
0	23115	5601.521229790018	1
0	23116	5601.578480583532	0
0	23134	5606.140986591531	1
0	23135	5607.172425972844	0
0	23163	5613.094866619825	1
0	23164	5613.101425331862	0
0	23198	5621.246585020339	1
0	23199	5622.067457568168	0
0	23215	5624.385506750668	1
0	23218	5625.025276337127	2
0	23223	5626.022880019374	3
0	23225	5626.164270738511	4
0	23226	5626.224842401772	3
0	23231	5626.814876244632	2
0	23237	5627.425984446239	1
0	23247	5628.462753565771	2
0	23249	5628.830055381241	3
0	23252	5629.798999842568	4
0	23253	5631.427888438772	3
0	23258	5631.50304301361	2
0	23264	5632.340537310778	1
0	23270	5632.595359398987	2
0	23271	5632.890541343997	1
0	23276	5632.907446326386	0
0	23283	5633.228158299858	1
0	23284	5634.132780005537	0
0	23295	5634.830026591913	1
0	23297	5636.000875396189	0
0	23322	5639.106182808336	1
0	23323	5639.242998320437	0
0	23335	5640.718413928698	1
0	23337	5640.792101795151	2
0	23339	5641.801354426483	3
0	23340	5642.33830050041	2
0	23349	5643.327385530532	3
0	23350	5645.661421629581	2
0	23357	5646.079025026227	1
0	23364	5646.271597860689	2
0	23365	5646.934172806773	1
0	23371	5647.162579829422	2
0	23373	5647.301630184105	1
0	23378	5647.37838251853	0
0	23453	5667.166500559291	1
0	23454	5668.211292258291	0
0	23460	5669.174693066182	1
0	23461	5669.511015023259	0
0	23518	5676.668795268495	1
0	23521	5677.609751968198	0
0	23533	5680.520038617119	1
0	23541	5682.938599913222	0
0	23563	5686.56746674655	1
0	23564	5687.341845944111	0
0	23617	5702.250292709887	1
0	23620	5704.552954305736	0
0	23635	5706.603177974316	1
0	23644	5710.781473137445	0
0	23650	5711.563853511361	1
0	23653	5715.29202100689	0
0	23675	5722.249021194591	1
0	23676	5722.363432392848	0
0	23682	5722.438561594101	1
0	23686	5724.370497905205	0
0	23716	5727.115105391984	1
0	23719	5727.346844217698	2
0	23720	5727.959279731248	1
0	23727	5728.944542433098	0
0	23733	5729.142664240375	1
0	23735	5729.806018166215	0
0	23747	5732.901620629501	1
0	23749	5733.751817764743	0
0	23772	5734.773155375116	1
0	23773	5736.217968681634	0
0	23789	5737.907903347784	1
0	23792	5738.583841034769	0
0	23823	5745.054784998601	1
0	23826	5746.146864231528	0
0	23835	5747.397008004194	1
0	23839	5749.891477625766	0
0	23850	5750.718373180243	1
0	23851	5751.165897430126	0
0	23859	5751.888667808199	1
0	23860	5752.524048362633	0
0	23882	5758.019097631651	1
0	23884	5759.254490412323	2
0	23885	5759.327435593163	1
0	23893	5761.352985396017	2
0	23894	5761.393687915862	1
0	23902	5762.670985680766	2
0	23903	5763.663777787664	1
0	23908	5763.754926196333	0
0	23915	5764.997256860668	1
0	23918	5766.275081104887	2
0	23919	5766.775207186065	1
0	23929	5767.665383265553	0
0	23956	5771.992293291699	1
0	23959	5773.431139047141	0
0	23968	5776.237304773278	1
0	23969	5778.384606915927	0
0	23986	5780.580257112963	1
0	23988	5781.656492152331	0
0	24021	5789.743599098587	1
0	24025	5792.603093908965	0
0	24048	5796.130547452458	1
0	24050	5796.504525451401	2
0	24053	5798.31475463835	1
0	24064	5801.019522151615	2
0	24065	5801.0643125448	1
0	24072	5802.137155943906	2
0	24074	5802.321572378591	3
0	24076	5803.253036720256	4
0	24077	5803.427454735876	3
0	24085	5804.006725245075	4
0	24086	5804.160314212833	3
0	24091	5804.163654394763	2
0	24097	5806.626633247334	1
0	24105	5808.635231740871	0
0	24121	5809.555849448225	1
0	24123	5809.594630254119	2
0	24127	5810.238989278555	1
0	24132	5810.392907342655	0
0	24145	5812.763881307275	1
0	24149	5813.177827295198	0
0	24166	5818.782153656598	1
0	24173	5820.143639353741	2
0	24175	5822.184536888327	1
0	24181	5824.494457207392	0
0	24187	5824.58986146404	1
0	24188	5825.387878906805	0
0	24194	5825.741563839204	1
0	24195	5825.95785324773	0
0	24213	5830.571963695414	1
0	24215	5831.089056003996	2
0	24217	5832.014903552833	1
0	24225	5832.781820328799	0
0	24255	5837.463164312462	1
0	24261	5837.823453965807	2
0	24266	5839.70049319027	1
0	24272	5841.37035294538	0
0	24279	5841.719680267451	1
0	24280	5842.577449582055	0
0	24298	5846.938266445962	1
0	24300	5847.925236534588	2
0	24302	5849.196664369156	3
0	24304	5849.551417299382	4
0	24306	5851.192798713174	5
0	24308	5851.382187955226	6
0	24309	5851.595324143139	5
0	24317	5852.754626018632	4
0	24325	5853.561211256625	5
0	24328	5854.163898081456	4
0	24334	5854.226049760286	5
0	24336	5854.491631268392	4
0	24342	5855.552256166623	5
0	24344	5856.05748935212	4
0	24350	5856.800064952484	3
0	24356	5857.164880491989	4
0	24357	5857.250157073593	3
0	24364	5859.062455440808	2
0	24369	5859.18082987178	1
0	24373	5859.724821557879	2
0	24378	5861.042924458557	1
0	24384	5861.493179446683	2
0	24386	5862.998535420084	3
0	24387	5863.188297809571	2
0	24392	5863.477301775516	1
0	24398	5866.31449180542	0
0	24405	5867.063770275483	1
0	24407	5868.087553244835	0
0	24427	5871.125485671827	1
0	24429	5871.645228352767	0
0	24472	5883.52240990222	1
0	24474	5884.634904810133	2
0	24478	5885.814078707156	3
0	24480	5885.830011943148	4
0	24482	5885.852407105755	5
0	24483	5886.360463611339	4
0	24490	5887.737569247059	3
0	24495	5887.786119210139	2
0	24501	5889.152637387129	1
0	24506	5889.17843168253	0
0	24515	5889.567877337819	1
0	24518	5890.439082246818	0
0	24526	5890.861134046351	1
0	24530	5892.947770792738	0
0	24545	5894.388108529464	1
0	24546	5894.581729835246	0
0	24553	5895.776308145538	1
0	24559	5897.912030334673	2
0	24560	5898.438821541078	1
0	24568	5900.423338359045	0
0	24574	5902.13781490743	1
0	24577	5902.687992229589	2
0	24578	5902.712338885062	1
0	24583	5903.729826400668	0
0	24589	5903.835599573879	1
0	24593	5905.057584153433	2
0	24594	5906.755807859963	1
0	24599	5907.710071092208	0
0	24622	5910.344442827168	1
0	24627	5913.539632943174	0
0	24634	5914.277058991095	1
0	24638	5915.112870628457	0
0	24650	5915.426393674524	1
0	24653	5918.025384229653	0
0	24690	5920.982665189926	1
0	24691	5922.081318554241	0
0	24717	5926.996455877608	1
0	24718	5928.542442949605	0
0	24729	5931.445120194578	1
0	24734	5933.582414599231	0
0	24743	5935.113662458182	1
0	24747	5935.719308011491	2
0	24751	5936.117281410473	3
0	24752	5936.662266320786	2
0	24759	5939.724138325952	1
0	24764	5940.706657111583	0
0	24781	5948.584694579642	1
0	24783	5949.39823521557	2
0	24784	5949.974068358125	1
0	24789	5949.975342150037	0
0	24795	5950.212229850273	1
0	24798	5950.523638093122	0
0	24812	5951.961061425611	1
0	24813	5952.912916925553	0
0	24829	5954.959913682368	1
0	24830	5957.748297227122	0
0	24844	5960.211355823195	1
0	24848	5960.79704875151	2
0	24850	5962.02533338728	3
0	24852	5964.187260494033	4
0	24853	5964.866388088978	3
0	24859	5965.134547586537	2
0	24865	5965.186047207773	3
0	24869	5966.24290553557	2
0	24875	5966.593068588703	1
0	24880	5966.635419371773	0
0	24888	5968.652766391306	1
0	24891	5970.328809055903	0
0	24938	5981.286270571415	1
0	24941	5981.600488335894	0
0	24963	5985.83286743049	1
0	24965	5986.141581263759	2
0	24966	5986.287095757537	1
0	24971	5987.074289837818	0
0	24984	5992.299435496475	1
0	24985	5993.411164339664	0
0	25004	6000.184467577504	1
0	25006	6000.619866406159	2
0	25011	6001.48637932916	1
0	25016	6002.864785190158	0
0	25027	6004.575722090307	1
0	25031	6007.156925033588	0
0	25073	6014.743376515751	1
0	25075	6015.735652925898	2
0	25076	6016.070035793312	1
0	25082	6016.828373786578	0
0	25089	6017.176267962927	1
0	25094	6018.275848161457	0
0	25123	6025.542441716335	1
0	25127	6025.877297962921	2
0	25128	6026.830197800828	1
0	25134	6028.454766349728	0
0	25174	6035.695350900125	1
0	25177	6036.124224567409	0
0	25183	6036.726484414491	1
0	25184	6037.091354755536	0
0	25220	6046.904896079055	1
0	25222	6047.036454709897	2
0	25225	6047.924858552403	1
0	25230	6049.346559643583	0
0	25236	6049.661918435602	1
0	25239	6050.813943116131	2
0	25240	6051.89100952527	1
0	25246	6051.925128143022	2
0	25250	6053.780171494953	1
0	25255	6054.041181637322	0
0	25262	6055.738322652032	1
0	25264	6055.901029020927	2
0	25266	6056.008155655379	3
0	25267	6056.267629312598	2
0	25273	6056.47043045005	1
0	25280	6057.036086575561	2
0	25290	6061.564340973806	1
0	25295	6062.33523088503	0
0	25303	6062.474842083962	1
0	25306	6064.403159719073	2
0	25308	6064.970662628194	3
0	25311	6066.45038062945	2
0	25316	6066.653721216729	1
0	25322	6068.554352882944	2
0	25323	6068.647479808313	1
0	25329	6069.600133201325	2
0	25331	6070.350526337723	3
0	25333	6072.324886837892	2
0	25338	6073.000944811176	1
0	25343	6073.359387083442	0
0	25363	6078.638261248952	1
0	25364	6078.997149154959	0
0	25376	6081.22751481104	1
0	25379	6082.114424015282	0
0	25438	6099.68085059967	1
0	25439	6099.971945668514	0
0	25455	6102.141674110166	1
0	25458	6102.760717980726	0
0	25497	6121.685123973321	1
0	25498	6122.033576751053	0
0	25509	6122.288808353424	1
0	25510	6122.43450939372	0
0	25516	6122.771973058305	1
0	25519	6123.438855591248	0
0	25548	6127.836304459066	1
[...]
5	116793	27774.298073890747	21.238719185317
5	116798	27776.270737730738	11.370872112095
5	116809	27779.583522371723	12.965925372247
5	116814	27781.242484526828	4.018505801459
5	116943	27810.007349513103	16.056300584293
5	116956	27815.319899388586	20.981049311131
5	116992	27821.434753845333	26.688706428475
5	117022	27830.512802049806	34.911436781206
5	117027	27830.859136274176	29.850945176015
5	117034	27831.432850319764	25.616121541479
5	117046	27835.523273375797	29.098313782442
5	117061	27835.826493021887	28.944945573855
5	117066	27836.653254106892	24.35710209079
5	117072	27836.900948665964	17.384599972482
5	117079	27837.535121398911	12.712185268717
5	117086	27838.944485377529	10.086473826735
5	117098	27843.549345982169	13.895010931301
5	117119	27849.900413096492	12.653095138233
5	117277	27880.618884654774	37.96824455714
5	117283	27880.764364911226	31.341827987251
5	117295	27886.748848242969	26.906895395723
5	117306	27887.405195775442	26.610593890086
5	117316	27889.19834213016	25.117539771403
5	117342	27896.877489418234	28.735430313369
5	117347	27897.810699767186	29.45683107806
5	117354	27898.535013375446	27.035314825057
5	117366	27899.76152263514	25.003119691995
5	117382	27902.129796875481	25.057743917329
5	117417	27908.285813538704	26.289795984731
5	117495	27918.716903719506	35.696231111151
5	117510	27920.452027982783	32.875118371449
5	117521	27921.189708921823	26.688681172748
5	117529	27923.287079045279	21.652305947514
5	117538	27925.118133730709	6.196536144334
5	117549	27927.98776744427	5.493998358249
5	117556	27929.480035902467	0.888465231134
5	117563	27930.761704469616	0.867934626207
5	117586	27937.533840088658	0.947381763495
5	117611	27943.321155451634	2.191550508201
5	117626	27944.646117727706	3.169619085697
5	117656	27953.681791048075	3.588073572111
5	117738	27968.806366324741	8.830392135179
5	117748	27973.839560028068	1.048778090616
5	117832	27994.384655640172	1.405487629223
5	117844	27998.358517996365	4.146624412387
5	117858	27998.689892205738	2.801329366248
5	117875	28000.905299796761	1.226202063785
5	117929	28007.87661698578	2.400658627482
5	117937	28009.734043470184	1.579907376732
5	117957	28014.099647343638	3.588563568947
5	118042	28027.936357065617	16.426289274986
5	118047	28028.293285299884	8.975012102298
5	118052	28028.521697736675	6.170198154173
5	118057	28028.630234767997	5.565901182709
5	118061	28029.295629512378	4.681608216548
5	118102	28038.305625848347	3.516991406114
5	118115	28044.329645083219	9.499596326874
5	118138	28047.280558773221	12.431855217131
5	118158	28051.311085822304	13.146322050638
5	118185	28055.69426991078	10.777860956841
5	118192	28060.940697561788	15.230980698546
5	118205	28065.848270517341	19.967747393847
5	118216	28071.641511619184	25.613021378817
5	118231	28073.982150349573	10.267062184904
5	118246	28077.777358320409	11.0407053994
5	118264	28084.509179760544	17.731903073018
5	118280	28089.446035125083	15.655830736882
5	118286	28092.673412388058	16.105056427297
5	118291	28092.935219797895	13.239089333369
5	118300	28096.597482151314	16.563863049343
5	118313	28099.129883911098	16.43368003151
5	118318	28100.013742827912	12.328882791115
5	118325	28102.488024362516	14.338728254156
5	118349	28108.802680450768	14.8252235361
5	118355	28111.098378468434	12.619622016987
5	118360	28111.347454308396	6.894327326464
5	118373	28114.146536672949	7.25650161994
5	118399	28116.667374670875	4.315640439165
5	118521	28138.643574808817	6.795768504183
5	118528	28140.133505074591	3.617404402333
5	118532	28140.451510101971	3.725427223756
5	118565	28150.961453571058	6.776817154812
5	118608	28165.731676712794	2.907497379
5	118614	28166.915474207187	3.010549269676
5	118624	28169.378562372782	1.383545122395
5	118636	28170.309115495151	0.770991164955
5	118662	28175.814544319786	2.547838424556
5	118705	28183.0342546334	1.105776494001
5	118766	28196.68239538369	0.502786591237
5	118794	28202.757429708398	3.749937889495
5	118802	28204.420039334818	4.541412964161
5	118815	28206.759733374949	1.197126754011
5	118838	28211.635075688451	0.084299947386
5	118868	28217.051723545253	0.933824317814
5	118872	28217.780885826855	1.002632508486
5	118879	28218.634998380284	0.491257941391
5	118886	28219.396905763176	0.443133878689
5	118900	28226.16872247789	3.522183600461
5	118912	28229.596620487242	6.662583676846
5	118919	28232.023724909842	8.852721886928
5	118957	28245.129017351564	1.981163899882
5	118986	28254.835510193407	2.057747493171
5	119012	28259.047844852235	1.235754059541
5	119021	28263.627164926271	0.107384580224
5	119038	28265.023998488972	0.995966241865
5	119045	28265.576653559961	0.890368752356
5	119055	28267.133412266658	1.623312461836
5	119075	28269.322110273946	3.276876871314
5	119079	28269.342066846591	0.80398512055
5	119099	28277.313025039545	3.714649222879
5	119112	28279.563604661704	0.460865533507
5	119132	28284.212916405889	1.275913251126
5	119176	28289.598258054425	0.483347922686
5	119183	28295.133995446805	0.938747387722
5	119191	28298.951169876412	1.284979453831
5	119215	28313.138365169913	4.776428921874
5	119250	28319.523234095233	6.14987673424
5	119263	28322.652126739074	8.305123761189
5	119277	28325.800031944263	5.369825293708
5	119296	28327.647287561272	4.234943727293
5	119371	28340.833843070036	3.666961632408
5	119380	28342.330012952444	3.824716626091
5	119410	28348.1910070095	8.580662865337
5	119418	28351.143187723984	6.105478655925
5	119443	28354.21697674518	2.867799745983
5	119448	28355.825421388601	4.464321660648
5	119452	28356.009721924527	2.965947145581
5	119496	28363.174232006794	3.805444740008
5	119503	28364.671062509192	2.66696549994
5	119511	28365.77943951106	1.299498418482
5	119517	28366.857273863176	1.125389201617
5	119525	28367.906311511136	0.320552225778
5	119543	28372.091948450744	2.284506542178
5	119547	28372.909667349858	1.520748527727
5	119561	28379.894576343717	5.844225578615
5	119597	28384.956351884248	9.429351749029
5	119602	28387.774780696866	8.728632882032
5	119614	28392.373245621194	8.231019264052
5	119630	28393.256202599269	0.902083478015
5	119649	28398.750034867309	1.406321737432
5	119653	28399.653361653326	1.523800505567
5	119663	28402.870018186639	1.203651186487
5	119678	28405.642992286145	2.337211306377
5	119687	28407.780647348966	2.573795657367
5	119702	28409.095438562334	0.064997000185
5	119730	28414.351934539051	1.799255124606
5	119751	28419.45173127409	2.677048800913
5	119770	28420.839603538398	2.701491199776
5	119774	28421.088594091755	1.510573835864
5	119803	28427.229544872639	4.670590350505
5	119834	28440.168803626963	0.628556766813
5	119838	28440.222971148415	0.524998179314
5	119848	28447.480707429998	1.890361384627
5	119885	28453.269298897076	5.650062081636
5	119897	28453.536894450774	5.550073939764
5	119902	28453.910973644714	3.175197143023
5	119906	28454.217529022475	0.787311242572
5	119920	28456.535145237969	0.84738099299
5	119930	28457.706812288748	1.296233752732
5	119959	28465.42407907819	1.949012802564
5	120048	28481.27816192796	11.177446313058
5	120057	28482.115634959312	8.737091636599
5	120105	28492.052677242312	17.967500407268
5	120119	28494.900792268504	16.415904590409
5	120130	28496.939231612029	16.161838463941
5	120135	28500.682123718025	15.627128625672
5	120146	28504.32201222239	15.414589888046
5	120161	28505.638045380154	16.405781824652
5	120235	28526.099081063711	19.579012177618
5	120240	28526.699142539676	19.296915717569
5	120245	28526.895234341438	13.322103711264
5	120257	28531.377782828416	13.557340405107
5	120286	28535.030782048046	13.532269133839
5	120304	28539.492399155586	17.029009806484
5	120335	28545.161451732436	21.053019854753
5	120345	28547.251877299593	17.701672960527
5	120359	28550.357365203187	4.97838105178
5	120407	28559.122799389861	1.720235155353
5	120437	28572.035394266851	4.659953036738
5	120523	28589.777281830462	12.936306020475
5	120533	28591.22970752847	13.064702318343
5	120550	28596.300138910392	15.240940681626
5	120561	28597.308000530875	16.127735271517
5	120568	28598.194508557973	13.52882921188
5	120580	28599.536077147802	14.792400184609
5	120587	28600.963803374681	9.111876492527
5	120605	28604.759998812214	11.487079152776
5	120628	28607.096850864794	11.558995136507
5	120645	28611.431181203738	0.599536038641
5	120652	28612.435433161902	0.100514224868
5	120660	28614.059975067031	0.490314680788
5	120680	28616.690382290647	1.559173503778
5	120702	28619.48064138841	2.805032200092
5	120706	28619.558490650776	2.436490909058
5	120775	28632.619920713367	3.880226938336
5	120779	28634.701551639051	4.290589595215
5	120798	28637.418126531828	2.252204957905
5	120828	28644.535895208269	2.735376128962
5	120838	28644.623320386728	2.666994772316
5	120847	28649.716449455868	6.810225624515
5	120881	28655.390952701863	12.349195792567
5	120900	28660.624340389505	5.647001276956
5	120957	28677.294684745558	2.772136713396
5	120966	28679.62584437193	3.866414046346
5	120980	28682.449277882935	3.846305657043
5	120987	28684.011609894745	2.40845715209
5	120993	28685.421913989954	3.082584185425
5	121004	28691.481901346103	1.939878365111
5	121058	28711.312465046208	1.032273375676
5	121065	28712.380171976095	0.134179983655
5	121084	28721.315203630452	2.269554316172
5	121099	28723.95931790609	3.679003125276
5	121117	28727.211272693919	5.500684358307
5	121124	28731.297693133979	8.783852985974
5	121139	28736.318346951457	12.781426664811
5	121144	28737.048352331001	6.266412883814
5	121151	28738.029178857971	5.452183215308
5	121161	28741.681705253517	8.506168185554
5	121172	28742.541400391989	6.682720048292
5	121180	28744.784555637438	8.824599437947
5	121190	28745.927410056364	9.797530809169
5	121203	28750.873330769702	12.848839347844
5	121275	28759.943438029432	8.228180051422
5	121280	28760.427383330002	7.79528092565
5	121288	28762.069781349274	0.874054975727
5	121316	28768.818169699228	0.508683837929
5	121323	28770.946020818715	0.429875900276
5	121332	28774.066342544524	0.445904900481
5	121365	28781.599202713717	5.727718403703
5	121389	28791.819864897572	3.039859403811
5	121396	28794.523396086656	2.582040039919
5	121403	28796.904551991695	0.121455470959
5	121430	28807.451519635403	8.321103676625
5	121503	28824.362967355478	21.03108924096
5	121531	28829.298078465358	23.917666609922
5	121545	28834.260378261718	19.71081557453
5	121595	28846.465599550894	27.567566135515
5	121600	28846.549411060175	18.415015552836
5	121609	28848.332276782589	7.039228978884
5	121630	28853.525755570902	6.930914824783
5	121634	28855.003356958339	4.903527708804
5	121641	28855.141884208904	0.079440516042
5	121683	28867.148064272395	1.160794099981
5	121691	28871.520366482406	2.196705791926
5	121701	28871.947282264078	0.256344192828
5	121708	28872.893669047358	1.194990108642
5	121727	28879.531338470627	4.906705510036
5	121782	28887.5445050442	6.914725031854
5	121804	28890.807976929501	8.46378845433
5	121836	28903.862338420337	14.918292122115
5	121846	28906.872292100265	17.183981850205
5	121850	28907.17833192135	8.583481668499
5	121858	28909.159250608263	0.757544140584
5	121882	28921.067283688594	2.707240332033
5	121892	28924.882824316765	3.733863949279
5	121929	28934.926071740091	3.723641544157
5	121971	28940.852482630677	5.152640140084
5	121976	28941.179320766202	5.223928502301
5	121980	28941.56776494526	2.180173425154
5	121992	28944.514075784158	2.585465372859
5	122008	28946.968965765334	3.711645231104
5	122018	28949.211172894272	4.167835195512
5	122032	28955.076423154816	1.963377189758
5	122055	28959.774025823421	1.638490956136
5	122059	28962.548593409225	4.072663300627
5	122072	28967.123026662464	3.135390021045
5	122086	28968.592616577757	4.466061463502
5	122103	28973.972952264142	6.086694941802
5	122110	28976.002049861009	3.888042600701
5	122123	28983.616978797392	10.886365506205
5	122198	28992.761145744337	18.666578596991
5	122203	28995.063691374165	9.521467414339
5	122210	28997.136785846766	6.427208995937
5	122227	29002.269248266675	4.047638847972
5	122239	29004.766353500136	5.756627752952
5	122247	29008.066714800661	3.452898254924
5	122264	29011.374018444837	2.499891072873
5	122277	29015.727880346278	5.220436687485
5	122290	29020.658229534306	6.658249788308
5	122312	29024.699449641731	7.93780414175
5	122325	29026.759822256383	8.073315267045
5	122390	29035.81138794433	16.195203308528
5	122399	29037.330723572354	10.11627227469
5	122406	29037.558103466103	8.595090328468
5	122416	29038.792158978681	2.72312384691
5	122423	29042.738284345652	5.761937083198
5	122453	29048.351430375579	0.195883717975
5	122478	29051.843664541822	0.376445211189
5	122495	29054.55594057229	0.215504063727
5	122521	29064.31004100414	6.043113945434
5	122533	29066.737699882518	0.919959786002
5	122542	29068.133738903955	2.051107776933
5	122552	29069.007299260737	0.237152707154
5	122566	29071.091395742335	0.096078447941
5	122610	29083.929496733477	3.149158614215
5	122659	29093.105082809983	11.474930212956
5	122670	29094.339512517114	12.631451475916
5	122675	29094.780259486974	0.57407227592
5	122682	29096.055330959537	1.839036510584
5	122722	29106.146995290267	11.904644552708
5	122740	29113.899867639674	0.264662858905
5	122756	29117.000471661905	0.330807000057
5	122784	29121.53726726488	1.786300031709
5	122805	29125.673133943428	0.687665224501
5	122862	29140.522267410458	2.576381426062
5	122882	29148.505739015505	0.93577635516
5	122896	29150.498578884878	1.270423649662
5	122912	29154.193226978649	0.227848751022
5	122931	29157.102633930655	1.834339350437
5	122950	29161.875015301357	2.567058537599
5	123006	29174.90136096579	4.863633905323
5	123018	29178.185594927245	5.837399816808
5	123040	29181.995196216494	1.574878663054
5	123085	29196.628005784544	0.353300116225
5	123095	29198.199915409739	0.674716204503
5	123099	29198.772818370084	0.697372691095
5	123160	29210.058704819851	1.420091737269
5	123172	29211.575621061367	0.262934584328
5	123223	29227.689063772285	0.690120077427
5	123241	29231.253321109179	0.584197713923
5	123269	29245.357407694269	0.999214509937
5	123292	29251.384933354367	1.506339087663
5	123315	29255.456404374905	1.908429515722
5	123378	29274.079004758683	10.854015667079
5	123388	29274.531110825562	6.45937427152
5	123397	29275.426207545569	7.313969055459
5	123404	29276.116968859864	7.38206459614
5	123409	29276.237981226742	5.91310220156
5	123414	29276.332793134149	1.299743155837
5	123426	29278.307740373343	2.401045303016
5	123454	29283.842969953478	6.33656142991
5	123490	29290.171338497078	9.78860515574
5	123498	29290.827765780089	4.420195613076
5	123508	29291.226355949488	4.65602336035
5	123512	29291.605598487379	2.04658256049
5	123529	29294.940405185204	0.012518331723
5	123537	29298.420545172767	0.034910777088
5	123553	29304.19879629089	0.45977595215
5	123565	29308.052841454594	2.423061673008
5	123658	29326.145115349958	9.603244040837
5	123671	29327.383384444423	10.272649470377
5	123689	29336.491057614557	14.017158165072
5	123716	29341.998160174316	19.000391339655
5	123736	29344.637836937661	15.989344159309
5	123742	29346.531951090137	15.343651229311
5	123749	29348.85493797183	13.386430665265
5	123754	29350.35181843723	6.848655532278
5	123764	29353.526909483638	5.770325506458
5	123806	29365.757943737139	1.885947215802
5	123833	29375.563756201093	1.248729798578
5	123840	29378.19177415924	0.220421384056
5	123847	29381.253547489079	1.340796841881
5	123854	29382.506359603359	0.52216255143
5	123870	29388.578069871734	3.948874510003
5	123912	29394.256446338818	8.631302945906
5	123922	29397.373100706388	8.462989721129
5	123958	29401.136328896448	8.309668625042
5	123972	29405.525585518522	10.24054207288
5	123984	29406.598497280967	1.735429270704
5	123991	29407.92096006601	2.588838876895
5	124022	29419.902095122355	4.829971389966
5	124033	29424.840071135772	3.239220976023
5	124076	29435.375803739971	6.775333282598
5	124087	29438.948352076875	9.241933856504
5	124131	29462.461913398326	1.197919186444
5	124140	29469.438115157072	7.767607557435
5	124145	29470.535596863506	4.4511205242
5	124152	29472.579688176452	6.166167000424
5	124156	29472.605623388016	1.451642345469
5	124163	29473.291902274957	0.099259281979
5	124188	29483.613768892932	1.413917295987
5	124222	29499.124023797976	1.220782168591
5	124277	29508.37063040461	2.545545750091
5	124296	29510.356528159486	3.75809643988
5	124341	29522.158355223587	14.404987268241
5	124368	29528.658915386869	18.962403891896
5	124375	29529.924234337321	19.471676456707
5	124392	29531.347807513339	19.778452899957
5	124435	29544.084633313351	29.705548016552
5	124445	29544.394407668297	26.21496526528
5	124451	29544.976613563507	14.176233252423
5	124456	29545.420591211882	11.586327584253
5	124463	29553.087144519928	16.746436595915
5	124486	29556.010513067382	1.239179569507
5	124495	29558.994739770227	3.345068859591
5	124503	29559.946179969135	1.349990485537
5	124515	29562.196619196051	0.478539430396
5	124530	29565.975968986133	0.514556452932
5	124544	29578.755253543905	9.080709776392
5	124570	29585.496523700891	9.156141630498
5	124602	29590.790199117359	1.82442518398
5	124612	29592.970831941558	3.910814305388
5	124629	29594.851690116517	2.493569518515
5	124641	29598.849489685384	4.726543382477
5	124645	29602.056833052681	7.800927310641
5	124662	29612.544002760731	1.384782585062
5	124726	29624.507432834172	5.784318183346
5	124749	29632.064192567745	11.163160750837
5	124765	29633.950597194606	12.120400402141
5	124773	29635.815697934797	12.549899046439
5	124778	29637.973490044613	11.607837037734
5	124785	29639.359243842695	10.199846349633
5	124796	29644.668975434845	12.639770738799
5	124825	29651.960884788819	17.082884329427
5	124862	29661.376306741375	22.42764013377
5	124879	29665.172313457227	8.346841439066
5	124888	29668.999174885685	11.459266751207
5	124900	29670.19544880165	8.52207144552
5	124905	29671.228122325108	8.267816054553
5	124909	29672.774981305363	5.362082171515
5	124916	29673.629046884734	0.401128290041
5	124923	29678.909243706627	2.496843229396
5	124956	29694.453640168564	1.26369493006
5	124983	29711.081659686847	0.144805299466
5	125015	29718.738022563743	1.423137270418
5	125027	29723.529579836759	4.708066100399
5	125042	29724.459632490393	2.332895465556
5	125048	29725.644135376287	1.97592337915
5	125055	29725.934440346699	1.626529912084
5	125062	29726.980088503927	1.211734862922
5	125067	29729.558851874544	3.324789056462
5	125080	29736.803049761383	4.857620340096
5	125107	29739.366472131842	0.074695007741
5	125118	29742.805141482045	0.664855347222
5	125181	29753.222526257496	2.688948675697
5	125186	29753.790243869534	2.29252593109
5	125191	29753.843456710728	2.013039985139
5	125206	29756.292594335748	4.429745327771
5	125236	29762.078838990198	7.299781222128
5	125240	29762.135926968902	6.096861788248
5	125290	29773.563442526101	0.401525612815
5	125315	29776.74837841311	1.181522316694
5	125334	29786.316860294334	3.249547570402
5	125350	29793.098201326606	1.382165614761
5	125381	29801.819808651318	0.473891234442
5	125420	29809.947310621908	1.336492507163
5	125440	29814.649745440171	5.359347626712
5	125453	29822.503461372895	13.06641621216
5	125493	29829.281319605522	5.30489809614
5	125500	29829.776435798623	4.776109841901
5	125512	29830.012537097936	4.5141364462
5	125522	29834.223365148667	6.359509210084
5	125544	29838.194264199307	8.412036412011
5	125559	29839.797774547666	4.274079811274
5	125567	29843.404239701862	2.129608949297
5	125609	29847.634506391075	1.365868745074
5	125617	29848.582542375828	1.671560598615
5	125666	29864.818025657291	2.799244755859
5	125677	29868.461777848721	4.900774470115
5	125684	29874.144200946276	1.799416008107
5	125750	29890.22220533224	1.272541156412
5	125762	29892.908135546544	3.344025895231
5	125816	29920.177222960665	1.647140414992
5	125969	29952.504060615533	15.871344747824
5	126016	29960.842187015063	19.049631517594
5	126023	29961.439059139065	17.357608013861
5	126056	29968.736064928731	23.652977473969
5	126071	29970.002745007947	24.64249393691
5	126086	29970.649377752774	17.546461495251
5	126092	29972.135417524195	18.802315717651
5	126097	29972.977948763143	17.771660972752
5	126105	29974.460231017225	15.917701327427
5	126115	29977.237265256311	10.192790690224
5	126172	29990.303923949768	2.713338841416

