version 2
run Second-n2-15-20191016-17:03:47-5724
attr configname Second-n2
attr datetime 20191016-17:03:47
attr experiment Second-n2
attr inifile omnetpp.ini
attr iterationvars ""
attr iterationvarsf ""
attr measurement ""
attr network org.omnetpp.queueing.Pizza
attr processid 5724
attr repetition 15
attr replication ""
attr resultdir results
attr runnumber 15
attr seedset 15
param **.PS.maxInventoriedPS 2
param **.U1.interArrivalTime exponential(3s)
param **.U2.interArrivalTime exponential(5s)
param **.PS.serviceTimeForInventoryU1 exponential(1.0s)
param **.PS.serviceTimeForInventoryU2 exponential(1.2s)
param **.PS.serviceTimeDirectU1 exponential(1.4s)
param **.PS.serviceTimeDirectU2 exponential(1.4s)
param **.PS.probabilityProducing 0.7
param **.CS.serviceTimeU1 exponential(1.1s)
param **.CS.serviceTimeU2 exponential(1.4s)

vector 0 Pizza.EntryQueueU1 queueLength:vector ETV
attr interpolationmode sample-hold
attr title "queue length, vector"
vector 1 Pizza.CS queueLength:vector ETV
attr interpolationmode sample-hold
attr title "queue length, vector"
vector 2 Pizza.EntryQueueU2 queueLength:vector ETV
attr interpolationmode sample-hold
attr title "queue length, vector"
vector 3 Pizza.sink lifeTime:vector ETV
attr interpolationmode none
attr title "lifetime of arrived jobs, vector"
attr unit s
vector 4 Pizza.sink lifeTimeU1:vector ETV
attr interpolationmode none
attr title "lifetime of arrived jobs, vector"
attr unit s
vector 5 Pizza.sink lifeTimeU2:vector ETV
attr interpolationmode none
attr title "lifetime of arrived jobs, vector"
attr unit s
0	0	0	0
0	5	6.259122747316	1
0	7	6.426812955062	2
0	9	6.779740928897	3
0	15	8.125822386251	4
0	20	9.215084584741	5
0	21	9.794334791656	4
0	27	9.930270606506	5
0	29	10.02937631436	6
0	31	10.949550430024	7
0	33	12.54052083982	6
0	39	13.04111979938	7
0	40	14.350545539141	6
0	45	14.551860311256	5
0	49	14.687692485238	6
0	53	14.831189487564	7
0	55	14.951850747968	8
0	57	15.323779173934	9
0	59	15.994075506328	10
0	62	16.778425113882	9
0	69	17.350161979774	10
0	70	17.903974303591	9
0	75	18.636299551569	8
0	80	19.266017428703	7
0	86	19.488469120032	8
0	89	20.554205542036	9
0	90	20.913126504	8
0	95	21.411507715087	7
0	101	23.252931624439	8
0	104	24.735719901123	7
0	108	25.918823930418	8
0	111	26.554977109207	7
0	118	27.34901121032	6
0	122	27.467556933123	7
0	124	27.712263989115	8
0	127	29.230483489991	7
0	132	30.312038455176	6
0	136	30.379084433301	7
0	138	30.47279999242	8
0	140	31.366869561875	9
0	143	32.506842712763	8
0	147	34.427571590107	9
0	149	35.674123438348	10
0	153	36.874508277098	11
0	155	37.526830890458	12
0	161	40.510467657212	11
0	166	40.632915004419	10
0	171	41.798798677309	9
0	175	41.890237461237	10
0	177	41.962821780858	11
0	179	42.697878731479	12
0	183	44.090337377679	13
0	187	44.398864704597	14
0	188	45.027774029315	13
0	194	46.244338179576	14
0	196	47.233905979448	15
0	199	48.622857361088	14
0	207	50.695352329259	15
0	208	50.800751005934	14
0	213	52.057631294396	13
0	219	52.499087631704	14
0	222	52.535336116596	15
0	223	53.450071718708	14
0	230	54.563445684114	13
0	236	55.932156570597	12
0	241	56.22415074401	11
0	246	56.475081733901	10
0	251	57.891131290561	9
0	256	59.168870953243	8
0	262	60.036301001416	9
0	264	60.900517074047	8
0	269	60.955033065283	7
0	276	62.211300534595	8
0	277	62.238273897171	7
0	283	64.045777791443	6
0	290	64.28425333183	7
0	292	66.072463577506	6
0	297	66.089093217121	5
0	302	68.618942413227	4
0	310	72.361256618832	5
0	311	73.902954300545	4
0	317	75.145391043791	3
0	322	76.393196009043	2
0	328	77.550308165154	1
0	333	77.981166394475	0
0	350	80.620201191475	1
0	352	80.87096877547	0
0	360	81.327351986928	1
0	363	82.221636994652	0
0	375	83.640448365373	1
0	376	83.841241062512	0
0	382	84.368204978913	1
0	388	85.754260161431	2
0	393	87.717274515014	3
0	395	89.597953053016	4
0	396	89.608433900222	3
0	400	90.949692389195	4
0	405	91.535663086844	5
0	407	92.581767500624	4
0	420	93.863932396544	5
0	425	95.899856684829	4
0	430	96.147466101972	3
0	435	97.197576437842	2
0	440	97.6853835162	1
0	444	97.968567685655	2
0	448	100.899733244187	3
0	452	102.938575949342	4
0	455	105.693871167462	3
0	460	106.52740473564	2
0	466	107.609393121303	3
0	470	110.021088512861	4
0	471	110.556566519436	3
0	478	114.106653300422	2
0	483	115.072666630021	1
0	488	116.125626268744	0
0	535	127.643822450219	1
0	536	127.650746308169	0
0	550	131.832357965898	1
0	552	132.495908915816	2
0	553	133.288988460284	1
0	558	133.609507498838	0
0	564	133.641695773012	1
0	565	134.122440554833	0
0	598	142.680990490583	1
0	602	143.803507044231	2
0	605	144.324848148474	1
0	610	144.668417565182	0
0	627	151.463529512321	1
0	631	152.176940045651	2
0	633	152.593362242887	3
0	634	153.043955409566	2
0	643	154.640046591889	3
0	645	155.206588251884	4
0	647	156.948343769188	3
0	653	157.02849168679	4
0	654	157.838973945503	3
0	659	158.09159820388	2
0	667	159.932070859235	1
0	672	160.530850307863	0
0	680	160.901982339774	1
0	683	161.970214451167	0
0	697	164.300673342863	1
0	698	166.458984588675	0
0	713	170.167805867872	1
0	717	172.217619527252	0
0	730	175.625540629706	1
0	732	176.127288579804	2
0	733	176.657836729713	1
0	739	177.798662392767	2
0	740	178.274974541425	1
0	746	179.716571102825	0
0	752	179.898087867659	1
0	754	180.803501621927	2
0	755	181.863611619624	1
0	761	182.297733221831	0
0	792	185.711322007814	1
0	793	187.558512100559	0
0	814	193.619878138962	1
0	815	194.034967292696	0
0	828	196.063074294182	1
0	829	199.115145863366	0
0	844	201.936955466239	1
0	846	202.372338890123	2
0	848	203.858003508582	3
0	851	204.031129292914	2
0	857	204.110305072709	1
0	864	205.068680884902	2
0	865	205.097229782248	1
0	872	205.309551375384	2
0	874	207.243538458147	3
0	875	208.105676895368	2
0	880	208.153316561346	1
0	887	209.47175319863	0
0	893	210.258710752713	1
0	895	210.902218979449	2
0	904	215.337053673557	3
0	906	215.341390632232	4
0	909	216.664213251378	3
0	914	217.501060605152	2
0	919	217.798631831099	1
0	923	218.930251217579	2
0	926	220.462633821414	1
0	932	222.927356606689	2
0	934	223.048455136997	3
0	937	224.539587290572	4
0	939	225.064942279952	3
0	945	226.71006344496	2
0	952	227.489360389988	3
0	953	228.163518072814	2
0	960	228.440838560718	3
0	961	229.045033668335	2
0	968	229.877239608884	1
0	973	230.196347470072	0
0	981	234.131654613627	1
0	983	235.077544258558	0
0	990	236.352919835115	1
0	992	236.551210035711	0
0	1019	242.822830548624	1
0	1020	242.90670570625	0
0	1043	250.581291436791	1
0	1044	251.678273302768	0
0	1051	252.420114163091	1
0	1052	252.806771960287	0
0	1066	255.465387738406	1
0	1067	256.618527455359	0
0	1086	261.060101984399	1
0	1087	261.066958653026	0
0	1103	264.888166374084	1
0	1107	269.288832029239	0
0	1127	274.737246538548	1
0	1129	275.629564385451	2
0	1131	275.647114581106	3
0	1133	277.570429871806	4
0	1134	279.801998884123	3
0	1140	280.01980968197	4
0	1142	280.512151903384	5
0	1143	281.338882821613	4
0	1149	281.401919380638	5
0	1150	281.842025654175	4
0	1156	282.75786694613	5
0	1159	283.844533130028	4
0	1164	284.355486098668	3
0	1172	286.54228832538	2
0	1176	286.765367251099	3
0	1181	287.563171762382	2
0	1185	287.969586728832	3
0	1192	290.388540757897	4
0	1193	290.782327439105	3
0	1198	291.877109993002	2
0	1202	293.202702751622	3
0	1209	296.145388752942	4
0	1211	296.277294168181	5
0	1214	297.289935308302	4
0	1220	297.574403889128	5
0	1223	299.359846338154	4
0	1229	299.491430651962	3
0	1235	299.781465917254	2
0	1240	299.842391516413	1
0	1246	300.192346371084	2
0	1250	301.750864529356	1
0	1258	303.251728919479	2
0	1260	303.300269779981	3
0	1262	303.609359689653	2
0	1267	303.635191963199	1
0	1273	306.837364600441	0
0	1279	307.194141519347	1
0	1286	308.365571409017	2
0	1287	308.428759777669	1
0	1292	308.482570005518	0
0	1296	309.320938302421	1
0	1303	313.086934377928	0
0	1327	322.004225101963	1
0	1333	324.921606493238	0
0	1354	327.936004762504	1
0	1358	330.584820345844	0
0	1377	336.507789121841	1
0	1380	337.437571254134	0
0	1395	340.261968181586	1
0	1396	343.00167266015	0
0	1410	346.317121116926	1
0	1412	346.47155761318	2
0	1414	351.532698488096	1
0	1422	353.417964473399	2
0	1423	353.878840462713	1
0	1432	355.070542157659	0
0	1452	358.67799114408	1
0	1453	359.038688376928	0
0	1459	359.441375610128	1
0	1463	360.259547775595	2
0	1465	361.601866238304	1
0	1471	361.906679280682	0
0	1492	365.163889861684	1
0	1494	365.615864787778	0
0	1512	367.879214362705	1
0	1513	367.88693253441	0
0	1519	368.144208230204	1
0	1520	368.362381632799	0
0	1533	369.70759152185	1
0	1535	370.192041618562	2
0	1538	370.7314454919	3
0	1539	370.739176794472	2
0	1545	371.452294522643	1
0	1550	371.6480983048	0
0	1563	373.635806679576	1
0	1565	373.823630222936	2
0	1567	373.883644989117	3
0	1569	374.804308603352	4
0	1571	374.907627086234	5
0	1573	375.119448973228	6
0	1574	375.261382217817	5
0	1579	375.643200635487	4
0	1584	375.816176472202	3
0	1590	376.067632599519	4
0	1591	376.083572302978	3
0	1595	377.041219545013	4
0	1612	382.212186763558	5
0	1613	382.855493104893	4
0	1620	383.464631383071	5
0	1621	384.358758051928	4
0	1626	384.574310614311	3
0	1634	384.96268762424	4
0	1636	386.915257466775	3
0	1640	386.929976011114	4
0	1642	388.042393720159	5
0	1646	388.844495332816	6
0	1651	390.734903734213	5
0	1660	393.228432377596	4
0	1664	393.863081048959	5
0	1666	394.188498971379	6
0	1674	395.966996888289	5
0	1681	396.265143550417	4
0	1686	396.618906145861	3
0	1692	397.380760498992	4
0	1694	397.934515667775	5
0	1696	397.965649787437	6
0	1698	398.087266723718	7
0	1701	398.356482025425	6
0	1707	399.493569877693	7
0	1709	399.631235151991	8
0	1710	400.090578006124	7
0	1717	400.700057973183	6
0	1725	403.92768776715	5
0	1732	404.767486391902	4
0	1740	406.049085931819	5
0	1741	406.498550362036	4
0	1746	407.010168406036	3
0	1751	408.272006336438	2
0	1755	408.742022978589	3
0	1760	411.022637821249	2
0	1767	411.440606839866	1
0	1771	412.644459475417	2
0	1775	413.084614498117	3
0	1777	413.121375148158	4
0	1781	413.757711646455	5
0	1783	414.072184527106	6
0	1787	416.237822261184	7
0	1793	417.84069618126	8
0	1794	419.997861436764	7
0	1799	421.22413958138	6
0	1804	421.831656529799	5
0	1810	423.636966795964	4
0	1817	425.692236234384	3
0	1822	427.633933778604	2
0	1828	429.020775313831	3
0	1830	429.758318183767	2
0	1835	429.847351011285	1
0	1840	432.078793127283	0
0	1846	432.377719631132	1
0	1847	432.474502121909	0
0	1851	432.690071594211	1
0	1855	433.772311322884	0
0	1876	436.643391703393	1
0	1880	438.843205809207	2
0	1881	439.473919808349	1
0	1887	439.787192017467	0
0	1896	441.302712192706	1
0	1903	443.672410293394	2
0	1906	445.256071424555	1
0	1916	446.501518189679	0
0	1946	452.345013055847	1
0	1948	452.843746432128	2
0	1951	453.298006098655	1
0	1957	453.753457389283	0
0	1966	454.078845768288	1
0	1970	458.983263078403	0
0	1984	460.341716493225	1
0	1988	461.76882021519	2
0	1992	462.432513296433	3
0	1994	462.897520747492	2
0	2000	462.997178769044	1
0	2006	463.058783371848	2
0	2010	464.027985315577	1
0	2015	464.145704001415	0
0	2021	464.883816049549	1
0	2025	467.685816510145	2
0	2028	468.283090489585	1
0	2036	470.089478880154	2
0	2038	470.63750341669	1
0	2044	470.841451257908	2
0	2045	470.861331214459	1
0	2049	471.054675031399	2
0	2052	472.262931709169	1
0	2060	473.45981522782	2
0	2062	473.64899977761	3
0	2067	475.906698797466	2
0	2072	476.274008933382	1
0	2077	476.904944563699	0
0	2085	477.535698779692	1
0	2087	478.286242081955	2
0	2090	479.607187528348	1
0	2095	479.769622287247	0
0	2108	483.388198120125	1
0	2112	484.646173456923	0
0	2157	496.922905273511	1
0	2160	497.522096402178	0
0	2173	500.505749947998	1
0	2175	501.737573532562	2
0	2178	502.475459720193	3
0	2179	503.230226417137	2
0	2185	506.126063850481	1
0	2192	508.564760281533	2
0	2193	508.678864935997	1
0	2198	509.036783121621	0
0	2208	509.972598431536	1
0	2210	511.491210614844	2
0	2212	511.663994914559	3
0	2213	511.989805500563	2
0	2218	512.749102070686	1
0	2222	512.853060859186	2
0	2229	515.535447751495	1
0	2234	517.431531317244	0
0	2238	518.107939742831	1
0	2240	518.560069859559	2
0	2242	519.370672828587	3
0	2244	519.862745115075	4
0	2253	522.931679233365	3
0	2258	523.902350056394	2
0	2263	524.130498282989	1
0	2268	524.455605724832	0
0	2288	526.771235162034	1
0	2290	528.28393469541	2
0	2291	528.644047656312	1
0	2297	528.939720073529	2
0	2298	529.135530079492	1
0	2307	530.682797491844	2
0	2310	531.198307616126	3
0	2312	531.722688799894	4
0	2313	532.293027936423	3
0	2320	533.200125661116	4
0	2321	536.441171316679	3
0	2326	536.70995508134	2
0	2333	537.687821705068	3
0	2334	538.213680740536	2
0	2340	538.68008961285	1
0	2345	538.991076559646	0
0	2351	540.452098709349	1
0	2352	540.931312569945	0
0	2358	541.708534508481	1
0	2360	544.159021067018	2
0	2362	547.484484655344	3
0	2364	548.001052654896	4
0	2369	549.440796703773	5
0	2373	552.059814910102	4
0	2380	552.089192691787	3
0	2385	552.443958177619	2
0	2394	554.355960244741	1
0	2399	554.81707952381	0
0	2416	560.063189109273	1
0	2418	562.041676940427	0
0	2424	562.07979110365	1
0	2426	563.225942662596	2
0	2427	563.356516356008	1
0	2433	563.884628866381	2
0	2438	565.369101984917	3
0	2440	566.249790974385	2
0	2446	566.563623644878	3
0	2448	567.454801135029	2
0	2454	567.549420206721	3
0	2466	571.335203380208	4
0	2467	572.001001563709	3
0	2472	572.269358736156	2
0	2478	572.529267536554	1
0	2484	572.627023511664	2
0	2485	573.955055624599	1
0	2490	575.151975605321	0
0	2511	581.713863328261	1
0	2512	581.910751582038	0
0	2520	582.747259116794	1
0	2521	582.987575635088	0
0	2539	586.754371173174	1
0	2540	587.04505362711	0
0	2549	588.844780654988	1
0	2551	588.898037174587	2
0	2553	590.045249678972	3
0	2557	590.831705292376	4
0	2560	591.586627101107	3
0	2564	591.791209919659	4
0	2567	594.489441290416	3
0	2571	595.355012380434	4
0	2575	596.195343182474	5
0	2578	597.271793678715	6
0	2580	598.075352251494	5
0	2588	599.083730011725	4
0	2597	601.329250868198	5
0	2598	601.7697881143	4
0	2605	603.479419766788	5
0	2606	603.909587781163	4
0	2612	605.266706097538	5
0	2614	605.291300247464	6
0	2616	606.213112371069	5
0	2622	606.64472119066	4
0	2628	606.997654338809	5
0	2629	607.889851022956	4
0	2635	608.245453210015	5
0	2636	608.793188233662	4
0	2640	609.102826991019	5
0	2644	611.329239554582	4
0	2652	613.474664961585	5
0	2654	614.853757707319	6
0	2658	616.858870783984	7
0	2664	619.263437529038	8
0	2665	619.698915219604	7
0	2670	619.872575771067	6
0	2676	621.349880227609	7
0	2679	621.489605078566	8
0	2681	621.723931227889	7
0	2686	621.731029399213	6
0	2690	621.785931384247	7
0	2692	622.346914160942	8
0	2695	625.55779644828	7
0	2700	626.018462679385	6
0	2706	628.81319541587	5
0	2712	629.557529133636	4
0	2718	630.062593219522	3
0	2724	631.681154836554	2
0	2730	632.368354076913	3
0	2731	634.636344367375	2
0	2735	635.043810762314	3
0	2738	635.471626565533	2
0	2743	636.007678266743	1
0	2751	637.58095164911	0
0	2767	639.431775113902	1
0	2769	640.437103656048	2
0	2770	641.413623034936	1
0	2777	643.01584751371	0
0	2784	644.462286529241	1
0	2786	644.973512360862	2
0	2789	645.643282380901	1
0	2794	646.000286026275	0
0	2801	647.471640820259	1
0	2802	647.634252310171	0
0	2826	651.678771658132	1
0	2828	652.126254366625	2
0	2831	652.590743727625	1
0	2837	652.625336457664	2
0	2839	654.454717646714	1
0	2846	655.346615179666	0
0	2860	658.239200505012	1
0	2861	658.721309012017	0
0	2872	659.529686075406	1
0	2873	659.641956055137	0
0	2885	669.258841959058	1
0	2887	669.874705236375	2
0	2890	672.71602898234	1
0	2896	673.166713694352	0
0	2917	679.680862164681	1
0	2922	681.760243319684	0
0	2950	687.087998658383	1
0	2953	689.702489627975	0
0	2964	690.240845456562	1
0	2966	690.627434942046	2
0	2968	691.593547046322	1
0	2975	691.696232911343	2
0	2976	691.96891744885	1
0	2982	692.356370974733	0
0	2999	697.698431015629	1
0	3008	701.221072007794	0
0	3028	706.248942082033	1
0	3029	706.679120587606	0
0	3036	708.019910171116	1
0	3037	708.186721949533	0
0	3057	711.667498315101	1
0	3058	714.726345425166	0
0	3064	715.684538233594	1
0	3067	716.787152104869	2
0	3070	718.200129059019	1
0	3076	721.158420195184	0
0	3083	722.528538080643	1
0	3086	722.899924953602	2
0	3090	724.64581990699	1
0	3098	725.377855572884	2
0	3100	726.288748131314	1
0	3105	726.381885796056	0
0	3124	728.826694730758	1
0	3127	730.888874192033	0
0	3150	737.491434980475	1
0	3156	738.623245942535	0
0	3177	741.441256345579	1
0	3180	742.243680073519	0
0	3193	743.437059053349	1
0	3198	744.83727911296	2
0	3201	746.542608130331	1
0	3207	747.03535301623	2
0	3209	747.214106993504	3
0	3210	747.725007900365	2
0	3215	749.453430954116	1
0	3220	752.171438024723	0
0	3249	760.114678678455	1
0	3254	765.286893127121	0
0	3263	766.107149523665	1
0	3265	766.980291128988	2
0	3266	767.389474970883	1
0	3272	767.985017181307	2
0	3275	769.778653325358	1
0	3280	770.970743489511	0
0	3297	773.178319522601	1
0	3304	774.925154902638	2
0	3305	774.993020985633	1
0	3311	775.428882029664	0
0	3318	775.788199825455	1
0	3320	776.249850311421	0
0	3326	777.01962066049	1
0	3329	777.430345405543	0
0	3372	788.805404518876	1
0	3376	789.239266003785	2
0	3377	789.576834625037	1
0	3383	789.936033520711	0
0	3389	790.618154916902	1
0	3393	791.752963737545	2
0	3394	793.364950133976	1
0	3399	794.241466184237	0
0	3405	794.318360080745	1
0	3409	795.167816763604	0
0	3437	799.411895050667	1
0	3442	803.385221585031	0
0	3467	808.08284763882	1
0	3470	809.082896418915	0
0	3476	809.172733780617	1
0	3478	810.778904118078	2
0	3479	810.799522569415	1
0	3486	811.361696276608	0
0	3498	814.022501733895	1
0	3500	814.353859014264	0
0	3508	816.651722438112	1
0	3510	819.173919888534	0
0	3524	824.161975008537	1
0	3526	824.760280280016	2
0	3527	827.470986915473	1
0	3532	828.44733855716	0
0	3551	834.719152869175	1
0	3556	836.32412068294	2
0	3558	837.956603509526	3
0	3560	838.035849341124	4
0	3561	839.863814423788	3
0	3567	840.425707189688	2
0	3572	840.943481156976	1
0	3578	842.798473458312	2
0	3581	843.580536970373	1
0	3587	846.039429908733	0
0	3611	851.987219240552	1
0	3613	852.589732216414	2
0	3615	853.773202370387	1
0	3621	854.239910547143	0
0	3637	856.478421289409	1
0	3640	857.020585926606	0
0	3646	857.281657575611	1
0	3648	858.327324501304	0
0	3654	858.347044404014	1
0	3657	858.372026502838	2
0	3659	858.497915729474	3
0	3660	858.682405556599	2
0	3668	860.798859225088	3
0	3669	861.004429057288	2
0	3675	861.982066449635	1
0	3680	862.234480932651	0
0	3691	864.616704976585	1
0	3694	866.174558888198	0
0	3704	867.608113859589	1
0	3706	868.93172330476	2
0	3713	872.969801390635	1
0	3720	874.246778252082	2
0	3722	874.419351192041	3
0	3725	878.35767256275	2
0	3730	878.492028922528	1
0	3737	879.450558130596	2
0	3738	880.324994887185	1
0	3747	882.217784603859	2
0	3750	882.674706989236	1
0	3754	886.196291801842	2
0	3759	886.76124653616	3
0	3760	886.912442393141	2
0	3769	888.756784665591	1
0	3775	888.783135691609	2
0	3778	889.75158580029	3
0	3780	892.209817823675	2
0	3787	893.235683544209	3
0	3788	893.278122539161	2
0	3794	894.32352241528	1
0	3802	897.826199382932	0
0	3823	899.87115785276	1
0	3824	899.936053814713	0
0	3830	900.079315633018	1
0	3831	900.155865103022	0
0	3840	901.216070239264	1
0	3843	904.014383413831	0
0	3852	905.940330238834	1
0	3854	906.392184356209	2
0	3856	906.451567074752	3
0	3861	910.531731956808	2
0	3871	912.573341691594	1
0	3878	913.887179461634	0
0	3889	918.966372220912	1
0	3891	921.199946187833	2
0	3893	922.198651461781	3
0	3899	924.130215746581	4
0	3900	925.715751583092	3
0	3905	925.905931656738	2
0	3911	926.470996900798	3
0	3915	927.421034684499	4
0	3919	929.298621705732	3
0	3931	930.566438127061	2
0	3936	930.623305305612	1
0	3941	931.521261373817	0
0	3954	935.67235558968	1
0	3955	935.777728826362	0
0	3959	936.714215190884	1
0	3962	937.314052418029	0
0	3970	938.242344972427	1
0	3971	939.060596882583	0
0	3977	939.203459703667	1
0	3980	945.009879310219	0
0	3984	945.34480459375	1
0	3986	945.575388369181	2
0	3996	955.068522607288	3
0	3997	955.814540085228	2
0	4002	956.865083939504	1
0	4007	957.080600077258	0
0	4036	966.256545245463	1
0	4038	967.594206290427	2
0	4041	968.497166315152	1
0	4048	969.458305230689	0
0	4057	969.774803367718	1
0	4060	970.758898674752	0
0	4077	974.98545941916	1
0	4080	977.070314928765	0
0	4113	987.599094989224	1
0	4116	988.297646169639	0
0	4123	988.769498222255	1
0	4124	990.131994408862	0
0	4128	990.147524713728	1
0	4130	990.698171639935	2
0	4132	991.642299741949	3
0	4136	992.344522800558	4
0	4137	992.417797032035	3
0	4141	992.485707421959	4
0	4147	993.427780897946	5
0	4148	993.588884777252	4
0	4154	993.652311749438	5
0	4156	993.666120423736	6
0	4158	993.696995699657	7
0	4159	994.311802948107	6
0	4163	995.234811296921	7
0	4165	995.417956241457	8
0	4167	996.651966278874	9
0	4173	997.873115338286	10
0	4176	999.125866388135	9
0	4182	1001.769746432169	8
0	4188	1002.05820003532	9
0	4190	1002.247515964348	10
0	4191	1003.118816735367	9
0	4196	1004.927760054744	8
0	4201	1005.514691068889	7
0	4205	1006.10157636504	8
0	4211	1008.549145469497	9
0	4212	1008.66909468489	8
0	4217	1009.292074799178	7
0	4225	1016.483161578126	6
0	4234	1017.588091421392	5
0	4240	1018.398817225314	6
0	4244	1019.488469846108	7
0	4247	1021.074922419814	6
0	4254	1024.45923870954	5
0	4258	1024.978530064465	6
0	4261	1025.512227621535	5
0	4265	1026.598294617089	6
0	4268	1027.035925825456	5
0	4272	1027.315474051097	6
0	4275	1028.341939481523	5
0	4282	1030.321192491148	4
0	4295	1033.009665324898	3
0	4301	1033.974841125944	2
0	4306	1033.983695757492	1
0	4311	1035.062108953725	0
0	4330	1039.650313141776	1
0	4331	1039.663653473651	0
0	4356	1049.234342739224	1
0	4358	1049.649837393843	2
0	4361	1052.1371227846	1
0	4366	1052.409485379238	0
0	4376	1056.809747629684	1
0	4379	1058.764183576088	0
0	4385	1059.177515803075	1
0	4386	1059.629488969102	0
0	4400	1061.466585989531	1
0	4401	1061.908565988036	0
0	4413	1063.797576845573	1
0	4414	1063.900007148179	0
0	4418	1064.201879454491	1
0	4421	1065.496051295707	0
0	4425	1066.717391781616	1
0	4428	1067.280550014776	0
0	4432	1067.503566978829	1
0	4436	1069.90641173053	2
0	4437	1070.173004955771	1
0	4441	1071.236767663849	2
0	4446	1073.56443601036	1
0	4451	1075.164993764473	0
0	4476	1083.488517483942	1
0	4478	1083.761807193546	2
0	4483	1087.831321457972	1
0	4488	1088.034859588812	0
0	4497	1088.433897640385	1
0	4500	1088.640276047117	0
0	4516	1093.351309439418	1
0	4517	1093.666562951072	0
0	4526	1095.207845588941	1
0	4530	1097.957456882466	0
0	4539	1098.599158087986	1
0	4543	1099.82805468715	0
0	4569	1109.119016673664	1
0	4570	1109.145306959286	0
0	4595	1114.949680701582	1
0	4596	1116.284182720044	0
0	4614	1119.125585783304	1
0	4615	1121.335936994815	0
0	4623	1122.099003834404	1
0	4624	1124.828649216493	0
0	4643	1126.635612376441	1
0	4645	1129.357639948048	0
0	4662	1133.680820524139	1
0	4663	1133.790943666681	0
0	4674	1135.518718213247	1
0	4676	1136.47111986452	2
0	4678	1137.374977496347	3
0	4682	1138.2376595147	2
0	4687	1138.973488066829	1
0	4694	1140.010372123717	0
0	4716	1146.918834691525	1
0	4720	1148.854927915944	2
0	4721	1151.071028154847	1
0	4727	1151.825345296102	0
0	4736	1153.710980431592	1
0	4739	1154.633524499073	0
0	4745	1154.817152343621	1
0	4746	1155.136342248142	0
0	4764	1158.218258804885	1
0	4765	1158.409443084822	0
0	4782	1159.562929526877	1
0	4784	1160.164627335753	2
0	4790	1163.0102057652	3
0	4792	1164.315529131962	4
0	4795	1166.293294228704	3
0	4800	1166.377146148375	2
0	4804	1167.072151355916	3
0	4806	1167.616594739512	4
0	4813	1169.207218819728	5
0	4816	1171.145807779786	4
0	4823	1174.619142381376	5
0	4824	1175.222434102084	4
0	4830	1175.814331483553	5
0	4833	1177.857336662351	4
0	4840	1178.960044733084	5
0	4841	1180.018360312338	4
0	4846	1180.240955905988	3
0	4853	1181.887387920807	4
0	4854	1182.381650365702	3
0	4861	1182.902044246539	4
0	4862	1183.138373161869	3
0	4867	1184.175194965562	2
0	4871	1184.547410422718	3
0	4875	1186.112400010907	2
0	4883	1186.41347858896	3
0	4887	1187.233517028885	4
0	4889	1188.282240580187	5
0	4891	1190.198136661484	6
0	4892	1191.854049891732	5
0	4898	1192.144867807014	4
0	4907	1193.509205001277	5
0	4909	1193.697627691554	6
0	4910	1194.230477145387	5
0	4915	1194.496265954635	4
0	4920	1194.982273406066	3
0	4930	1198.005719062255	4
0	4931	1198.132129012319	3
0	4938	1199.140138500294	2
0	4944	1200.861477289851	3
0	4947	1201.173885964105	4
0	4948	1201.835185801556	3
0	4953	1203.136114802808	2
0	4962	1207.325769962258	1
0	4968	1209.153677870884	0
0	4979	1210.130432747067	1
0	4980	1211.085463867814	0
0	4986	1211.307280136561	1
0	4992	1214.017692657272	2
0	4993	1214.714910599909	1
0	5000	1215.889187105651	0
0	5024	1223.422037894152	1
0	5025	1223.615930319592	0
0	5054	1234.828890590498	1
0	5055	1234.990048800048	0
0	5071	1240.69155404771	1
0	5073	1240.87678459763	2
0	5077	1242.596820073318	3
0	5081	1243.743823103762	4
0	5082	1244.609761395691	3
0	5092	1246.757689573561	4
0	5093	1247.601693258251	3
0	5102	1247.923137279584	4
0	5104	1248.017712785691	3
0	5109	1248.064053786357	2
0	5114	1250.367621482922	1
0	5118	1250.443221362234	2
0	5121	1251.701752976699	1
0	5128	1253.897839944747	0
0	5141	1256.804638283817	1
0	5143	1257.707873990872	0
0	5154	1259.188799428066	1
0	5155	1259.297319191104	0
0	5162	1261.166995305873	1
0	5163	1261.369338583599	0
0	5172	1265.626879222319	1
0	5173	1266.969963884747	0
0	5179	1267.275542565365	1
0	5180	1267.617498225271	0
0	5191	1268.466168921199	1
0	5193	1268.904099517562	0
0	5199	1269.196607092734	1
0	5202	1269.438087996826	0
0	5216	1273.495946463467	1
0	5217	1273.518606371402	0
0	5223	1273.608767554421	1
0	5224	1273.694217524693	0
0	5251	1279.893083884627	1
0	5253	1279.984574863748	2
0	5255	1280.221153505235	3
0	5259	1280.49735283848	4
0	5260	1280.585622333519	3
0	5265	1280.687575208988	2
0	5270	1281.86533762514	1
0	5276	1283.135222797754	0
0	5280	1283.285454839767	1
0	5284	1285.043661222583	2
0	5293	1287.969700146669	3
0	5295	1288.287294217851	4
0	5297	1288.881112441775	5
0	5299	1291.333920075462	4
0	5305	1292.094123835428	3
0	5311	1292.355851256286	4
0	5313	1293.113863800514	3
0	5318	1293.415458360715	2
0	5325	1295.182086053575	1
0	5330	1296.671480194313	0
0	5336	1297.109690805479	1
0	5338	1297.985116958552	2
0	5339	1298.099502906897	1
0	5343	1298.601867938738	2
0	5347	1299.194150746043	1
0	5352	1299.962511565002	0
0	5356	1301.830835180806	1
0	5358	1302.906062928391	2
0	5365	1307.903385363215	1
0	5371	1308.885582442199	0
0	5388	1311.551725106903	1
0	5389	1311.903348083229	0
0	5406	1313.230340715498	1
0	5409	1316.613973629004	0
0	5418	1317.382586465545	1
0	5421	1318.431935003626	0
0	5428	1318.634929511747	1
0	5431	1318.930937663099	2
0	5434	1319.98342838057	1
0	5439	1320.575293669539	0
0	5443	1322.14286457811	1
0	5445	1322.550890370339	2
0	5448	1323.590331300429	1
0	5457	1327.157175098964	0
0	5467	1328.198158048103	1
0	5468	1328.796717626643	0
0	5505	1335.220451727577	1
0	5507	1335.296836161754	2
0	5509	1335.520284328818	3
0	5511	1335.921395685956	4
0	5515	1337.7083715465	5
0	5516	1337.818516542856	4
0	5522	1338.280816707822	3
0	5527	1338.333437882599	2
0	5532	1339.95771132904	1
0	5539	1343.416833558627	0
0	5553	1344.189390915781	1
0	5559	1345.195337514214	2
0	5561	1345.323690492255	3
0	5562	1345.68386077369	2
0	5567	1345.980537205042	1
0	5573	1346.93029682751	0
0	5598	1350.106587521507	1
0	5602	1352.016973728504	2
0	5607	1352.641189671435	1
0	5612	1353.642340818671	0
0	5645	1363.665860509603	1
0	5647	1365.315060315887	2
0	5649	1365.830203658322	3
0	5652	1366.41943068583	2
0	5658	1368.163522330643	1
0	5664	1369.858950210285	0
0	5673	1370.683816563099	1
0	5676	1372.612744712579	0
0	5711	1378.606887156083	1
0	5712	1379.368740796095	0
0	5728	1385.268800807726	1
0	5731	1388.661906013839	0
0	5748	1392.129148909963	1
0	5753	1394.774612727236	0
0	5759	1395.008266373547	1
0	5762	1396.147381508917	0
0	5778	1397.166787849901	1
0	5779	1397.519862228706	0
0	5797	1399.456892759087	1
0	5801	1401.190646556781	0
0	5818	1406.784902511353	1
0	5822	1407.104942180297	2
0	5824	1407.417489088147	1
0	5830	1407.972292388958	2
0	5835	1408.563864662155	3
0	5836	1408.794630884033	2
0	5841	1408.89285104628	1
0	5847	1409.526892220644	0
0	5860	1411.857119476086	1
0	5862	1411.980290411891	2
0	5864	1414.349285233193	3
0	5867	1419.523429218331	2
0	5873	1419.564719886383	3
0	5874	1419.878597309004	2
0	5880	1421.505894284886	1
0	5885	1421.878869343305	0
0	5901	1426.769471339962	1
0	5907	1427.887845994543	2
0	5909	1428.579824387353	1
0	5914	1429.206676239959	0
0	5920	1431.809098479152	1
0	5923	1432.178559892758	0
0	5934	1438.853599506387	1
0	5935	1439.08018185877	0
0	5939	1439.846222817676	1
0	5941	1439.940495329241	2
0	5943	1439.992408716923	3
0	5946	1440.936247444818	2
0	5950	1442.186900569668	3
0	5953	1442.579445022843	2
0	5960	1444.746075625446	1
0	5964	1445.958548816765	2
0	5966	1445.992336048543	3
0	5968	1446.227866574874	4
0	5972	1448.070088057871	5
0	5973	1448.571024814997	4
0	5979	1452.136421670289	3
0	5984	1456.323596481003	2
0	5990	1459.073378827196	1
0	5997	1460.49415083133	2
0	5998	1460.721413377453	1
0	6004	1461.680296772814	0
0	6011	1462.435000604293	1
0	6013	1462.546666278589	0
0	6044	1471.32109722145	1
0	6045	1471.377894423011	0
0	6056	1472.427471588115	1
0	6063	1477.065603115799	0
0	6069	1477.151343135254	1
0	6071	1479.061220182187	2
0	6073	1480.298537527025	3
0	6076	1480.37572553475	2
0	6081	1480.505445036901	1
0	6088	1482.876173961	2
0	6089	1483.158319034167	1
0	6095	1483.21897996411	2
0	6097	1483.509403547751	1
0	6105	1483.864513769819	0
0	6111	1485.26960952696	1
0	6118	1486.707138829656	0
0	6124	1489.264766380492	1
0	6127	1490.052729821077	0
0	6138	1492.620220312302	1
0	6139	1492.772426346072	0
0	6145	1493.50344008636	1
0	6148	1494.287813971617	0
0	6188	1502.801585088217	1
0	6190	1503.894345095529	2
0	6191	1503.984487781507	1
0	6197	1506.666999672069	0
0	6205	1507.110213759578	1
0	6206	1507.840609923835	0
0	6233	1517.124599349443	1
0	6237	1517.783085335206	0
0	6272	1524.077715473094	1
0	6274	1525.699732249413	2
0	6280	1527.433124505096	3
0	6284	1529.351946285227	2
0	6291	1531.410150197701	1
0	6299	1532.504917679158	0
0	6315	1539.029009267399	1
0	6316	1539.058717732241	0
0	6335	1540.387850490246	1
0	6339	1541.043353283945	0
0	6346	1542.630776652825	1
0	6348	1542.797025357334	2
0	6349	1542.971188769171	1
0	6355	1544.260068427747	0
0	6365	1545.117816111704	1
0	6367	1545.225774721166	2
0	6369	1545.342355064985	3
0	6371	1546.640501919631	4
0	6373	1546.683107848657	5
0	6375	1547.044321086234	6
0	6381	1547.733393521546	7
0	6385	1548.653155004189	8
0	6390	1551.374636419104	7
0	6395	1555.141274876412	6
0	6400	1555.143408963529	5
0	6404	1555.185408430711	6
0	6407	1556.240375787303	5
0	6411	1557.181072793964	6
0	6414	1559.197956465995	5
0	6418	1561.309888396703	6
0	6421	1561.803308597717	5
0	6427	1562.132708975261	6
0	6432	1562.442822404981	7
0	6435	1563.227905198066	6
0	6442	1565.532603706526	5
0	6447	1568.62300062684	4
0	6454	1569.283870299793	3
0	6459	1569.555735646724	2
0	6465	1569.572199872626	3
0	6466	1569.779654993105	2
0	6470	1570.035239108966	3
0	6472	1571.561483048469	4
0	6474	1572.274098424978	5
0	6480	1574.266015906961	6
0	6482	1575.284270338056	5
0	6489	1575.723373910656	4
0	6495	1576.765204966874	3
0	6501	1576.797481187569	4
0	6502	1576.932112522421	3
0	6507	1578.485371687802	2
0	6513	1579.278432614119	3
0	6514	1579.336156774466	2
0	6525	1581.720200303587	1
0	6530	1583.283100631669	0
0	6550	1585.414632250518	1
0	6551	1586.943705323925	0
0	6558	1588.856019275126	1
0	6559	1590.821995480454	0
0	6573	1594.515661342852	1
0	6578	1597.343387345785	0
0	6590	1598.335325609307	1
0	6591	1598.624556512302	0
0	6611	1605.02708038601	1
0	6612	1605.191553254998	0
0	6621	1606.170398858132	1
0	6626	1607.803902604629	0
0	6642	1611.299525192662	1
0	6646	1612.85459758139	2
0	6648	1612.881848120934	3
0	6654	1615.86010891661	2
0	6659	1616.138734386044	1
0	6664	1616.195276301487	0
0	6672	1617.429868867641	1
0	6674	1618.881117535502	2
0	6675	1621.091375571009	1
0	6680	1622.0902470593	0
0	6693	1625.462196756295	1
0	6695	1625.805625877832	0
0	6722	1631.993395325253	1
0	6724	1634.169380496315	0
0	6736	1635.674441089686	1
0	6737	1636.136547606395	0
0	6743	1637.170986065746	1
0	6747	1638.39936770495	2
0	6749	1639.087903040388	3
0	6750	1639.748539252717	2
0	6756	1639.844595839437	3
0	6758	1640.395158603761	2
0	6763	1641.078684470875	1
0	6768	1641.091814289532	0
0	6772	1643.065011495168	1
0	6774	1643.462747199374	2
0	6777	1645.669602490756	1
0	6781	1645.682603467339	2
0	6784	1646.442848488326	1
0	6791	1646.822754863773	2
0	6792	1647.564237155883	1
0	6798	1648.321582212712	2
0	6802	1652.666633091136	3
0	6803	1653.199851417707	2
0	6810	1655.022486954053	1
0	6815	1656.021451224874	0
0	6832	1658.383884375317	1
0	6834	1659.194095519452	0
0	6842	1659.552839499461	1
0	6844	1660.998897348747	0
0	6854	1663.759847842576	1
0	6857	1664.944256829168	0
0	6872	1666.97258672502	1
0	6874	1667.277880941808	2
0	6877	1670.939713818547	1
0	6883	1671.737946958391	0
0	6898	1675.354639528684	1
0	6899	1675.699591545415	0
0	6907	1678.126575800353	1
0	6908	1678.145072327888	0
0	6914	1678.644539942346	1
0	6920	1680.642015566394	2
0	6921	1680.694762079342	1
0	6926	1681.160278104588	0
0	6932	1682.145521804805	1
0	6935	1683.834007833037	0
0	6939	1685.311487524944	1
0	6942	1687.532297416613	0
0	6946	1687.557435159002	1
0	6951	1688.84753087472	0
0	6955	1689.757688253178	1
0	6959	1692.417454556149	2
0	6963	1693.141543111536	1
0	6968	1693.821195184893	0
0	6972	1694.16471537784	1
0	6975	1694.746792259801	0
0	7007	1701.281089468998	1
0	7008	1701.33241380068	0
0	7022	1702.093579487292	1
0	7023	1702.748400994826	0
0	7032	1704.303007474808	1
0	7034	1705.169801715938	2
0	7038	1707.124084669005	1
0	7043	1708.199985959505	0
0	7080	1714.81938864191	1
0	7084	1716.710905182524	0
0	7108	1722.304636384132	1
0	7110	1723.219468785564	2
0	7112	1723.287560988229	3
0	7114	1723.805148126967	4
0	7115	1724.603380288889	3
0	7121	1724.94959413903	4
0	7123	1725.49559948314	3
0	7129	1725.688381930903	2
0	7134	1725.760741670137	1
0	7140	1731.12505712014	0
0	7147	1732.041786524993	1
0	7149	1732.109422493165	2
0	7152	1732.653110673023	1
0	7158	1733.386982657503	2
0	7161	1733.863679810039	1
0	7166	1734.166002420384	0
0	7183	1737.141489431136	1
0	7189	1737.473976168201	2
0	7190	1737.638245337859	1
0	7195	1738.469221709665	0
0	7202	1738.970750367298	1
0	7207	1740.314510030531	2
0	7208	1742.595918565115	1
0	7217	1745.082645566835	0
0	7238	1749.857774699426	1
0	7243	1750.676773869862	2
0	7244	1751.191104978607	1
0	7249	1751.450581450803	0
0	7283	1757.162439039977	1
0	7285	1758.01804732558	2
0	7290	1758.775056371564	3
0	7291	1759.159741932266	2
0	7297	1760.344522686693	1
0	7303	1761.04283145748	0
0	7317	1762.481478839119	1
0	7321	1762.896631102815	2
0	7323	1763.555788398065	3
0	7324	1763.695340123952	2
0	7328	1763.820476438133	3
0	7330	1764.238844969573	4
0	7332	1765.106716802308	5
0	7336	1765.770600133122	4
0	7343	1766.410908174665	5
0	7344	1766.790291902343	4
0	7352	1767.594936570445	3
0	7358	1767.604327329563	4
0	7361	1770.019830215719	3
0	7367	1771.083485540941	4
0	7368	1774.392576025494	3
0	7374	1777.026647114446	2
0	7381	1777.984416500331	1
0	7385	1778.097266088227	2
0	7388	1779.26628991364	1
0	7395	1782.371861699953	0
0	7401	1784.898324954183	1
0	7402	1785.077226857726	0
0	7406	1786.362873982569	1
0	7410	1788.216890718915	0
0	7426	1790.377080899243	1
0	7427	1791.00626226938	0
0	7445	1794.16850768181	1
0	7446	1794.235744404342	0
0	7455	1795.109137488942	1
0	7457	1795.200527319994	2
0	7465	1796.292755790115	3
0	7466	1796.561342775527	2
0	7471	1797.349777176159	1
0	7478	1798.599083462504	0
0	7482	1799.665611162405	1
0	7484	1800.291212718859	2
0	7490	1803.982742029883	3
0	7493	1808.698331371433	2
0	7499	1809.520962100949	3
0	7501	1810.527874309949	4
0	7502	1810.950312660605	3
0	7508	1811.24171965182	4
0	7510	1812.224726173887	3
0	7516	1812.384781916845	4
0	7517	1814.203304304592	3
0	7524	1818.026688313371	2
0	7529	1819.543554605425	1
0	7534	1819.923226426431	0
0	7555	1823.094396393399	1
0	7558	1823.752549380672	0
0	7565	1824.241427393672	1
0	7566	1824.66640924824	0
0	7576	1826.677898556556	1
0	7579	1830.528534160761	0
0	7596	1834.420204225605	1
0	7599	1838.25112795557	0
0	7606	1838.780801894863	1
0	7607	1839.108389703159	0
0	7613	1839.157026259381	1
0	7615	1839.161892158476	2
0	7619	1839.527043137324	1
0	7624	1839.650218285819	0
0	7628	1840.172427273798	1
0	7631	1842.29709809301	0
0	7645	1846.741895879796	1
0	7648	1847.785681068623	0
0	7652	1850.451762163987	1
0	7657	1853.197798722329	0
0	7672	1855.968004919974	1
0	7674	1856.046304398314	2
0	7677	1858.139933266106	1
0	7682	1858.262310810462	0
0	7702	1864.423608866582	1
0	7713	1871.342307444076	0
0	7723	1873.480190878205	1
0	7725	1873.709911145697	0
0	7737	1876.534080949038	1
0	7740	1876.910642750705	0
0	7754	1878.108375074246	1
0	7756	1878.518749300075	2
0	7758	1880.242916993186	3
0	7760	1880.357254109628	4
0	7763	1886.202672764788	3
0	7771	1889.971307721705	2
0	7777	1890.896144088056	1
0	7782	1890.922452998422	0
0	7801	1896.502009638976	1
0	7802	1896.567460107658	0
0	7814	1899.827494690613	1
0	7817	1900.821340106158	0
0	7823	1900.825947730382	1
0	7826	1902.413775618991	2
0	7828	1903.505573355804	3
0	7829	1903.954957601532	2
0	7835	1904.155085234739	3
0	7836	1904.312783225576	2
0	7841	1904.54842849514	1
0	7846	1905.191877993846	0
0	7857	1906.737779047073	1
0	7859	1906.921971080156	2
0	7868	1909.64588784313	3
0	7869	1910.082208966313	2
0	7877	1911.530492880313	1
0	7884	1912.712332037164	0
0	7890	1912.79501891653	1
0	7893	1914.141355028421	0
0	7933	1921.454559437689	1
0	7935	1921.686564452578	2
0	7936	1922.148804616823	1
0	7943	1923.311875248518	0
0	7963	1926.877291402202	1
0	7967	1928.420591822952	2
0	7968	1928.719519032611	1
0	7975	1929.235038050102	0
0	7990	1932.20644825186	1
0	7997	1934.335873160139	0
0	8014	1935.957362009643	1
0	8017	1936.840705728939	0
0	8031	1939.541693457223	1
0	8032	1941.746616222026	0
0	8049	1942.617029714938	1
0	8052	1944.277745711149	0
0	8095	1952.010654953965	1
0	8100	1952.988263460148	0
0	8110	1953.691763619788	1
0	8112	1953.906881767995	2
0	8117	1956.585518693905	3
0	8118	1956.948606708813	2
0	8123	1957.331524933569	1
0	8130	1960.370785012882	0
0	8160	1967.981932596495	1
0	8161	1968.644853669637	0
0	8170	1969.474975666092	1
0	8174	1970.737146069668	2
0	8179	1973.377839417461	3
0	8180	1973.749681491736	2
0	8186	1974.996257816181	1
0	8192	1975.856732168512	0
0	8225	1988.722677460814	1
0	8228	1990.347988248852	0
0	8268	1999.290024127587	1
0	8270	2000.129530578848	2
0	8275	2001.906412744798	3
0	8277	2002.041754653259	4
0	8281	2004.193254199841	5
0	8283	2004.512433365476	6
0	8284	2004.871080221877	5
0	8291	2005.090295997162	6
0	8292	2005.331159086679	5
0	8297	2005.547779258927	4
0	8303	2006.291046006459	3
0	8307	2008.467686328247	4
0	8313	2009.64592393284	5
0	8315	2009.712926750122	6
0	8316	2010.955151539169	5
0	8328	2016.345060804609	4
0	8334	2016.697879874689	5
0	8338	2018.1324851381	4
0	8345	2018.904861373384	3
0	8350	2020.118067753944	2
0	8357	2020.995644425549	1
0	8365	2022.378001571235	2
0	8367	2023.355464053591	3
0	8369	2024.404116579288	4
0	8370	2026.710532148922	3
0	8376	2027.52126368233	2
0	8382	2027.631199948228	3
0	8383	2027.968690913184	2
0	8393	2031.486545439049	3
0	8394	2034.343601076353	2
0	8399	2037.100077271539	1
0	8407	2038.79320423481	2
0	8411	2039.8155745733	1
0	8416	2039.830257668428	0
0	8445	2047.620428056501	1
0	8447	2047.939846629191	2
0	8451	2048.254514105543	3
0	8452	2050.480806663985	2
0	8457	2051.041000627042	1
0	8462	2051.205773242353	0
0	8466	2051.375292101368	1
0	8470	2052.283914613473	2
0	8472	2053.093131718617	1
0	8477	2054.257014401731	0
0	8508	2067.141112243077	1
0	8509	2067.763817875406	0
0	8534	2074.241402282896	1
0	8535	2074.687497142073	0
0	8561	2087.788852249369	1
0	8562	2089.376548632555	0
0	8584	2096.625378024745	1
0	8587	2096.944556330347	2
0	8589	2097.441425098895	1
0	8596	2098.063812250106	0
0	8604	2098.741706521465	1
0	8605	2099.61225551564	0
0	8611	2104.177068873059	1
0	8612	2104.981100018952	0
0	8627	2110.233170560826	1
0	8629	2111.210136135184	0
0	8637	2111.297950287976	1
0	8638	2111.403459773149	0
0	8649	2113.200662818962	1
0	8652	2114.092611616734	2
0	8656	2115.775424774986	1
0	8662	2116.715826479881	0
0	8679	2120.158089892704	1
0	8681	2121.221717377418	2
0	8685	2121.678425645897	3
0	8687	2122.6929484495	4
0	8689	2122.861073841367	5
0	8690	2123.64527426756	4
0	8696	2124.183613486092	3
0	8703	2125.319761586252	2
0	8708	2125.473264890997	1
0	8713	2127.261491622559	0
0	8717	2127.458258195016	1
0	8722	2128.565298353061	2
0	8723	2129.06629749142	1
0	8731	2131.412812100929	0
0	8768	2138.347879843438	1
0	8771	2139.751217095667	0
0	8778	2141.361451837273	1
0	8779	2142.393428232847	0
0	8794	2144.7927072025	1
0	8796	2145.267280325556	0
0	8810	2147.289643256464	1
0	8813	2148.780704565823	0
0	8835	2152.500672511816	1
0	8837	2152.84637514807	2
0	8840	2153.19378001169	1
0	8847	2155.455387068992	0
0	8860	2160.203599862114	1
0	8862	2161.332147008351	2
0	8863	2163.326567700694	1
0	8869	2163.413597390981	0
0	8905	2177.138827117094	1
0	8907	2177.827418347584	2
0	8908	2178.206333039207	1
0	8914	2178.384935525963	2
0	8916	2178.522265820165	1
0	8925	2179.804651272241	0
0	8945	2183.062619585097	1
0	8946	2183.16966116659	0
0	8952	2183.923975637606	1
0	8954	2184.472937275619	0
0	8972	2187.331816056909	1
0	8975	2187.889484904972	0
0	8989	2190.629278217942	1
0	8991	2190.658000080203	0
0	9024	2203.670746145108	1
0	9026	2203.697767632519	2
0	9028	2206.442432712626	3
0	9030	2207.74991250127	4
0	9032	2208.209520819925	5
0	9034	2208.353396593549	6
0	9035	2210.520554700619	5
0	9041	2211.176638751276	6
0	9043	2213.358964141688	7
0	9045	2213.453129524151	8
0	9048	2214.773677744684	7
0	9053	2215.632787865232	6
0	9057	2215.946905340035	7
0	9062	2216.225902921423	6
0	9072	2218.501315287921	5
0	9079	2219.116672681886	4
0	9086	2220.896497554228	3
0	9092	2222.289655837227	2
0	9097	2222.332666653931	1
0	9103	2224.503733042996	0
0	9130	2230.187933881158	1
0	9131	2230.299343982102	0
0	9143	2233.013914420512	1
0	9144	2233.855835250462	0
0	9151	2234.200305133947	1
0	9152	2235.309356964914	0
0	9171	2235.928702717462	1
0	9174	2236.431258084804	0
0	9196	2242.225547835594	1
0	9200	2244.734146835359	2
0	9204	2246.002935595641	1
0	9209	2246.051360826385	0
0	9228	2248.666625195417	1
0	9230	2249.261322089253	2
0	9231	2249.306482364588	1
0	9240	2251.692924767482	0
0	9258	2254.670982406699	1
0	9259	2254.793202782383	0
0	9265	2256.713036179261	1
0	9267	2257.12193097977	2
0	9272	2260.7399767959	1
0	9283	2264.267572140096	2
0	9285	2264.739132739089	3
0	9287	2265.209584299041	4
0	9289	2265.43965301899	5
0	9295	2268.576319910791	4
0	9301	2269.422682924474	3
0	9306	2270.153777929951	2
0	9311	2270.202953727421	1
0	9319	2271.815973143574	0
0	9336	2273.871161544407	1
0	9338	2276.724755941696	0
0	9344	2276.732925285412	1
0	9346	2276.975466236816	2
0	9349	2277.599680501226	1
0	9354	2278.1588032389	0
0	9363	2280.491007091453	1
0	9367	2281.2995608099	0
0	9379	2283.078978939656	1
0	9380	2283.77484317309	0
0	9396	2289.600569411293	1
0	9403	2292.193437939309	0
0	9412	2293.949590289929	1
0	9415	2294.53566178201	0
0	9422	2294.650320548843	1
0	9424	2294.813425964302	2
0	9426	2296.265248013001	3
0	9428	2297.035866760945	2
0	9434	2297.088342519808	3
0	9439	2298.162818398358	2
0	9445	2299.864852256383	1
0	9450	2300.175519093637	0
0	9456	2300.206311757291	1
0	9457	2300.427242024472	0
0	9463	2302.745457593485	1
0	9465	2303.557023473622	2
0	9471	2305.655432990594	3
0	9477	2307.64530048945	4
0	9478	2308.042290389865	3
0	9485	2308.642370861892	4
0	9487	2309.105758129924	5
0	9488	2309.144489306044	4
0	9493	2309.737182793425	3
0	9498	2310.380217435458	2
0	9502	2311.732532267511	3
0	9513	2315.152232232332	2
0	9519	2315.375323227401	3
0	9521	2316.117836817695	4
0	9523	2317.251180744675	3
0	9528	2317.368021381635	2
0	9533	2317.550104783824	1
0	9538	2318.840822599932	0
0	9549	2324.343332918141	1
0	9554	2327.151574042756	2
0	9556	2327.603836316773	3
0	9557	2327.912029149037	2
0	9563	2328.167221003288	1
0	9568	2329.089051507855	0
0	9579	2333.040568156464	1
0	9580	2334.142154554919	0
0	9590	2336.14116937548	1
0	9592	2336.2054672442	2
0	9593	2336.318205063081	1
0	9597	2339.395955056698	2
0	9606	2340.340638195393	1
0	9612	2341.677591067846	0
0	9623	2342.314933244759	1
0	9625	2342.344685401165	2
0	9630	2342.56474962622	3
0	9631	2342.750767657802	2
0	9636	2343.228635048435	1
0	9641	2343.580319102461	0
0	9663	2349.954079795552	1
0	9669	2350.669634311659	2
0	9671	2351.73174710815	3
0	9673	2351.879221789929	4
0	9675	2352.021434736028	5
0	9676	2352.34340701045	4
0	9682	2354.736303117258	5
0	9685	2354.981975231329	4
0	9689	2355.237420401849	5
0	9692	2355.743034657108	4
0	9697	2357.028058832	3
0	9701	2357.205055775109	4
0	9706	2358.521733481788	5
0	9708	2358.833131124782	4
0	9714	2358.836584063895	5
0	9716	2358.94865123052	6
0	9717	2359.322760632804	5
0	9725	2362.054211023361	6
0	9729	2363.127335856271	5
0	9736	2363.681361445929	4
0	9742	2364.242237392915	3
0	9747	2364.546370831605	2
0	9754	2365.079274773471	3
0	9755	2365.313837163618	2
0	9760	2365.506341469608	1
0	9766	2365.795431832493	2
0	9767	2367.20443801321	1
0	9771	2367.28212822324	2
0	9775	2367.809971303469	3
0	9778	2368.86149697333	2
0	9782	2369.676830415669	3
0	9786	2369.992732206007	4
0	9787	2370.095693157328	3
0	9791	2373.389618032171	4
0	9795	2375.227435154074	3
0	9800	2376.099934682111	2
0	9805	2377.329600784145	1
0	9812	2378.298763717205	2
0	9814	2378.594341683881	3
0	9820	2381.543006221166	2
0	9825	2381.547496982751	1
0	9830	2381.738611325175	0
0	9856	2384.228134684572	1
0	9857	2384.434122129444	0
0	9870	2387.205631585722	1
0	9872	2389.036392741551	0
0	9899	2391.565209611984	1
0	9901	2392.528691662977	0
0	9925	2396.971229657499	1
0	9927	2398.889374376206	2
0	9929	2399.862270995755	3
0	9933	2402.518816606425	2
0	9938	2402.592225331166	1
0	9943	2402.62628549751	0
0	9954	2403.733001315608	1
0	9958	2404.222096712258	2
0	9962	2404.632316251639	1
0	9967	2408.749077261106	0
0	10001	2414.467310679644	1
0	10002	2415.250806931466	0
0	10011	2416.894378156284	1
0	10015	2417.053391190187	2
0	10017	2417.490227594544	3
0	10019	2417.511501609994	4
0	10020	2417.516704780152	3
0	10027	2417.917356261897	2
0	10032	2418.434699746036	1
0	10038	2421.798782097819	0
0	10063	2424.495554788521	1
0	10068	2425.414957860229	0
0	10077	2425.789465059046	1
0	10083	2429.457127533506	0
0	10092	2430.353540050606	1
0	10100	2432.451591971706	0
0	10107	2432.688104713664	1
0	10109	2437.058376547123	0
0	10116	2438.595785752499	1
0	10120	2439.843614065932	2
0	10121	2439.868572811401	1
0	10128	2440.767387291677	0
0	10135	2441.04057474735	1
0	10137	2442.26603454537	2
0	10138	2442.705865649691	1
0	10143	2442.893851516064	0
0	10149	2444.346386817074	1
0	10150	2444.360308479195	0
0	10156	2447.199775268577	1
0	10159	2449.005942044939	0
0	10173	2454.421454504441	1
0	10177	2455.826584000922	0
0	10190	2456.23012907491	1
0	10193	2457.83078807294	0
0	10214	2461.484174565855	1
0	10218	2463.762120533257	0
0	10244	2469.851449374425	1
0	10247	2470.858995827888	0
0	10278	2474.770029896365	1
0	10281	2475.646131775179	0
0	10303	2481.646787885375	1
0	10304	2482.608695513539	0
0	10319	2484.346549762998	1
0	10321	2484.845631089338	2
0	10324	2485.827481677033	1
0	10333	2488.421157239939	2
0	10335	2488.555976618637	3
0	10336	2489.210631802738	2
0	10341	2489.778420787854	1
0	10347	2490.824905132543	2
0	10348	2490.973673663044	1
0	10359	2494.081790716371	0
0	10380	2499.040107383436	1
0	10381	2499.2399221159	0
0	10387	2499.254410856242	1
0	10389	2499.280660412589	2
0	10391	2499.530776595543	3
0	10393	2499.992534218377	4
0	10396	2500.969143071894	3
0	10402	2501.36539328843	4
0	10408	2502.471498583527	3
0	10419	2503.459731932495	2
0	10423	2503.837104022874	3
0	10426	2504.301922289369	2
0	10434	2511.647723283631	3
0	10438	2512.171687910155	2
0	10445	2512.566968143914	1
0	10451	2513.68246430926	0
0	10469	2517.748011517539	1
0	10471	2517.785992346156	2
0	10472	2518.328312028519	1
0	10478	2520.344213633288	0
0	10487	2521.004584665386	1
0	10490	2521.946667977475	0
0	10539	2532.478826163084	1
0	10540	2532.481690519808	0
0	10558	2537.15276341223	1
0	10559	2537.283593480142	0
0	10579	2541.965447905882	1
0	10584	2543.110412340192	2
0	10588	2544.221222642201	1
0	10594	2545.141422698378	0
0	10600	2546.394724169839	1
0	10601	2546.843493672992	0
0	10612	2548.632204422986	1
0	10614	2549.033181916208	2
0	10615	2549.423489018396	1
0	10620	2549.536944148219	0
0	10626	2550.463515553283	1
0	10627	2550.501472095865	0
0	10633	2550.978154546144	1
0	10636	2551.183534854364	2
0	10638	2553.161120124122	1
0	10643	2553.754420072926	0
0	10657	2555.54562766806	1
0	10664	2559.568170206849	0
0	10670	2560.469580194196	1
0	10672	2561.174248397495	2
0	10673	2561.491272532812	1
0	10678	2562.323602693397	0
0	10707	2565.972472647125	1
0	10709	2566.615956753732	0
0	10715	2566.745150326956	1
0	10717	2567.633729795962	0
0	10741	2569.489716485646	1
0	10743	2571.601488458686	2
0	10747	2573.755219438427	1
0	10752	2574.853115394395	0
0	10792	2583.220230521451	1
0	10796	2583.663423912752	2
0	10799	2585.282218724841	1
0	10804	2585.305604888901	0
0	10810	2585.946415851991	1
0	10811	2586.424773903925	0
0	10869	2608.556753718432	1
0	10872	2610.315235063244	0
0	10899	2624.335119272166	1
0	10902	2625.72912718304	2
0	10907	2630.895060292544	1
0	10912	2631.746386984265	0
0	10942	2638.981259404376	1
0	10947	2639.89764577273	2
0	10948	2640.990681064268	1
0	10954	2641.085493446717	2
0	10956	2641.301366253656	1
0	10962	2641.624979722774	2
0	10964	2642.863482888718	1
0	10976	2643.714095469561	2
0	10980	2645.36503211728	1
0	10985	2645.417480913992	0
0	10993	2646.293011360066	1
0	10996	2648.502626622884	0
0	11019	2651.709793401084	1
0	11021	2652.043203119552	2
0	11022	2652.056670285456	1
0	11029	2652.351364453377	0
0	11037	2653.948716163165	1
0	11038	2654.009662851261	0
0	11044	2654.371141690966	1
0	11048	2655.005111396736	2
0	11053	2656.259940064314	1
0	11059	2657.978608981273	0
0	11080	2660.436966499082	1
0	11082	2661.190101927033	2
0	11083	2661.297237551749	1
0	11088	2661.373100883957	0
0	11098	2664.669338082489	1
0	11102	2668.653461539813	2
0	11109	2669.673368259094	3
0	11115	2672.467876402587	2
0	11123	2673.376032618742	1
0	11133	2676.592719286538	0
0	11145	2678.571610235115	1
0	11146	2679.257758937547	0
0	11152	2679.521990567329	1
0	11153	2680.585832047098	0
0	11157	2683.492474432776	1
0	11159	2684.04586422511	2
0	11164	2684.830420347931	1
0	11169	2685.56785655099	0
0	11192	2688.017276915002	1
0	11193	2688.326470198861	0
0	11205	2690.815248502942	1
0	11207	2692.63425667465	2
0	11211	2693.621342744362	3
0	11212	2698.425968082636	2
0	11217	2698.663363090626	1
0	11222	2698.977877305484	0
0	11230	2702.202762504924	1
0	11233	2705.059485795243	0
0	11237	2705.443401599744	1
0	11241	2705.793652124808	2
0	11246	2706.887858006498	1
0	11256	2712.003818852505	0
0	11267	2713.210818157328	1
0	11270	2713.867682595612	2
0	11272	2714.181200594219	3
0	11273	2714.208385276079	2
0	11283	2716.424932572327	3
0	11286	2717.700042940532	2
0	11291	2718.012759996617	1
0	11297	2718.592942376293	2
0	11298	2719.250070330808	1
0	11304	2720.324043556095	2
0	11308	2722.075156281001	1
0	11319	2729.474836435259	2
0	11321	2729.924082925319	3
0	11326	2730.569820619739	4
0	11329	2730.901311842898	3
0	11337	2731.637109226575	2
0	11343	2732.18653968961	1
0	11348	2732.512456479519	0
0	11365	2735.167337808869	1
0	11369	2736.185739254131	2
0	11371	2739.541645996913	3
0	11373	2740.069361687346	4
0	11374	2740.815529289666	3
0	11379	2740.816218080294	2
0	11385	2741.343748866257	3
0	11387	2741.516152167246	2
0	11392	2742.186924361915	1
0	11399	2745.732402142859	0
0	11410	2746.474714525698	1
0	11411	2746.74934134737	0
0	11431	2755.163566390968	1
0	11434	2760.626820258112	0
0	11458	2769.328516017193	1
0	11463	2771.20779096011	0
0	11469	2771.57545587296	1
0	11470	2771.757819110224	0
0	11481	2773.393349492093	1
0	11482	2774.525428429724	0
0	11497	2775.750263154359	1
0	11500	2776.837511976981	0
0	11527	2782.139932684083	1
0	11530	2786.079433745226	2
0	11531	2788.32461761484	1
0	11536	2788.417986806861	0
0	11594	2798.775845429994	1
0	11596	2798.995434718404	2
0	11597	2799.398902717472	1
0	11603	2800.221757710089	0
0	11621	2802.587645724593	1
0	11622	2803.017233067685	0
0	11635	2806.3377459409	1
0	11637	2806.905536301397	0
0	11648	2808.375281158327	1
0	11650	2809.19841956537	0
0	11684	2815.448150522092	1
0	11685	2815.631846459732	0
0	11692	2817.021344973101	1
0	11693	2817.046253456692	0
0	11709	2820.330330234203	1
0	11710	2823.444456063999	0
0	11735	2829.240466401103	1
0	11736	2829.561437514966	0
0	11767	2839.225434749439	1
0	11773	2842.302854584199	0
0	11793	2844.83621052824	1
0	11797	2846.452027758576	2
0	11799	2847.477654877464	3
0	11800	2848.657626201575	2
0	11807	2848.790685542246	3
0	11810	2849.76303299805	2
0	11815	2850.677433916405	1
0	11824	2852.56845383019	0
0	11847	2857.960971504505	1
0	11850	2859.252297089622	0
0	11871	2862.928691291164	1
0	11873	2863.631759076692	2
0	11875	2863.722653294634	3
0	11876	2864.695897834683	2
0	11882	2865.130854584813	1
0	11887	2865.660207297099	0
0	11900	2870.711296923768	1
0	11904	2872.721567194019	0
0	11910	2873.112659955709	1
0	11911	2873.116338669246	0
0	11922	2875.287309492228	1
0	11925	2878.040897356109	0
0	11970	2892.235689663855	1
0	11972	2892.336251189084	2
0	11973	2892.887034689	1
0	11980	2894.148771756412	2
0	11981	2894.53277885354	1
0	11986	2894.692236443678	0
0	11993	2896.464227970974	1
0	11996	2896.852373062837	2
0	11999	2897.156238581656	1
0	12004	2897.282517707811	0
0	12078	2922.856370225919	1
0	12079	2922.986364995968	0
0	12085	2924.281382874568	1
0	12089	2924.453573882957	2
0	12093	2926.046758914105	1
0	12101	2929.976038500235	0
0	12137	2938.532892825057	1
0	12138	2938.853248148102	0
0	12144	2939.490089408031	1
0	12146	2940.688052770847	0
0	12152	2940.943414140314	1
0	12153	2941.528606780415	0
0	12157	2941.773413445482	1
0	12159	2941.963725461831	2
0	12162	2943.709505344885	1
0	12166	2944.787104270471	2
0	12168	2946.183218854315	3
0	12174	2948.41447912684	4
0	12176	2950.045897081835	5
0	12179	2950.907344778334	4
0	12187	2951.493197724287	5
0	12188	2951.588953616426	4
0	12194	2951.801571299601	5
0	12196	2952.47440006805	6
0	12197	2952.731526783276	5
0	12201	2953.125555622618	6
0	12205	2953.838941610054	7
0	12206	2954.613574118192	6
0	12210	2958.501596906825	7
0	12215	2962.48064855941	8
0	12219	2963.438890298784	7
0	12229	2966.943170415112	6
0	12235	2968.520674248284	5
0	12243	2970.787107057547	4
0	12251	2971.30113482215	3
0	12259	2972.216289616647	4
0	12261	2972.41394930372	5
0	12262	2972.7059989533	4
0	12267	2973.300960890478	3
0	12274	2974.145020065346	2
0	12280	2975.378471712932	1
0	12286	2976.125273355575	0
0	12302	2978.078993695434	1
0	12304	2978.290666955981	2
0	12308	2979.410795435295	1
0	12313	2979.417588642825	0
0	12332	2984.378308614252	1
0	12333	2986.031890102657	0
0	12352	2990.656604005299	1
0	12354	2991.559013163133	2
0	12355	2992.100248941253	1
0	12361	2993.948448456241	0
0	12370	2994.679444442478	1
0	12374	2995.731133168829	2
0	12376	2998.119357206676	3
0	12380	2999.959330703115	2
0	12385	3000.367993667874	1
0	12390	3000.494890927986	0
0	12394	3000.803463726124	1
0	12398	3002.03395393789	2
0	12402	3003.97941054202	1
0	12407	3005.322374393406	0
0	12419	3007.60984391185	1
0	12420	3007.633857279137	0
0	12432	3010.766337552172	1
0	12435	3011.875164505196	2
0	12436	3011.881927550836	1
0	12441	3012.199694325017	0
0	12447	3012.896643078154	1
0	12449	3013.626643660649	0
0	12455	3015.718609972957	1
0	12457	3016.756261300567	0
0	12474	3018.909333554413	1
0	12476	3020.912727801672	0
0	12491	3022.216924704804	1
0	12495	3024.437847894539	2
0	12500	3026.478575119983	1
0	12507	3027.121816871777	2
0	12508	3027.2727819359	1
0	12513	3028.241573023466	0
0	12538	3036.446191650229	1
0	12540	3036.510050328356	2
0	12541	3036.537982534121	1
0	12546	3037.324773448854	0
0	12558	3038.772670469087	1
0	12559	3039.442453111219	0
0	12570	3042.393108542052	1
0	12574	3043.94098871252	2
0	12578	3045.34969295592	1
0	12583	3045.828041729091	0
0	12589	3045.833508367524	1
0	12594	3047.173221878884	0
0	12606	3049.368751306343	1
0	12607	3049.43940620667	0
0	12616	3050.264032093862	1
0	12617	3051.180711430553	0
0	12623	3051.317845914248	1
0	12627	3053.568897297737	0
0	12649	3055.028309531788	1
0	12659	3060.507194219041	0
0	12674	3062.426885538241	1
0	12675	3062.551326715074	0
0	12700	3067.582227731216	1
0	12701	3069.095712294229	0
0	12736	3080.687963307485	1
0	12744	3083.67943936819	2
0	12745	3084.700128067184	1
0	12750	3085.018343807163	0
0	12756	3085.116441538781	1
0	12757	3086.324174840651	0
0	12763	3086.38582285067	1
0	12766	3088.538630519085	0
0	12776	3095.018936007184	1
0	12779	3097.370065493381	0
0	12793	3103.296665580922	1
0	12796	3103.761093658945	0
0	12802	3104.525916104335	1
0	12803	3104.737334758443	0
0	12807	3105.993373393185	1
0	12811	3106.925214216094	2
0	12812	3108.602470781963	1
0	12818	3109.194233009397	2
0	12819	3110.543163514832	1
0	12828	3111.166428814925	0
0	12834	3112.586374820035	1
0	12835	3112.734848165362	0
0	12855	3116.793232090142	1
0	12857	3117.119770770855	2
0	12858	3117.180834722619	1
0	12864	3117.521048154988	0
0	12878	3122.130304951314	1
0	12880	3122.35765173934	2
0	12882	3123.60726391645	3
0	12886	3124.138021655718	4
0	12892	3125.993526684515	5
0	12894	3127.682818717938	6
0	12896	3127.89546933492	7
0	12897	3128.14859933957	6
0	12904	3128.653581073165	5
0	12910	3129.733362673942	6
0	12912	3129.915834779668	7
0	12914	3130.40714792646	8
0	12915	3130.639913569308	7
0	12920	3130.769437198866	6
0	12924	3130.781061420649	7
0	12927	3132.802282256667	6
0	12932	3134.263379450114	5
0	12936	3134.517906752965	6
0	12939	3137.678262986147	5
0	12947	3139.150434566122	6
0	12950	3139.369991772353	7
0	12952	3140.118702308411	8
0	12953	3140.149670059636	7
0	12959	3140.166339832741	8
0	12960	3141.510195665905	7
0	12965	3144.755085635793	6
0	12972	3147.928203159263	7
0	12978	3149.301095323509	6
0	12983	3149.480759738095	5
0	12988	3149.998977058254	4
0	12994	3151.949928467129	5
0	12999	3152.556935220826	4
0	13004	3152.670749533328	3
0	13012	3153.592063309269	4
0	13014	3153.681778037924	5
0	13017	3155.951297594739	4
0	13022	3156.029985702566	3
0	13028	3157.046594476101	2
0	13034	3158.128804700259	1
0	13039	3158.293469821218	0
0	13056	3164.406660745315	1
0	13060	3164.906748808881	2
0	13066	3166.749280878384	1
0	13072	3167.105254366917	0
0	13084	3168.581773140443	1
0	13086	3169.369042810558	2
0	13089	3170.506907618253	1
0	13095	3172.829860782566	0
0	13106	3173.429902664355	1
0	13107	3173.461371254108	0
0	13117	3173.704948255358	1
0	13123	3174.947447784811	0
0	13135	3176.587821926001	1
0	13139	3178.187344014766	2
0	13140	3179.571915973035	1
0	13145	3180.020301715262	0
0	13151	3180.092327870187	1
0	13152	3180.099081314466	0
0	13169	3186.866859666378	1
0	13173	3187.39255376168	2
0	13175	3187.418813314636	3
0	13176	3187.675675194774	2
0	13181	3187.98336910455	1
0	13187	3188.350655807072	2
0	13189	3188.531952449926	3
0	13192	3188.861737184451	2
0	13198	3190.066457399973	1
0	13204	3193.283569908922	0
0	13211	3193.818006418659	1
0	13215	3194.934716196854	2
0	13218	3196.209104751592	3
0	13220	3199.720065631072	4
0	13223	3202.053954311927	3
0	13231	3203.277610236714	2
0	13237	3203.386237929003	3
0	13238	3203.651771955107	2
0	13243	3204.518617038128	1
0	13248	3205.032403728081	0
0	13252	3205.825577398279	1
0	13256	3206.965439561838	2
0	13258	3208.252094242692	1
0	13267	3209.369135770193	2
0	13268	3209.532039459837	1
0	13275	3210.251740249726	2
0	13276	3210.48317963386	1
0	13281	3210.501719732953	0
0	13310	3222.109699270329	1
0	13312	3222.438805423055	2
0	13314	3222.640293860796	3
0	13317	3226.8950626606	2
0	13322	3227.169505031197	1
0	13328	3227.212673629322	2
0	13329	3227.225818646353	1
0	13333	3227.558705096835	2
0	13336	3228.476380966041	1
0	13341	3229.269698802555	0
0	13351	3231.978599813204	1
0	13353	3232.880616191991	2
0	13355	3233.080801233504	3
0	13358	3233.119253952064	2
0	13363	3234.399894980235	1
0	13367	3234.627807805502	2
0	13371	3235.830177116823	3
0	13373	3236.13277099836	4
0	13374	3236.490223820044	3
0	13382	3238.79969258247	4
0	13385	3239.365348366589	3
0	13391	3241.779103162595	4
0	13392	3242.50453039497	3
0	13397	3243.70084334133	2
0	13406	3246.256447456346	1
0	13412	3246.268904831613	2
0	13416	3250.943417638629	1
0	13423	3251.35972953151	2
0	13424	3251.882163195659	1
0	13432	3252.713539855237	0
0	13444	3253.584377935506	1
0	13445	3254.100513252451	0
0	13465	3257.959507635702	1
0	13470	3259.300048206744	0
0	13524	3269.532708462846	1
0	13525	3269.920916195806	0
0	13540	3271.716996591131	1
0	13542	3271.776159858518	2
0	13546	3273.571641122398	1
0	13552	3274.536003800205	0
0	13559	3274.746320493887	1
0	13560	3274.886308477996	0
0	13585	3278.605456225656	1
0	13588	3282.016385886066	0
0	13595	3284.308267587316	1
0	13598	3285.015679062937	0
0	13610	3285.690443105473	1
0	13612	3286.932789523409	2
0	13614	3287.683928112782	3
0	13618	3288.204196245287	4
0	13619	3288.219786478057	3
0	13626	3288.936308607345	2
0	13632	3289.987099856845	3
0	13642	3293.211541989201	2
0	13648	3293.608881816805	1
0	13654	3294.919525240035	0
0	13679	3298.348993802236	1
0	13683	3298.931887926107	2
0	13688	3300.268476776385	1
0	13693	3300.395203554866	0
0	13707	3303.78389503959	1
0	13713	3306.816946662075	0
0	13719	3307.376943720011	1
0	13720	3307.934520120453	0
0	13726	3308.484622961396	1
0	13727	3309.076548439638	0
0	13731	3310.169042386355	1
0	13733	3310.177453690344	2
0	13737	3312.443674229237	1
0	13743	3312.549535283763	2
0	13746	3313.359769685269	3
0	13748	3313.770390567614	4
0	13753	3315.483543097095	5
0	13754	3315.897015162755	4
0	13759	3316.546404661645	3
0	13764	3317.543182524272	2
0	13771	3319.13660994361	1
0	13784	3322.00633722306	2
0	13785	3322.079503776579	1
0	13790	3322.204328620516	0
0	13796	3323.692130225845	1
0	13797	3324.241542341425	0
0	13803	3328.937307464754	1
0	13804	3330.03938598827	0
0	13808	3332.740848802045	1
0	13810	3334.340971335952	2
0	13816	3337.3277720956	1
0	13822	3341.004078399361	0
0	13840	3342.810310140674	1
0	13841	3342.860514410121	0
0	13847	3342.876395188576	1
0	13848	3343.7469468821	0
0	13858	3345.183556072239	1
0	13862	3348.439760926369	0
0	13868	3349.171599602251	1
0	13870	3350.42888220598	0
0	13886	3352.399226141278	1
0	13890	3353.218527263401	2
0	13896	3354.599732278557	3
0	13899	3356.303089502772	2
0	13905	3356.395542453828	3
0	13907	3357.176333021283	2
0	13914	3359.533261801492	1
0	13919	3360.458565808399	0
0	13923	3360.939920935385	1
0	13926	3361.51592688643	0
0	13930	3362.207532163209	1
0	13940	3366.053996315662	0
0	13951	3366.926825342982	1
0	13952	3368.397884784921	0
0	13956	3368.478923924829	1
0	13959	3369.093398513574	0
0	13977	3371.384157345827	1
0	13982	3372.566333373065	0
0	13997	3375.322041268815	1
0	14000	3376.722099354422	0
0	14012	3377.657673862357	1
0	14014	3377.724760910132	2
0	14017	3378.21180947394	1
0	14022	3378.46214999302	0
0	14046	3381.543602497481	1
0	14051	3383.867726352647	0
0	14069	3386.973020139665	1
0	14073	3388.819543895408	2
0	14077	3390.856948325832	3
0	14078	3393.778333115414	2
0	14085	3393.838547791167	1
0	14091	3395.546152231639	0
0	14108	3397.99574303076	1
0	14113	3399.883923836338	0
0	14120	3402.476343506203	1
0	14121	3404.104141355443	0
0	14149	3408.433644234227	1
0	14150	3409.301304793577	0
0	14159	3410.082317685456	1
0	14165	3411.803740432446	0
0	14185	3415.743389697034	1
0	14187	3417.224310477696	2
0	14188	3417.788405001977	1
0	14193	3417.793870521871	0
0	14229	3432.51726059091	1
0	14233	3432.930642075543	2
0	14234	3433.333164433969	1
0	14239	3433.334785759253	0
0	14249	3435.960452178824	1
0	14253	3436.372438837048	2
0	14255	3436.801572912457	3
0	14259	3437.97306190574	4
0	14261	3438.905590675504	3
0	14266	3439.242955274247	2
0	14273	3439.977890811758	3
0	14275	3440.014092749965	4
0	14279	3441.31688574183	5
0	14280	3442.07493205631	4
0	14288	3444.141297474691	3
0	14294	3444.158219631331	4
0	14296	3444.943378643306	3
0	14302	3445.344612458203	2
0	14310	3446.378985332966	3
0	14312	3446.422517087751	4
0	14313	3446.926050699912	3
0	14321	3447.87989528978	2
0	14326	3447.89779142013	1
0	14332	3448.831961766787	2
0	14334	3453.248444116999	3
0	14336	3455.883467004799	4
0	14337	3456.922774861071	3
0	14342	3459.02596111626	2
0	14348	3459.614923499483	1
0	14353	3460.41390753282	0
0	14361	3461.856919681013	1
0	14365	3462.916110229114	2
0	14366	3463.128708099389	1
0	14371	3463.2021941237	0
0	14383	3464.147009640311	1
0	14385	3465.083307865156	0
0	14397	3466.530916614682	1
0	14399	3468.01005097561	2
0	14400	3468.055089306093	1
0	14405	3468.896095527375	0
0	14414	3470.828823518453	1
0	14419	3473.818141809932	0
0	14432	3476.000663971531	1
0	14436	3476.54484705097	0
0	14447	3477.13968614776	1
0	14452	3477.643282836564	2
0	14455	3480.573736927091	1
0	14460	3480.624860596987	0
0	14477	3486.519993875982	1
0	14480	3487.414910415825	0
0	14494	3489.407736883976	1
0	14495	3490.941267319889	0
0	14504	3491.863399223827	1
0	14506	3492.681308032851	2
0	14509	3492.935991256029	1
0	14517	3494.131164678687	0
0	14560	3506.777241589921	1
0	14562	3507.324567485358	2
0	14564	3509.225734373753	3
0	14565	3509.828052066841	2
0	14570	3509.983124523245	1
0	14577	3510.230638649523	0
0	14595	3512.84364098587	1
0	14596	3514.930485398527	0
0	14608	3518.381156221983	1
0	14611	3521.346809736132	0
0	14621	3524.125630733513	1
0	14623	3524.372939588507	2
0	14624	3524.480961247268	1
0	14631	3524.784044974379	2
0	14636	3526.17303900204	1
0	14644	3527.077307172167	2
0	14646	3528.755972996429	1
0	14652	3529.738103281232	0
0	14658	3530.207491129941	1
0	14660	3530.51290801124	0
0	14688	3534.592740833922	1
0	14690	3536.356161410194	0
0	14718	3543.48974016545	1
0	14719	3544.15368249993	0
0	14727	3544.317648474688	1
0	14730	3544.765134181602	0
0	14758	3549.497214685514	1
0	14760	3549.546261904044	2
0	14761	3549.780331518781	1
0	14766	3549.848484188404	0
0	14775	3550.536406109812	1
0	14779	3551.159586081706	2
0	14780	3551.885603926917	1
0	14786	3551.948674231582	2
0	14787	3552.122246624858	1
0	14796	3556.202676431607	2
0	14797	3556.871434624285	1
0	14804	3558.020763210445	2
0	14807	3559.055568512551	1
0	14814	3559.683195217789	2
0	14815	3560.200152276228	1
0	14820	3560.223370973409	0
0	14826	3560.554437059169	1
0	14827	3560.820888432878	0
0	14831	3561.066711232399	1
0	14837	3562.595341104562	0
0	14843	3563.031315317986	1
0	14844	3563.252146658587	0
0	14861	3565.368241493493	1
0	14862	3566.131303055723	0
0	14872	3566.952048071542	1
0	14878	3570.683324497342	0
0	14885	3571.774673623176	1
0	14889	3573.139781234429	0
0	14909	3575.788197822702	1
0	14916	3578.102503864003	2
0	14917	3578.452053536292	1
0	14923	3579.870268794142	0
0	14937	3582.594792086066	1
0	14950	3589.825263965355	0
0	14956	3590.179180563485	1
0	14958	3591.48232471901	0
0	14965	3592.229177906587	1
0	14966	3592.51824882721	0
0	14972	3592.802258019491	1
0	14975	3593.668122269673	2
0	14976	3593.819595666948	1
0	14981	3593.904629936074	0
0	14987	3595.463634505006	1
0	14988	3595.909566608862	0
0	15000	3599.933594440799	1
0	15002	3601.909091023172	0
0	15010	3602.666406734054	1
0	15011	3602.842522058391	0
0	15031	3606.13941981795	1
0	15034	3606.7903144783	0
0	15056	3614.216443145133	1
0	15058	3614.434824781295	2
0	15061	3616.224885361314	1
0	15067	3618.980999119792	0
0	15094	3623.987386829353	1
0	15095	3623.987779918048	0
0	15108	3625.333436644432	1
0	15113	3626.319386430184	2
0	15116	3630.374863221048	3
0	15117	3630.611823733773	2
0	15122	3630.780744993972	1
0	15128	3630.959364455498	2
0	15129	3631.33888395788	1
0	15133	3632.189913892231	2
0	15136	3635.231019426578	1
0	15142	3635.740621009726	0
0	15171	3642.730658046695	1
0	15172	3644.734370422853	0
0	15186	3647.093575979294	1
0	15187	3647.502080309001	0
0	15234	3664.475354418671	1
0	15236	3664.802019521948	2
0	15237	3665.156761900121	1
0	15243	3667.946827096247	2
0	15244	3668.774668046273	1
0	15250	3670.11241550741	2
0	15251	3670.237282235997	1
0	15256	3672.343304479419	0
0	15278	3675.015134067397	1
0	15279	3675.183778736461	0
0	15341	3688.9133803168	1
0	15342	3690.357706284034	0
0	15349	3690.907777798467	1
0	15351	3691.271142024904	2
0	15352	3691.637341445812	1
0	15358	3692.133724665279	0
0	15514	3743.811801267246	1
0	15517	3744.676009640331	0
0	15544	3754.451274551472	1
0	15545	3754.913367403368	0
0	15585	3771.78017993429	1
0	15587	3772.242411994499	0
0	15593	3774.630272355084	1
0	15594	3775.526721419325	0
0	15625	3783.308719707891	1
0	15628	3784.805911283848	2
0	15632	3787.790966511938	3
0	15636	3789.278471615309	4
0	15637	3789.507057879118	3
0	15642	3789.630236331647	2
0	15647	3790.495709988933	1
0	15652	3791.675952406624	0
0	15658	3792.306518955099	1
0	15659	3792.796831844329	0
0	15665	3795.264841849266	1
0	15667	3795.377779190098	2
0	15671	3796.582317194633	3
0	15672	3796.923617577509	2
0	15677	3797.264158129767	1
0	15682	3797.528213820229	0
0	15712	3802.042542863665	1
0	15716	3803.346613306546	2
0	15722	3805.708542641663	1
0	15729	3807.835836599008	0
0	15746	3809.57844920805	1
0	15747	3809.584981982787	0
0	15757	3810.067588029924	1
0	15761	3810.814682181941	0
0	15778	3818.603530375023	1
0	15779	3818.613503342726	0
0	15788	3820.82448405465	1
0	15790	3821.690872020125	2
0	15794	3823.31139770016	3
0	15801	3825.517033404755	4
0	15803	3826.059755470157	5
0	15804	3827.265119248506	4
0	15810	3828.55868079413	3
0	15815	3828.869444874517	2
0	15822	3831.584551421286	1
0	15831	3833.836343439843	0
0	15842	3835.743627851025	1
0	15843	3835.949329295452	0
0	15862	3838.219481415522	1
0	15863	3838.711196934414	0
0	15876	3841.283851928572	1
0	15880	3841.431430742818	2
0	15883	3842.333377933703	3
0	15884	3842.575154572781	2
0	15889	3842.672141238963	1
0	15897	3843.123083595032	2
0	15898	3843.755970288898	1
0	15904	3846.298868268425	0
0	15949	3855.444988536773	1
0	15951	3855.745671711616	2
0	15952	3856.228832789363	1
0	15958	3856.853465239556	0
0	15967	3857.838960277936	1
0	15971	3858.122388104724	0
0	15986	3864.168346412243	1
0	15989	3865.599423770841	2
0	15990	3865.735961944538	1
0	15998	3867.437967043543	0
0	16010	3871.127924267051	1
0	16012	3871.301501781228	2
0	16014	3871.819715765236	3
0	16016	3872.069255255231	4
0	16017	3872.147455887845	3
0	16023	3872.302396181211	2
0	16030	3872.96913492358	1
0	16038	3874.350726346543	0
0	16044	3876.786453337794	1
0	16046	3878.363312596007	2
0	16047	3878.802840682459	1
0	16055	3880.041450321816	2
0	16056	3880.167327303244	1
0	16063	3882.176818891195	2
0	16064	3882.339295781689	1
0	16071	3883.062064492614	0
0	16086	3884.494829087363	1
0	16092	3887.003523188012	2
0	16094	3889.146466525135	3
0	16095	3889.312250192433	2
0	16101	3889.427075013213	3
0	16105	3889.595616617939	2
0	16110	3891.645199878703	1
0	16116	3895.120904167386	2
0	16117	3895.60130817092	1
0	16122	3896.162649069721	0
0	16153	3904.755895722496	1
0	16158	3906.355122281603	0
0	16167	3907.662488588686	1
0	16170	3909.172594253844	0
0	16188	3911.474580083444	1
0	16191	3912.544919131366	0
0	16202	3913.408294116639	1
0	16204	3915.136186071219	0
0	16230	3923.000136918605	1
0	16234	3925.91273963826	2
0	16237	3926.752357319578	1
0	16242	3927.52867411272	0
0	16254	3929.308103053826	1
0	16255	3929.514235704988	0
0	16279	3932.579474022367	1
0	16285	3933.823192673334	0
0	16297	3934.498708032793	1
0	16298	3934.584398353991	0
0	16310	3935.452213200995	1
0	16311	3935.931477871321	0
0	16323	3942.031592099134	1
0	16326	3942.217413297304	0
0	16341	3945.12258822822	1
0	16342	3945.611447089432	0
0	16357	3946.95399662249	1
0	16359	3947.868916833269	0
0	16367	3949.664688060936	1
0	16368	3949.702316447021	0
0	16381	3951.372909996582	1
0	16382	3952.913052459348	0
0	16388	3953.931705976554	1
0	16390	3954.636042992612	0
0	16396	3954.989132287281	1
0	16397	3955.283349707595	0
0	16441	3964.262345316504	1
0	16444	3965.006847001088	0
0	16450	3965.740597304059	1
0	16452	3965.794152149499	2
0	16456	3965.861579677593	3
0	16457	3966.050355004854	2
0	16463	3966.407743853303	1
0	16468	3966.529239976517	0
0	16474	3966.732930256133	1
0	16475	3967.225898724747	0
0	16496	3970.436894435435	1
0	16499	3972.13229200569	0
0	16514	3975.761389131812	1
0	16516	3976.415767693892	2
0	16517	3977.99192405741	1
0	16522	3978.764436077377	0
0	16568	3987.833492771293	1
0	16573	3990.791223282573	0
0	16605	3996.75344900418	1
0	16608	3999.839317955069	0
0	16640	4013.767678586166	1
0	16645	4016.002194756947	0
0	16653	4016.577431098138	1
0	16655	4016.665129297561	2
0	16657	4017.006440038573	3
0	16658	4017.191240582331	2
0	16663	4017.375941613613	1
0	16671	4018.416768563611	2
0	16673	4018.72894735503	3
0	16676	4019.455026595349	2
0	16681	4019.770070415411	1
0	16688	4020.595901443643	2
0	16689	4020.91067219285	1
0	16696	4021.71222237431	0
0	16726	4028.01327037608	1
0	16731	4030.264166096729	0
0	16740	4031.183901088642	1
0	16746	4034.659639945074	0
0	16752	4035.637485190863	1
0	16757	4037.865529052218	2
0	16761	4038.796016770041	3
0	16762	4039.40246661686	2
0	16768	4040.10213905759	1
0	16773	4041.435243789414	0
0	16779	4041.714118854854	1
0	16783	4042.153551292168	0
0	16806	4044.607426866879	1
0	16811	4046.312601101871	0
0	16826	4048.896592731104	1
0	16831	4050.769109380284	2
0	16834	4053.167154812003	3
0	16835	4053.865774124546	2
0	16840	4053.873087023659	1
0	16845	4054.426188927161	0
0	16849	4058.313467492124	1
0	16851	4058.548169356017	2
0	16857	4060.41451359779	1
0	16866	4061.671379257643	0
0	16891	4065.264198920887	1
0	16892	4066.387921404883	0
0	16898	4066.90670599837	1
0	16899	4067.137670488619	0
0	16905	4067.456579136198	1
0	16906	4067.707722206063	0
0	16923	4073.828901148584	1
0	16928	4076.571767796268	0
0	16949	4079.066311649182	1
0	16951	4079.141318709685	2
0	16955	4083.330445426075	1
0	16961	4086.072370606375	0
0	16968	4086.332421496866	1
0	16969	4086.551031682621	0
0	16993	4092.681174859433	1
0	16995	4093.886087184583	2
0	16997	4094.331364742558	3
0	16998	4094.58203497698	2
0	17004	4095.202323247992	3
0	17005	4095.581028602809	2
0	17012	4095.811073296674	3
0	17018	4096.717485756416	4
0	17019	4096.800836847271	3
0	17024	4096.806957170482	2
0	17031	4098.077223859197	1
0	17036	4098.53463924428	0
0	17097	4127.763956974088	1
0	17099	4128.131893669217	2
0	17100	4128.234516896378	1
0	17106	4128.697457989702	0
0	17112	4128.839190858981	1
0	17113	4130.14522668159	0
0	17129	4134.000956810803	1
0	17131	4136.039613120779	2
0	17133	4136.189895493357	3
0	17134	4136.999767442301	2
0	17139	4137.162533255003	1
0	17144	4137.633041490569	0
0	17157	4141.459180645418	1
0	17159	4142.374179711215	2
0	17163	4144.141579118228	1
0	17167	4144.688668242609	2
0	17171	4147.550290041128	3
0	17173	4148.026473124895	4
0	17175	4148.225116513361	3
0	17181	4149.336645688169	2
0	17187	4149.376600384471	3
0	17192	4150.829269186176	4
0	17194	4151.451578788435	3
0	17202	4151.93632957321	4
0	17204	4152.270413590958	5
0	17205	4152.419999631821	4
0	17210	4152.561418158968	3
0	17217	4152.903925955359	4
0	17218	4153.454811938229	3
0	17223	4153.503948316591	2
0	17229	4156.439082634268	3
0	17230	4156.860700963304	2
0	17238	4157.605833119385	3
0	17239	4158.071497945354	2
0	17247	4162.224204382693	3
0	17248	4162.718960803923	2
0	17255	4163.951411254976	3
0	17256	4165.151117562901	2
0	17262	4165.414602799173	3
0	17263	4165.751885265976	2
0	17269	4166.624748535576	3
0	17270	4166.793114713331	2
0	17275	4169.399832065009	1
0	17287	4172.956470716066	2
0	17288	4173.269765815806	1
0	17294	4173.63363853388	2
0	17295	4174.12615152891	1
0	17302	4174.676926963003	0
0	17313	4175.976044439515	1
0	17315	4176.367928785325	2
0	17316	4176.512830754061	1
0	17321	4177.519464658907	0
0	17350	4185.849238680813	1
0	17354	4187.833964630441	2
0	17356	4188.000478107862	3
0	17357	4189.507870795084	2
0	17365	4190.392407766357	3
0	17366	4191.171138862012	2
0	17372	4191.370673203606	1
0	17379	4193.048726234174	2
0	17382	4194.3490445688	1
0	17388	4194.967879904686	2
0	17389	4195.926992299188	1
0	17395	4196.357327818038	0
0	17419	4200.194528900652	1
0	17421	4200.208193448375	2
0	17422	4200.421845934966	1
0	17429	4201.283194867124	2
0	17430	4202.074418099103	1
0	17436	4202.684131000911	0
0	17454	4203.838013000075	1
0	17457	4204.256476795308	2
0	17458	4205.02452084679	1
0	17463	4205.349815365503	0
0	17484	4210.315346009701	1
0	17491	4213.224228604909	2
0	17495	4214.166368113629	3
0	17496	4214.59430099011	2
0	17501	4214.619123763391	1
0	17506	4215.676552371624	0
0	17520	4217.342655086041	1
0	17521	4217.489011223365	0
0	17544	4223.00209023181	1
0	17546	4223.271349547	2
0	17548	4224.729483283488	3
0	17550	4225.877916519629	4
0	17551	4225.907853016561	3
0	17557	4226.073139953506	4
0	17559	4226.105598874327	5
0	17561	4227.061530105748	4
0	17566	4227.256698453544	3
0	17572	4227.764443969376	2
0	17577	4228.203600501	1
0	17582	4229.618309644283	0
0	17586	4230.015400604776	1
0	17589	4231.053389617212	0
0	17595	4231.913139296428	1
0	17598	4231.937104354502	0
0	17604	4232.878113014896	1
0	17606	4233.634492110837	0
0	17620	4235.452517469106	1
0	17623	4238.954706985668	0
0	17634	4239.453639095151	1
0	17636	4240.28759388173	0
0	17686	4250.018703142843	1
0	17689	4251.357975722363	0
0	17693	4251.435211026356	1
0	17698	4253.420473750945	0
0	17702	4253.468460522016	1
0	17704	4255.116158049991	2
0	17706	4255.467908867736	3
0	17712	4257.569779453022	2
0	17718	4258.023274138625	3
0	17720	4258.286055073408	4
0	17723	4258.461435739208	3
0	17728	4258.636597376542	2
0	17733	4258.659015687404	1
0	17739	4261.003394595344	2
0	17743	4262.423437551749	1
0	17751	4264.132627413113	2
0	17752	4264.377659207315	1
0	17758	4264.385959075932	2
0	17759	4265.305140903528	1
0	17763	4265.339287240904	2
0	17766	4266.255486052603	1
0	17777	4272.310535382171	0
0	17781	4272.507199486954	1
0	17785	4273.388949537851	0
0	17821	4282.899171088694	1
0	17823	4283.462415777705	2
0	17824	4283.743648574999	1
0	17830	4283.804843972038	0
0	17842	4288.430049918437	1
0	17843	4289.347433530775	0
0	17849	4289.403139979682	1
0	17851	4289.832342545877	2
0	17853	4291.329272778641	1
0	17859	4294.451283715336	0
0	17870	4296.065693306476	1
0	17873	4296.766482345572	2
0	17875	4296.92331041839	1
0	17881	4297.710654528799	0
0	17932	4318.030320196572	1
0	17935	4319.08632084568	0
0	17942	4320.403815271926	1
0	17944	4320.481597545169	2
0	17945	4321.035314004272	1
0	17952	4323.790439146856	0
0	17965	4327.118609839535	1
0	17967	4327.386173788474	0
0	17973	4328.167723868002	1
0	17979	4330.570454545283	0
0	17985	4330.757597300207	1
0	17986	4331.196398891676	0
0	18021	4342.565346448435	1
0	18024	4344.263956386114	0
0	18041	4348.920241252387	1
0	18047	4349.959737749741	0
0	18063	4351.143085668984	1
0	18066	4352.586864276134	0
0	18073	4353.084142207241	1
0	18077	4354.567521714611	0
0	18089	4357.163031200713	1
0	18090	4357.438024180401	0
0	18121	4370.248211707612	1
0	18123	4371.308774231588	2
0	18125	4371.543238977388	3
0	18127	4371.805070503744	4
0	18128	4371.897465476546	3
0	18136	4372.425892381393	2
0	18143	4373.334053102038	1
0	18150	4373.575517893669	0
0	18156	4374.776261547897	1
0	18157	4374.859191012669	0
0	18189	4383.118659281139	1
0	18194	4386.889487789295	0
0	18200	4387.10177090494	1
0	18201	4387.28241135793	0
0	18227	4391.731224532859	1
0	18229	4392.547510333185	0
0	18317	4418.067270364284	1
0	18318	4418.12927799197	0
0	18340	4420.910110708837	1
0	18342	4422.38188128435	2
0	18343	4422.850442084566	1
0	18348	4422.972304695292	0
0	18359	4428.152734329188	1
0	18362	4428.336584718444	0
0	18386	4430.427188329717	1
0	18388	4430.667546492412	2
0	18389	4430.692859451992	1
0	18397	4432.044342088678	2
0	18398	4432.272428528083	1
0	18403	4433.358562850994	0
0	18409	4434.293176206201	1
0	18410	4435.272273885357	0
0	18419	4438.035552044059	1
0	18420	4438.646456979582	0
0	18465	4452.287311869754	1
0	18466	4453.183970606321	0
0	18529	4485.949321464804	1
0	18531	4487.621998146293	2
0	18534	4487.895810718895	1
0	18538	4488.95510693882	2
0	18543	4490.693612745222	1
0	18551	4491.441627476576	0
0	18565	4493.837440584485	1
0	18571	4497.226102415831	2
0	18574	4500.204544257248	1
0	18579	4500.219385934186	0
0	18596	4503.585207312526	1
0	18599	4504.688211978241	0
0	18608	4505.068659201412	1
0	18611	4506.502475987239	0
0	18640	4512.15818513784	1
0	18643	4512.293646512094	0
0	18653	4516.516167500372	1
0	18661	4518.92074446643	2
0	18663	4518.994450643951	3
0	18666	4520.852784610711	2
0	18671	4520.860937415778	1
0	18676	4521.182502865336	0
0	18720	4534.97532005318	1
0	18722	4534.979359938085	2
0	18725	4537.913099253802	1
0	18735	4540.330852079988	0
0	18741	4540.839766180763	1
0	18742	4541.973496372794	0
[...]
5	112437	27684.195321233107	0.935017693351
5	112475	27697.502419187428	4.299434175107
5	112499	27700.287905919019	3.019495093909
5	112515	27704.901929265517	6.305631744435
5	112546	27713.958053303041	0.45270650506
5	112564	27718.271763330264	3.245825705374
5	112568	27719.378535828091	4.003205358558
5	112575	27725.356226597154	2.617761531336
5	112628	27737.063391788717	8.737129587489
5	112643	27745.358073991045	15.990252098939
5	112725	27760.078083813153	24.09060558906
5	112730	27760.438999285561	21.472897392708
5	112735	27760.524079290514	12.570969626322
5	112742	27761.632696856413	7.432443316268
5	112763	27772.169877050627	0.556453209271
5	112801	27780.007289783909	1.586393042389
5	112827	27786.546323372736	2.107933412786
5	112837	27788.076286000571	1.138151391133
5	112849	27790.372913383984	0.536853571207
5	112859	27794.573372453313	2.366254509275
5	112985	27838.800525948374	2.910056850991
5	113016	27846.042068023736	1.041647445348
5	113024	27849.015905840291	0.424429185948
5	113044	27858.334922388012	3.989243594248
5	113052	27859.902654610226	3.053814844485
5	113077	27867.728268668119	7.554201137217
5	113110	27877.437017142519	5.937244402403
5	113203	27899.786230721464	27.433797876505
5	113208	27900.358845793678	20.272287752866
5	113215	27903.143378469159	13.628088632739
5	113229	27906.44206412825	16.262981159365
5	113236	27907.800043861143	17.057248065961
5	113241	27909.396042266703	4.956339452074
5	113248	27910.790237964017	3.842415335506
5	113303	27924.445799767007	3.070896512352
5	113319	27927.802363196981	5.829002580859
5	113324	27928.198351369396	6.002543946567
5	113331	27928.708233088653	6.497472178805
5	113358	27934.751963661584	8.655568470633
5	113365	27935.82528651813	8.603260485301
5	113369	27936.04399874773	0.483586659824
5	113394	27938.659475381266	0.015317023793
5	113431	27952.926104332741	4.021995408484
5	113436	27954.914574054883	2.402786992046
5	113443	27958.580854751783	5.971804664986
5	113459	27963.489401298394	4.297091291465
5	113521	27974.538805550157	2.560726314227
5	113527	27975.235938024859	1.547145650434
5	113537	27979.334443316029	1.399873594059
5	113544	27983.97370248097	4.96179913543
5	113551	27985.766389459129	4.193372105908
5	113555	27987.28406566042	1.90146620385
5	113567	27990.138236113833	2.682617641188
5	113732	28025.918331821085	38.392958775857
5	113737	28027.00987579992	35.807656902443
5	113748	28031.309492760791	30.92104020977
5	113895	28060.871127844528	57.445953564378
5	113905	28062.613584395636	58.681688998647
5	113922	28068.007826418879	56.392505463747
5	114052	28106.2670719052	89.611445631655
5	114065	28108.368445636595	89.340717286734
5	114070	28108.46998073341	88.025500029833
5	114075	28111.312388749475	86.122502717483
5	114080	28112.971421501514	79.561688103018
5	114085	28117.423697826424	83.087113832816
5	114098	28121.463569951001	86.931931303136
5	114120	28124.171433958438	84.232290692744
5	114136	28130.307141863796	87.876675108828
5	114155	28132.937146177866	88.034713457663
5	114212	28147.329714283847	94.832344570013
5	114228	28155.51288465443	100.35904473652
5	114253	28159.792592557601	97.866560868771
5	114284	28167.598177167585	104.30092612228
5	114292	28169.223773334669	96.771483723846
5	114321	28176.471629186814	102.5087117617
5	114326	28176.570336191205	97.117661259568
5	114336	28180.131548788466	94.917296495277
5	114349	28181.357228835836	88.510436965929
5	114354	28182.745434657647	84.63209910377
5	114359	28183.160620000019	76.578778643357
5	114366	28187.214005219205	66.151986182306
5	114371	28189.062129104639	64.13371708218
5	114378	28193.546870191713	67.357196153737
5	114401	28198.262652003627	68.645075549204
5	114406	28199.596898667622	66.69790509147
5	114413	28201.502727499651	67.96052795119
5	114425	28204.100948940912	68.803213047542
5	114430	28205.036306599228	60.062295749025
5	114435	28205.586562260448	53.558062031409
5	114440	28207.311302780707	53.018281302356
5	114445	28208.048368335189	53.669196812589
5	114453	28210.53029279577	49.199422607732
5	114463	28212.925063715254	39.141900415493
5	114475	28217.5945353173	38.419131554669
5	114486	28219.150136559683	38.049930333674
5	114494	28221.16308656291	34.837345846302
5	114512	28227.513713891573	33.266738343975
5	114539	28230.337727700052	35.96826415141
5	114550	28233.21173919479	17.585187055116
5	114558	28235.42604323503	14.250585564496
5	114569	28242.811946653864	13.76947738045
5	114581	28243.930384210147	14.063168907396
5	114589	28245.822577205992	14.450276244867
5	114625	28254.144635733343	21.910258784971
5	114638	28255.514437265938	20.906023738857
5	114645	28255.915099354899	19.664360717447
5	114653	28256.751999616507	18.373391032975
5	114660	28258.829515768533	9.757478471826
5	114671	28260.631113279262	11.238806909083
5	114676	28261.090724769648	10.069613661262
5	114686	28264.960287551136	10.070882874959
5	114711	28267.90910677352	12.382210459396
5	114715	28267.937374690818	11.301093215292
5	114728	28272.197916757421	3.797709999223
5	114758	28278.440011104814	0.493038607918
5	114788	28290.029220674778	1.216180417989
5	114803	28293.499162512681	2.537420779845
5	114851	28305.229988297663	0.320040939529
5	114859	28312.478827669926	0.744706333396
5	114900	28324.750175216519	2.963260192647
5	114907	28327.54032693823	1.19973573038
5	114933	28333.528008776443	3.154854295568
5	114942	28335.035374104389	4.5337589608
5	114951	28337.599963844257	3.969908393358
5	114959	28339.360128205496	0.357211003031
5	115014	28356.84597782994	2.502596195423
5	115042	28364.8313141698	2.131059905077
5	115074	28386.425896472582	1.402477948413
5	115107	28394.991761067401	1.643649808245
5	115135	28400.593625781362	0.480605611127
5	115166	28409.48458845231	0.042967840318
5	115183	28413.602320713873	3.378584041633
5	115199	28420.488832533762	0.921348475395
5	115209	28423.911214565908	2.805334839001
5	115216	28426.402837043907	4.733416972224
5	115220	28428.758871390805	3.471213920693
5	115234	28432.784637863587	2.542960226851
5	115317	28452.488685143431	18.678295777551
5	115330	28454.096166152864	17.393252930531
5	115345	28458.605434072826	10.500150549733
5	115376	28462.323003880169	14.093657264496
5	115385	28465.468627932605	15.010251956104
5	115409	28472.20391123127	20.553448076706
5	115426	28473.111342951621	15.298049760215
5	115433	28474.296375612391	8.881229350478
5	115437	28475.699266640275	5.716786398699
5	115461	28482.813877036873	1.805960159617
5	115473	28483.923298417333	1.807432684964
5	115480	28485.33090922579	2.758466426623
5	115501	28491.141314837343	4.976617333877
5	115511	28493.127299769294	5.619073905232
5	115521	28500.278551867807	10.595119755323
5	115546	28504.710188962467	14.335650323764
5	115576	28513.402316916531	4.664776619985
5	115608	28524.116567650737	0.84298888077
5	115629	28529.655993407629	4.089469767153
5	115634	28530.992173684513	4.416901192216
5	115655	28544.104437253414	15.259527229896
5	115753	28561.585121054932	23.361624586401
5	115870	28590.936717640602	44.178001700188
5	115902	28603.300529911273	49.320973469775
5	115908	28604.319464347066	41.094923287871
5	115924	28609.716739752159	41.548127464132
5	115944	28613.634903218517	45.034793053342
5	115958	28615.542672426526	45.866878782214
5	115984	28621.530011375615	48.541343100888
5	116036	28631.253616650221	58.175517124388
5	116041	28632.138501816127	56.535024408271
5	116046	28632.473153432487	49.106185505405
5	116055	28633.664689892298	50.272407369679
5	116066	28636.797438639129	48.554628575241
5	116079	28639.870464131193	33.829227248361
5	116102	28643.420175152259	37.118317700522
5	116115	28645.686394689503	39.34390101411
5	116120	28646.183628952164	27.62217191183
5	116131	28648.479652299158	22.847773829636
5	116158	28660.097460789058	32.754090657897
5	116176	28665.016447884696	35.21304397531
5	116183	28668.910396464921	36.224562061255
5	116193	28669.455530697242	33.618809341114
5	116204	28671.125785955237	34.636498746097
5	116217	28674.953212640224	32.235008569736
5	116228	28677.453588283862	30.736533212712
5	116236	28679.043683006411	26.486350500423
5	116248	28679.678186190814	24.161523787874
5	116265	28685.774909111904	16.186613116697
5	116281	28687.221127248234	16.662059871967
5	116286	28687.221686804628	7.804449335149
5	116301	28690.323679026072	9.364828625129
5	116361	28702.137987213834	18.875890771249
5	116367	28703.552685041796	19.693769312019
5	116378	28706.647642071532	14.374272822291
5	116395	28713.448254296933	9.819153219143
5	116403	28717.066764932471	0.020201994175
5	116414	28720.160191838661	3.048238956189
5	116427	28721.665124328442	0.769888694522
5	116467	28731.402454551596	7.289372761947
5	116507	28741.748547659006	4.744692404497
5	116534	28746.346449575625	7.860055321814
5	116538	28747.040298072617	5.481981164544
5	116583	28756.271961410914	0.502190012409
5	116609	28767.724118635403	2.064728629374
5	116632	28771.310420545346	1.890307043286
5	116640	28772.189059552431	0.862467561103
5	116704	28784.833144049297	2.861652952631
5	116753	28799.537845689874	4.10543136085
5	116774	28804.34493912241	5.406007040277
5	116779	28805.534942062033	4.710198063545
5	116792	28809.821643336499	7.585114155251
5	116803	28812.024824716704	7.89229863356
5	116814	28813.822069370978	4.635281545908
5	116827	28815.503276839723	5.997458960998
5	116836	28816.068194170378	4.016705768547
5	116851	28818.606419530428	3.01849192348
5	116882	28825.962085540669	5.815059735981
5	117129	28880.183935235334	54.078391735652
5	117134	28880.506341927644	47.458566635815
5	117140	28882.026525029556	47.755116021046
5	117146	28884.755013934742	44.563219769794
5	117151	28886.318338543021	40.624311241574
5	117165	28889.789533523676	40.343307308098
5	117219	28900.092252610226	49.165891353898
5	117225	28901.535846435625	46.296584546258
5	117230	28901.913128619328	42.104929917688
5	117237	28903.413577803888	40.289798070327
5	117248	28907.470059355811	43.850594847826
5	117270	28913.55598078669	34.822343757013
5	117285	28917.179929011014	23.921157718787
5	117313	28919.988668282071	17.312770597346
5	117320	28923.94919171761	19.337347502753
5	117329	28924.700605036696	19.816769062477
5	117346	28927.176447967835	8.377160240291
5	117353	28930.650356302084	6.963795180055
5	117358	28931.167088515907	4.860915978642
5	117367	28931.878629926017	4.133532133819
5	117378	28936.171976394236	4.509794882626
5	117388	28937.991669036685	3.929459281829
5	117398	28940.294882998745	5.25358782428
5	117412	28943.315212719942	4.930049331348
5	117420	28946.643865598736	5.792375314405
5	117436	28957.518394095104	3.426824134489
5	117441	28959.042551083134	2.304870850313
5	117464	28963.69031926303	3.399364167607
5	117471	28965.597051801881	0.797011989416
5	117493	28978.213147970922	4.145440035742
5	117504	28979.114416936191	3.019910267345
5	117513	28982.629226587474	6.354220492196
5	117582	28989.632507326498	6.618927041209
5	117596	28991.667473584719	7.292732161573
5	117603	28992.947104773378	4.594549822266
5	117611	28996.486050287692	7.687624338077
5	117616	28997.185341269233	7.777579695859
5	117623	28998.974256181087	8.032456945042
5	117629	28999.899567486381	8.940311456763
5	117648	29006.61766828689	13.254131974216
5	117679	29010.373620384437	11.542981311701
5	117718	29017.124288800753	14.999599125477
5	117743	29022.695829292589	19.90798808924
5	117752	29023.665342891951	19.973731402212
5	117816	29035.791947736581	30.780345684653
5	117828	29039.717954729928	34.344151229452
5	117833	29040.222982283575	31.846613337163
5	117838	29041.357620074824	31.078657554346
5	117845	29044.759851259619	16.278958138806
5	117850	29046.241232308837	12.556277173949
5	117854	29046.4182587787	3.74622642135
5	117865	29053.454285038565	3.413737615106
5	117895	29060.132447405936	4.868796695356
5	117905	29062.770856064157	3.140759673207
5	117939	29069.62248178345	1.258725627894
5	117976	29077.039762988129	6.191957424283
5	117990	29080.479604692175	5.625805957965
5	118083	29101.414504809235	11.337675327868
5	118128	29108.698385978607	17.589106056112
5	118133	29108.992369763519	14.015497690484
5	118142	29114.975535291948	18.991386368692
5	118169	29117.492256781577	20.986136647119
5	118176	29120.442507041654	20.290600058071
5	118250	29143.125948949881	39.751115217744
5	118264	29146.369816201795	41.022392003717
5	118287	29151.524393558406	35.04855671791
5	118295	29152.102334127759	35.545710066476
5	118302	29153.340201084641	30.281146416248
5	118319	29158.250932137412	25.80637046276
5	118344	29164.339179527186	28.200736133951
5	118366	29167.896253094334	24.301001678592
5	118371	29172.005094854572	25.002603872204
5	118378	29172.605689973799	22.472101877889
5	118392	29176.142514816571	24.862841385507
5	118414	29180.827771931026	29.129970263291
5	118427	29183.16873089794	25.369256855035
5	118447	29192.767701221338	0.138982382354
5	118472	29196.530235091691	0.902014837403
5	118504	29204.608704076751	2.810013203803
5	118521	29211.243801087803	7.309275188053
5	118547	29220.970081468911	12.947065842326
5	118552	29221.814413139893	13.753825999085
5	118559	29223.937407230347	12.839681573782
5	118566	29224.491604562553	5.29077090436
5	118581	29228.784153553609	5.691686426598
5	118588	29232.653127003661	7.175448444814
5	118593	29235.784033265321	10.225152366382
5	118604	29238.836446082247	7.519943525731
5	118753	29276.403112226471	36.864683584676
5	118785	29283.225486284306	40.526157829486
5	118798	29299.285045211091	55.00963105461
5	118836	29307.794724792978	62.619631818304
5	118846	29308.29917799004	53.083085803504
5	118856	29310.309439824485	54.094180129881
5	118869	29311.901265362589	34.296091318764
5	118876	29312.273304202635	31.943095625506
5	118889	29315.7489131233	31.474559491804
5	118919	29322.54628550037	23.099440577656
5	118925	29322.710473953875	16.89982376791
5	118936	29325.003337953182	18.677827006612
5	118955	29327.830162880231	17.482549299285
5	118965	29331.249515513343	19.214251109664
5	118980	29335.941635525011	22.642239445956
5	119060	29356.580211858846	42.583833911082
5	119065	29357.029157976353	38.718235305653
5	119073	29358.451137166972	37.761814170117
5	119078	29358.613092321224	36.294712349044
5	119087	29362.694048514495	38.074606998023
5	119100	29365.851350083129	38.531149998848
5	119110	29369.510305834905	41.181170079426
5	119135	29373.779343595221	44.680795950507
5	119140	29374.852379558007	40.642493776546
5	119145	29377.068985710592	38.038798072688
5	119156	29384.740150911229	31.426310467521
5	119166	29385.974360093752	30.026961132855
5	119171	29388.106478024315	29.866526278058
5	119180	29393.467009833844	28.685328849068
5	119222	29405.782227109621	27.478931887032
5	119227	29406.304621519796	23.831472991867
5	119236	29409.425484316159	20.621874539841
5	119250	29415.230408475068	5.900033407151
5	119274	29422.206795457037	12.513103764189
5	119310	29436.031931563064	25.627354964668
5	119325	29439.14775271196	23.244853448673
5	119342	29441.20687241445	24.937662822013
5	119371	29451.306945454213	33.836852912465
5	119376	29452.313897579905	34.712879418633
5	119382	29453.072357332983	33.306920763907
5	119396	29458.161670671578	34.642308610326
5	119431	29463.523883930862	34.500400770321
5	119444	29464.6006598187	19.381182759005
5	119451	29464.868938325481	10.39887098461
5	119464	29465.82133787773	3.57192103847
5	119479	29471.565451658687	7.717465720612
5	119488	29474.781936627921	7.680349171993
5	119508	29480.12129177132	11.865826896517
5	119514	29481.038586605204	4.743099096706
5	119521	29481.602452288508	4.955441495511
5	119525	29481.850161039742	0.737295959847
5	119537	29485.616623872685	3.455646038564
5	119550	29488.552870117933	3.477983381411
5	119583	29499.917089430823	2.971820200492
5	119597	29501.699321153858	2.945642896189
5	119634	29511.02517535497	10.804386740931
5	119644	29514.997635766026	14.288294770464
5	119651	29516.633600963389	13.675502311006
5	119658	29519.253029486439	12.704849861274
5	119675	29523.207399178765	8.732845155949
5	119715	29529.49622949963	14.621882792875
5	119757	29545.153440009403	1.701022578189
5	119813	29555.794694898184	1.756760935804
5	119891	29573.96254587431	15.37169604125
5	119937	29584.159180529635	24.366613266319
5	119955	29587.437957277244	24.638253030311
5	119960	29590.724707845937	24.732633207084
5	119965	29592.705854546993	23.828597080847
5	120010	29600.054691955703	1.8294525125
5	120026	29602.072846153499	2.436878863618
5	120054	29607.022953586512	5.38833673547
5	120106	29624.297680477519	13.154662238744
5	120128	29628.547175987909	14.470857147605
5	120159	29635.970866112803	18.663280616972
5	120164	29636.375339520998	19.01653698503
5	120171	29638.337042479064	12.807053335453
5	120181	29642.015354360752	16.302591839762
5	120215	29648.567389732722	5.255799311445
5	120237	29650.249550323041	4.727021378338
5	120247	29651.326667292793	4.57053312676
5	120262	29654.554479029959	7.521007584341
5	120281	29658.860422033337	9.915315579553
5	120288	29660.24723028765	8.8078813578
5	120295	29662.675448069517	10.712759950904
5	120310	29667.376487660147	7.265439558694
5	120319	29668.557142421012	1.635481731587
5	120357	29675.925490189723	3.682832469524
5	120381	29681.078572849771	0.243409945289
5	120389	29682.485504806514	0.639488479737
5	120412	29687.332571601591	0.012011248575
5	120430	29693.033153655233	3.672033174437
5	120447	29697.061622648309	7.68285476859
5	120485	29705.861322583463	12.135146687905
5	120501	29708.240873081689	14.043061883708
5	120520	29711.575429124835	14.91383361358
5	120534	29716.40504095715	18.055214901889
5	120545	29719.622349262388	20.360036484734
5	120615	29740.637930505984	37.11021745309
5	120655	29749.418390863993	34.607253125602
5	120660	29749.641612241471	31.432769207429
5	120667	29751.500271044848	30.697686091852
5	120676	29753.406743690582	29.246844683813
5	120686	29753.809099956619	24.191746410223
5	120693	29757.180488254607	22.566329636649
5	120698	29757.190557229827	17.071745696432
5	120711	29762.147196765801	20.906196948266
5	120739	29765.76161724181	22.563910108051
5	120746	29767.029032828716	15.624874062325
5	120869	29796.85064064057	44.778286934231
5	120886	29800.499888248037	42.981905359899
5	120891	29801.579492416498	41.101215344645
5	120896	29804.338535632364	42.787890507949
5	120907	29807.042320565897	36.921195260054
5	120931	29812.391663190252	42.138072229125
5	120942	29814.288856641941	41.935705440759
5	120993	29824.123396303919	50.543525558668
5	121052	29836.797123149838	59.130983098007
5	121142	29857.657257299048	75.079079221266
5	121147	29857.663370906628	73.960736496788
5	121152	29858.306494443746	72.95333229171
5	121161	29862.682800939583	76.497557487035
5	121172	29863.959716440854	74.250339191974
5	121178	29864.919581924298	70.959379267996
5	121184	29867.073586580418	72.348365613953
5	121189	29867.806986947121	53.764649671591
5	121194	29868.712310069745	49.543232503727
5	121206	29871.515529098775	36.535480674194
5	121219	29873.901690700043	32.57113703108
5	121224	29874.752201937909	31.053831089481
5	121235	29878.33038476009	22.288716605796
5	121247	29881.0395309867	23.600017828431
5	121287	29884.592299927556	14.200203820118
5	121292	29884.765558598275	14.370433528385
5	121304	29889.11292552454	16.881196783909
5	121329	29893.718350501309	17.507290539004
5	121334	29893.876199603263	17.371882081743
5	121341	29895.64056713993	18.0293975705
5	121356	29899.137113087585	17.710082403449
5	121366	29902.138973512636	15.811422284305
5	121377	29908.498389481058	20.860550227315
5	121390	29910.985164190842	19.884931707008
5	121395	29911.027661337156	19.613398755276
5	121400	29911.20158687913	13.973365929167
5	121404	29912.89228740609	9.009009694425
5	121411	29914.889502892548	0.916721868919
5	121421	29916.398107591239	0.330101645199
5	121429	29923.479109434753	7.193819941868
5	121451	29927.785940745146	0.965618982713
5	121455	29928.385352650957	0.873223576334
5	121468	29933.374435317549	1.603395639811
5	121493	29937.36071349505	3.731383150457
5	121508	29944.269765393505	5.817820133079
5	121528	29948.024617849796	4.916624942931
5	121537	29952.533593125564	7.148264593428
5	121567	29967.507728657437	3.860053149536
5	121584	29971.700202264773	7.462639669838
5	121626	29982.354797370573	14.443217658538
5	121631	29982.446660068359	5.979252124936

