version 2
run Second-n3-2-20191016-14:52:48-2408
attr configname Second-n3
attr datetime 20191016-14:52:48
attr experiment Second-n3
attr inifile omnetpp.ini
attr iterationvars ""
attr iterationvarsf ""
attr measurement ""
attr network org.omnetpp.queueing.Pizza
attr processid 2408
attr repetition 2
attr replication ""
attr resultdir results
attr runnumber 2
attr seedset 2
param **.PS.maxInventoriedPS 3
param **.U1.interArrivalTime exponential(3s)
param **.U2.interArrivalTime exponential(5s)
param **.PS.serviceTimeForInventoryU1 exponential(1.0s)
param **.PS.serviceTimeForInventoryU2 exponential(1.2s)
param **.PS.serviceTimeDirectU1 exponential(1.4s)
param **.PS.serviceTimeDirectU2 exponential(1.4s)
param **.PS.probabilityProducing 0.7
param **.CS.serviceTimeU1 exponential(1.1s)
param **.CS.serviceTimeU2 exponential(1.4s)

vector 0 Pizza.EntryQueueU1 queueLength:vector ETV
attr interpolationmode sample-hold
attr title "queue length, vector"
vector 1 Pizza.CS queueLength:vector ETV
attr interpolationmode sample-hold
attr title "queue length, vector"
vector 2 Pizza.EntryQueueU2 queueLength:vector ETV
attr interpolationmode sample-hold
attr title "queue length, vector"
vector 3 Pizza.sink lifeTime:vector ETV
attr interpolationmode none
attr title "lifetime of arrived jobs, vector"
attr unit s
vector 4 Pizza.sink lifeTimeU2:vector ETV
attr interpolationmode none
attr title "lifetime of arrived jobs, vector"
attr unit s
0	0	0	0
0	7	1.718075968882	1
0	13	5.540971110126	0
0	38	10.572109086914	1
0	41	11.469341677053	2
0	44	12.338075893448	1
0	49	12.429371851505	0
0	68	13.922410977845	1
0	70	14.431988715574	0
0	76	14.691007718191	1
0	81	15.379211545418	0
0	89	15.982554813814	1
0	90	16.105043778541	0
0	96	18.093582354327	1
0	100	19.36397459778	0
0	134	32.176241356729	1
0	137	32.650315043847	0
0	160	37.224500534282	1
0	163	41.018867611498	0
0	191	52.49939099949	1
0	192	53.098804737701	0
0	199	54.246113768745	1
0	200	55.472867511496	0
0	236	62.017636538683	1
0	241	63.66704111257	0
0	247	64.079572027922	1
0	249	64.763226664213	0
0	277	74.905420400304	1
0	278	75.592379879238	0
0	292	79.533173826088	1
0	293	80.985955377113	0
0	299	81.173249246645	1
0	301	81.511319627647	2
0	306	82.74858556033	1
0	311	83.216098512119	0
0	318	83.862802447879	1
0	322	85.495615976205	2
0	323	85.696800781086	1
0	328	85.741717848625	0
0	341	87.826451582985	1
0	343	89.363182299469	0
0	350	90.208058851905	1
0	353	90.55962660516	2
0	356	91.277321059057	3
0	358	91.2776918345	4
0	359	92.39121324209	3
0	364	92.602977520361	2
0	369	92.713130060514	1
0	379	94.255261734879	2
0	380	94.402894970737	1
0	385	94.757301504074	0
0	405	100.897510095971	1
0	407	101.632920090216	2
0	408	102.361362897218	1
0	416	103.525701463844	0
0	439	105.455548265963	1
0	442	105.739701579273	2
0	445	107.24802970416	3
0	446	108.67316971301	2
0	451	108.707092525848	1
0	456	109.053807853105	0
0	471	110.559751998571	1
0	473	110.949040341582	0
0	484	111.91001329336	1
0	487	113.560286173033	0
0	494	114.147969363436	1
0	496	114.178035238766	2
0	497	114.218361326856	1
0	502	114.230306970638	0
0	525	123.327307574527	1
0	527	124.370638947637	2
0	528	124.904366759858	1
0	534	126.134682102343	2
0	535	126.288046747293	1
0	542	128.070834567222	2
0	543	128.23272111514	1
0	549	129.425796609679	0
0	580	135.508309449708	1
0	581	137.102336027514	0
0	587	137.131319971019	1
0	591	137.954564805871	0
0	615	143.407365594145	1
0	616	143.434453191928	0
0	625	144.108851247965	1
0	629	147.095967001803	0
0	685	164.916293670083	1
0	687	166.354238595702	2
0	688	167.001349284931	1
0	694	168.017731354215	2
0	696	168.622928359594	3
0	697	168.675218387151	2
0	702	169.005661887771	1
0	707	170.163904189011	0
0	711	170.540090740858	1
0	713	173.614363624825	2
0	715	174.462461511268	3
0	717	175.219802521017	4
0	722	177.255694016829	3
0	727	177.75855322465	2
0	732	178.773596647103	1
0	739	179.85472537888	0
0	743	179.905230623369	1
0	746	180.369220699149	0
0	821	206.462203508152	1
0	829	209.757027437817	2
0	831	209.825963181223	3
0	832	209.833218324418	2
0	838	210.45567336634	1
0	843	210.752337257784	0
0	849	211.133182087565	1
0	850	211.437190813433	0
0	862	211.818489152447	1
0	864	211.86400103857	2
0	865	211.985513745062	1
0	870	212.0180546079	0
0	874	212.286201599384	1
0	878	213.062080701279	0
0	889	213.686115341803	1
0	891	214.090689671186	2
0	892	214.134583358023	1
0	900	214.558618329907	2
0	902	214.649321025215	3
0	905	215.666816690806	4
0	907	216.453037500674	5
0	908	217.10944743341	4
0	912	219.761796165752	5
0	916	221.111392057814	4
0	922	221.859332823866	5
0	923	222.411587115798	4
0	927	222.600054934673	5
0	934	223.585197759139	4
0	941	225.077738275787	3
0	946	225.400405234868	2
0	950	226.260165973604	3
0	952	226.821633546862	4
0	955	227.584539908095	3
0	960	228.106775262462	2
0	964	228.941983777737	3
0	967	230.242739095491	2
0	973	231.001854281349	3
0	974	231.533628923669	2
0	978	231.694238660406	3
0	981	232.70187515903	2
0	987	233.566290748834	3
0	988	233.719016095969	2
0	994	234.244586991116	3
0	995	234.413625811087	2
0	1000	235.873644298808	1
0	1005	237.763568650382	0
0	1011	239.306238365564	1
0	1014	240.594053811876	0
0	1034	245.12487726305	1
0	1035	246.302155254081	0
0	1071	253.462538759056	1
0	1074	256.437274926624	2
0	1075	257.235551275842	1
0	1081	258.636664957405	0
0	1099	260.104734572705	1
0	1100	260.684148639315	0
0	1112	265.137591180488	1
0	1118	266.522309441737	0
0	1129	267.154411693553	1
0	1131	267.250485198996	0
0	1162	279.125548012092	1
0	1163	279.289958129148	0
0	1181	283.139683235829	1
0	1183	283.57546728056	2
0	1185	284.637205738638	1
0	1190	284.67557005993	0
0	1197	285.858723412839	1
0	1198	286.033088284703	0
0	1220	288.326997419075	1
0	1223	289.002595818227	2
0	1226	290.844491825125	1
0	1231	291.304306542884	0
0	1306	331.940810306153	1
0	1307	332.057447661971	0
0	1351	346.010645559059	1
0	1354	346.58551799168	0
0	1362	349.529301569977	1
0	1365	349.977054330668	0
0	1377	350.868286259657	1
0	1378	351.533119127221	0
0	1385	351.962011699562	1
0	1387	352.799117479221	2
0	1389	354.215076594171	1
0	1394	354.440343708715	0
0	1426	363.732069739918	1
0	1430	364.877171575724	2
0	1431	364.992863977739	1
0	1438	367.685178617874	0
0	1472	378.423462123422	1
0	1473	379.199628692493	0
0	1519	392.795518540961	1
0	1520	393.059270918533	0
0	1564	397.214152545853	1
0	1565	397.261615929781	0
0	1571	398.325274566026	1
0	1572	398.4364314954	0
0	1581	399.435846251461	1
0	1584	400.141484851994	2
0	1586	401.877961089154	1
0	1593	403.210288216584	0
0	1607	405.649960805301	1
0	1610	405.971006971746	2
0	1612	406.244905214744	3
0	1614	407.921831475372	4
0	1615	408.372198786314	3
0	1621	409.013940779962	2
0	1626	410.092596025644	1
0	1633	410.437591372099	0
0	1656	413.34889742543	1
0	1657	414.361632925895	0
0	1670	415.36742472319	1
0	1671	415.555922289722	0
0	1681	416.959581738883	1
0	1683	418.821414796654	2
0	1685	422.429202876757	3
0	1686	422.557595149172	2
0	1691	422.700165593168	1
0	1698	422.876368735128	2
0	1700	423.136405384047	3
0	1704	424.28475994146	2
0	1710	425.101556169972	3
0	1711	425.317461633753	2
0	1716	425.638039830216	1
0	1722	427.277855043679	0
0	1734	432.728836036477	1
0	1736	433.802642006856	2
0	1737	434.568001761596	1
0	1742	437.04251410758	0
0	1772	447.125674858375	1
0	1773	447.303137061466	0
0	1804	454.259835097818	1
0	1806	454.992973016652	2
0	1808	455.248356848817	3
0	1809	455.41416236819	2
0	1816	457.62789526495	3
0	1817	457.819047207207	2
0	1822	457.951012215754	1
0	1827	458.59393375508	0
0	1847	460.562722661438	1
0	1853	461.410517413011	2
0	1856	462.103350697983	3
0	1857	462.311724271972	2
0	1863	462.759127307234	3
0	1864	463.152157704702	2
0	1871	463.794455735343	1
0	1880	464.74185585741	2
0	1881	464.935514481921	1
0	1886	465.592802973256	0
0	1893	468.272291228681	1
0	1894	468.28147835536	0
0	1922	472.33551464873	1
0	1923	472.566635379832	0
0	1929	472.669616440837	1
0	1931	473.339783467936	2
0	1934	474.96205288696	3
0	1935	476.357881647161	2
0	1940	476.703479270178	1
0	1948	477.950546750042	0
0	1954	478.066741353545	1
0	1955	478.446904941043	0
0	1961	479.534935892723	1
0	1964	481.463882459499	0
0	2012	493.299784468632	1
0	2013	493.561830103339	0
0	2028	496.539834099467	1
0	2029	496.997722806841	0
0	2050	500.392411201669	1
0	2052	501.088535197257	2
0	2053	501.824272126463	1
0	2058	502.019089489857	0
0	2082	507.694870829986	1
0	2083	507.762605106518	0
0	2095	508.435438815051	1
0	2096	511.879545836749	0
0	2124	517.885554359515	1
0	2126	519.983179321037	2
0	2127	520.428005622147	1
0	2137	523.123739768618	0
0	2154	527.285506190442	1
0	2157	527.882288302855	2
0	2159	527.927198378795	3
0	2162	529.110288098923	4
0	2163	529.246108816602	3
0	2171	530.71275025267	4
0	2173	534.540473890465	5
0	2174	534.748481908532	4
0	2182	536.257587442215	3
0	2187	537.979675128508	2
0	2194	539.315016396015	1
0	2199	539.554250900538	0
0	2209	543.639278146768	1
0	2210	544.147396995298	0
0	2216	546.495669844083	1
0	2220	548.556497271401	2
0	2222	548.740886528142	1
0	2227	548.987751817794	0
0	2261	557.07045209279	1
0	2263	558.295331818126	2
0	2268	559.474841350487	3
0	2269	559.882577200415	2
0	2277	561.316492162927	3
0	2281	565.383013719814	2
0	2287	565.472297367576	3
0	2288	566.244207252807	2
0	2294	566.284035224141	3
0	2296	568.501206878513	2
0	2300	569.953506688409	3
0	2303	570.98173488524	2
0	2309	572.378527017821	3
0	2310	572.414651030769	2
0	2314	572.611219703441	3
0	2317	573.298124530064	2
0	2321	573.924086639957	3
0	2324	574.633914778619	2
0	2329	575.308443576559	1
0	2337	577.555843905646	2
0	2343	578.603238363253	1
0	2348	578.904944992571	0
0	2363	581.340600993031	1
0	2364	581.926210595008	0
0	2393	586.801929799065	1
0	2395	587.360689138876	2
0	2397	589.968681345379	3
0	2403	592.215580136057	2
0	2408	592.766450351432	1
0	2413	592.788155712219	0
0	2429	598.664813221242	1
0	2436	601.479782625549	0
0	2452	603.822867013101	1
0	2459	605.707157943056	0
0	2465	607.848667691951	1
0	2473	611.718924994692	0
0	2481	613.030912497824	1
0	2484	614.122671724948	2
0	2485	614.19785652322	1
0	2491	614.39332049039	2
0	2493	615.060629763821	1
0	2498	615.804021849709	0
0	2526	621.98729934558	1
0	2529	622.896157973617	0
0	2535	623.779386747389	1
0	2537	624.862509111123	0
0	2551	627.719582366288	1
0	2556	628.506053918148	0
0	2566	629.690508898987	1
0	2568	630.067142751703	0
0	2582	632.119712179124	1
0	2583	632.452276966015	0
0	2591	635.320593170637	1
0	2593	636.392978928087	2
0	2595	636.717639536028	3
0	2596	637.210561170407	2
0	2602	637.871560450032	1
0	2607	639.102289227414	0
0	2628	640.658760673193	1
0	2632	641.418506540405	2
0	2633	641.520201356307	1
0	2640	642.253371524963	0
0	2648	642.490947060294	1
0	2652	644.817475950667	0
0	2682	650.322752538234	1
0	2691	653.126821494952	0
0	2720	657.507800430766	1
0	2723	658.704613602335	0
0	2729	659.036191162748	1
0	2731	659.758972099762	0
0	2740	661.276429186328	1
0	2741	661.54470788985	0
0	2750	662.382253294698	1
0	2755	664.458441181961	2
0	2756	664.731286354677	1
0	2763	665.826753247063	0
0	2770	666.507563719184	1
0	2774	666.846357704246	0
0	2798	673.366044725354	1
0	2799	675.90798265751	0
0	2808	676.154241595193	1
0	2811	677.488913172239	0
0	2822	678.671466586852	1
0	2828	679.642886235596	2
0	2830	679.746792020333	1
0	2837	681.068956098696	2
0	2839	682.78882113008	1
0	2845	683.235967119253	0
0	2899	694.48411723755	1
0	2900	695.255982865289	0
0	2909	695.85841929607	1
0	2918	700.128656552133	0
0	2959	708.130415121624	1
0	2963	708.768918388419	2
0	2964	709.032070201263	1
0	2969	709.698585843093	0
0	2994	722.704936302614	1
0	2997	723.564920061476	0
0	3010	725.212726944908	1
0	3013	727.259781913544	2
0	3014	729.452305229688	1
0	3020	729.920503082945	0
0	3026	729.966331588231	1
0	3027	730.008267122458	0
0	3050	741.639899240051	1
0	3054	742.258565088424	2
0	3056	742.585163066142	3
0	3057	743.864794785136	2
0	3065	746.006529263773	1
0	3071	746.449877625653	2
0	3074	748.010488851733	3
0	3075	748.191381030431	2
0	3081	748.239214600682	3
0	3083	749.564492314714	2
0	3089	750.274387569696	3
0	3090	750.468050328254	2
0	3095	751.132203597208	1
0	3100	751.167455091593	0
0	3104	752.283472331232	1
0	3112	753.946233740747	2
0	3114	754.612834221742	3
0	3119	756.090887427726	2
0	3123	756.298424123611	3
0	3127	756.758634102547	2
0	3137	757.852002587661	1
0	3142	758.138798460788	0
0	3153	758.899875023763	1
0	3156	759.164868396292	0
0	3184	761.830451945569	1
0	3187	764.767765296333	0
0	3216	771.601249386195	1
0	3217	771.720040418814	0
0	3234	779.32159235904	1
0	3238	781.135399859306	2
0	3239	781.307455871847	1
0	3247	783.156718460542	2
0	3248	784.49003788228	1
0	3255	784.845533986176	0
0	3261	786.902197734303	1
0	3262	787.812386002672	0
0	3270	789.432591660875	1
0	3271	789.813441561079	0
0	3277	795.116213165744	1
0	3278	795.75134005785	0
0	3306	802.741173347819	1
0	3308	803.111773845616	0
0	3360	819.682005272773	1
0	3365	824.881802921126	0
0	3408	842.71336985324	1
0	3409	844.000222799859	0
0	3416	844.936132029287	1
0	3417	845.902731630581	0
0	3423	846.831226810551	1
0	3426	847.503192806387	2
0	3427	847.812734649251	1
0	3433	847.863532834191	2
0	3434	847.902676166018	1
0	3439	848.169024358368	0
0	3480	859.868050733042	1
0	3481	861.693270361087	0
0	3496	866.836687520551	1
0	3497	867.049233838045	0
0	3505	868.136934928603	1
0	3507	868.359625266326	2
0	3508	868.944206333619	1
0	3517	871.022258597427	0
0	3544	884.679816773663	1
0	3548	886.159782895516	2
0	3550	887.433445684512	3
0	3551	887.983147192179	2
0	3556	888.51666624116	1
0	3562	888.753933663699	2
0	3569	892.120894446992	1
0	3574	892.185304045517	0
0	3599	895.585586017764	1
0	3603	896.824206862332	2
0	3606	897.374270458516	1
0	3612	898.324672963683	0
0	3637	908.123347039627	1
0	3638	908.434521291478	0
0	3680	924.699529407529	1
0	3681	924.742249716504	0
0	3695	927.737775868449	1
0	3698	931.430944027491	0
0	3720	934.596195587089	1
0	3721	935.073090706314	0
0	3736	941.199344380584	1
0	3738	942.175954359751	0
0	3786	955.933728702311	1
0	3788	957.420367678033	2
0	3790	958.258310699451	3
0	3791	958.908937704346	2
0	3798	961.95171811338	3
0	3799	964.880206911547	2
0	3804	964.984908252888	1
0	3812	965.962674530487	2
0	3813	966.255440421347	1
0	3818	966.461445429026	0
0	3841	970.669630108079	1
0	3845	973.319753189482	2
0	3847	973.90116339988	3
0	3848	974.900736877604	2
0	3853	975.21365399836	1
0	3858	975.460875983658	0
0	3870	976.307337700746	1
0	3872	976.540758908004	2
0	3877	978.968687934884	3
0	3879	979.465355007283	4
0	3881	979.728825150399	5
0	3882	979.967235350813	4
0	3888	980.330738468615	3
0	3893	980.512646323384	2
0	3900	981.574036089081	1
0	3910	983.40321994414	2
0	3912	983.411339852783	3
0	3916	984.45268435111	4
0	3917	985.757882748806	3
0	3922	986.23582434463	2
0	3927	987.692563204772	1
0	3932	989.04282721165	0
0	3971	1001.508839542078	1
0	3972	1001.578406018825	0
0	3984	1002.191678828372	1
0	3987	1003.33520472499	0
0	3998	1004.783522980973	1
0	4003	1006.053154342627	0
0	4053	1015.316109290698	1
0	4055	1015.984498228591	2
0	4057	1017.153153419306	3
0	4062	1018.12322540514	2
0	4071	1019.690962230446	1
0	4076	1020.690940864219	0
0	4082	1022.293864067946	1
0	4083	1022.744951078543	0
0	4101	1025.534743945388	1
0	4105	1026.282652600471	0
0	4115	1026.568162719408	1
0	4116	1026.651157213886	0
0	4161	1042.572802902647	1
0	4163	1043.204919372148	0
0	4188	1052.457612942598	1
0	4192	1052.696042301549	2
0	4194	1053.455836168063	3
0	4196	1054.649303746941	2
0	4201	1055.561949573661	1
0	4209	1057.689386936021	2
0	4210	1058.069437548447	1
0	4216	1058.850665032882	0
0	4277	1075.211617820615	1
0	4278	1075.24790967027	0
0	4286	1076.231213973021	1
0	4292	1077.670379616077	0
0	4378	1095.894485517703	1
0	4380	1098.12833453544	0
0	4391	1101.513782719951	1
0	4393	1104.111096776468	2
0	4396	1105.613223572184	1
0	4402	1105.633572004428	2
0	4406	1106.432889521948	1
0	4412	1107.172277698157	0
0	4418	1107.618163365095	1
0	4419	1107.669888956739	0
0	4425	1107.920551351824	1
0	4429	1109.234609549017	0
0	4443	1110.235124077363	1
0	4446	1111.918222703744	0
0	4460	1114.811671457901	1
0	4462	1114.955628410772	2
0	4464	1115.658729557352	3
0	4467	1115.801850136208	2
0	4474	1116.449200421763	3
0	4476	1119.661869760003	2
0	4481	1119.674056738943	1
0	4486	1119.732592517956	0
0	4493	1121.076983933178	1
0	4495	1121.709627870686	0
0	4535	1128.298419820905	1
0	4539	1133.311082906772	2
0	4543	1133.641255074086	3
0	4544	1134.372184816559	2
0	4549	1134.381358161585	1
0	4555	1134.399611035801	2
0	4556	1135.744174228828	1
0	4561	1135.906597582393	0
0	4580	1139.555997165672	1
0	4583	1142.086075191336	0
0	4592	1142.630204372738	1
0	4595	1143.575427451434	0
0	4601	1144.081639875926	1
0	4606	1144.851517949351	2
0	4611	1146.419640884862	1
0	4616	1147.033850991416	0
0	4630	1149.53401348321	1
0	4631	1149.752814003028	0
0	4643	1152.216475082289	1
0	4647	1155.593147333757	0
0	4665	1157.711779753253	1
0	4666	1158.373762575025	0
0	4704	1168.349619601869	1
0	4707	1168.747540868093	0
0	4746	1179.012645069221	1
0	4747	1179.174542721179	0
0	4821	1200.074978359336	1
0	4822	1200.097769621611	0
0	4828	1200.369678796401	1
0	4831	1201.164603632148	2
0	4832	1201.701127718479	1
0	4841	1203.198262749463	2
0	4842	1203.260211432631	1
0	4851	1204.640217433754	2
0	4855	1205.180054040902	3
0	4857	1205.769657667554	2
0	4862	1206.402660471837	1
0	4868	1207.089122994525	2
0	4871	1209.360245259497	1
0	4876	1210.297935872012	0
0	4882	1211.356588484733	1
0	4886	1211.500835930989	2
0	4888	1211.83376463206	3
0	4893	1212.458200172681	4
0	4894	1212.500972150609	3
0	4899	1214.118823029737	2
0	4907	1215.287181275893	3
0	4908	1215.503055402519	2
0	4913	1215.922959699603	1
0	4918	1216.188363942289	0
0	4963	1221.807455246608	1
0	4965	1222.397988036829	0
0	4992	1227.939347887398	1
0	4994	1229.137874189565	2
0	4996	1230.14799560758	3
0	5001	1230.534733039558	4
0	5002	1230.768162890866	3
0	5009	1231.328866202046	2
0	5015	1231.466910228938	3
0	5018	1232.087072076917	4
0	5021	1233.050488952779	3
0	5026	1233.349454406608	2
0	5031	1234.516660672148	1
0	5036	1234.622801674071	0
0	5043	1235.334441588164	1
0	5046	1235.576037670462	0
0	5066	1239.342412748446	1
0	5069	1240.832266909519	0
0	5098	1247.377131119314	1
0	5099	1247.533085294566	0
0	5108	1248.01942032182	1
0	5116	1252.306696338533	0
0	5128	1255.843916392006	1
0	5130	1256.900027919384	2
0	5131	1257.087914044102	1
0	5137	1257.529261363237	2
0	5140	1257.886707723584	1
0	5145	1258.40009196926	0
0	5164	1261.739422605345	1
0	5170	1262.731886162312	2
0	5173	1265.123100613295	1
0	5179	1265.215786319689	2
0	5180	1265.477611265137	1
0	5188	1267.681026531534	2
0	5190	1267.742756408213	3
0	5192	1269.04536260537	4
0	5195	1270.070438957633	3
0	5200	1270.230559394742	2
0	5205	1271.054649642952	1
0	5211	1273.497492302178	2
0	5214	1276.015127067274	1
0	5219	1276.459967509964	0
0	5245	1282.650208559214	1
0	5247	1282.922565866513	2
0	5251	1285.524081144117	1
0	5257	1286.780151200659	0
0	5305	1299.961778478922	1
0	5306	1301.284674072233	0
0	5340	1306.861350924546	1
0	5351	1310.100233334524	2
0	5355	1311.235788339409	3
0	5356	1312.271282640052	2
0	5362	1313.191607997375	1
0	5367	1313.879477533459	0
0	5379	1315.497371911609	1
0	5381	1316.932999078707	2
0	5383	1317.490350475579	3
0	5388	1318.796569178313	4
0	5390	1318.962763045123	3
0	5397	1319.254369753912	4
0	5398	1319.663277773347	3
0	5404	1319.971235856536	4
0	5406	1320.468933017759	3
0	5412	1322.734708018266	2
0	5417	1322.96414727349	1
0	5422	1323.029861237996	0
0	5428	1323.116296018757	1
0	5429	1323.594629651504	0
0	5443	1325.160837157922	1
0	5449	1326.612103399524	2
0	5453	1327.725198703482	3
0	5455	1327.843443491968	4
0	5462	1330.321283908416	5
0	5464	1330.769085636507	6
0	5465	1332.440239477095	5
0	5471	1332.926989881932	4
0	5479	1335.613609395739	5
0	5481	1336.568951177892	6
0	5482	1336.894930855388	5
0	5488	1337.378925890886	4
0	5493	1337.892653989406	3
0	5499	1339.085889911626	4
0	5501	1339.706108697874	5
0	5503	1339.878083169693	6
0	5504	1341.313536200613	5
0	5510	1341.769018344352	6
0	5516	1344.327128296262	7
0	5517	1344.588628220705	6
0	5522	1345.218022497835	5
0	5527	1345.459912243033	4
0	5531	1345.747760169457	5
0	5534	1346.755884239861	4
0	5543	1349.085289735483	3
0	5549	1349.783985762069	4
0	5550	1350.480416848251	3
0	5554	1350.535506565381	4
0	5558	1350.767439000089	5
0	5559	1351.133569705152	4
0	5566	1353.39845363337	3
0	5572	1354.581182651397	2
0	5577	1354.632001727675	1
0	5586	1355.25216993292	0
0	5592	1355.478600310536	1
0	5593	1355.934997985024	0
0	5599	1355.993219869333	1
0	5602	1358.036321855547	0
0	5626	1361.199631780202	1
0	5627	1361.762623060129	0
0	5646	1362.370924590965	1
0	5650	1364.05766558405	0
0	5665	1366.020259234208	1
0	5668	1369.606092468093	0
0	5692	1375.389999864516	1
0	5693	1375.46037568127	0
0	5718	1380.159309456203	1
0	5720	1380.575434128725	2
0	5726	1382.844820473886	3
0	5727	1382.866377774718	2
0	5732	1383.126284526037	1
0	5739	1383.780696786111	0
0	5753	1387.736989247514	1
0	5755	1389.035536529642	2
0	5756	1389.296784774518	1
0	5761	1389.446446969752	0
0	5773	1390.139843431472	1
0	5776	1390.524567861214	2
0	5778	1391.223881869755	3
0	5779	1392.496661513238	2
0	5784	1392.552396120069	1
0	5790	1392.987418625729	0
0	5796	1392.998637051972	1
0	5798	1393.407369794803	2
0	5800	1393.796250840933	1
0	5807	1394.077617138172	0
0	5816	1395.161422946458	1
0	5818	1395.258486057038	2
0	5824	1396.469444067975	1
0	5830	1396.846060533462	2
0	5831	1397.016025560495	1
0	5835	1397.090323509188	2
0	5841	1398.723478079085	1
0	5847	1399.74397022155	2
0	5850	1400.330886211226	1
0	5857	1403.332526169437	0
0	5873	1406.52103137115	1
0	5876	1408.738014780203	0
0	5896	1410.702439336276	1
0	5899	1412.101394396127	0
0	5919	1415.68799079941	1
0	5923	1416.802640424764	2
0	5926	1417.520051184442	1
0	5932	1417.749335749636	2
0	5933	1417.826310023797	1
0	5938	1417.840828219451	0
0	5951	1420.080762382885	1
0	5953	1420.823444497657	0
0	5965	1422.598188591111	1
0	5966	1422.664931063491	0
0	5974	1424.015859844024	1
0	5977	1424.660061885183	0
0	5994	1426.744174249317	1
0	5999	1428.017814160127	2
0	6001	1428.562952605437	3
0	6003	1432.497123357269	4
0	6004	1432.512237314974	3
0	6011	1433.098347339599	2
0	6016	1433.105867758884	1
0	6023	1436.041510473178	2
0	6024	1436.160849047443	1
0	6029	1436.285624526762	0
0	6055	1444.262748646127	1
0	6059	1445.328967529764	2
0	6061	1445.767142742532	3
0	6064	1446.808248862905	2
0	6069	1446.841223685087	1
0	6074	1447.505719476867	0
0	6097	1453.115721771398	1
0	6099	1453.535169946263	0
0	6135	1462.535542656691	1
0	6136	1463.275703045047	0
0	6160	1473.073707752136	1
0	6163	1473.204408227334	2
0	6167	1473.789493222131	1
0	6178	1476.713598979644	2
0	6179	1477.48152147877	1
0	6190	1478.74310439939	2
0	6192	1478.900673129087	3
0	6193	1479.085829377083	2
0	6199	1479.091382938774	3
0	6203	1480.019137105872	2
0	6208	1481.666743570965	1
0	6213	1482.137576568104	0
0	6221	1484.307993079333	1
0	6222	1484.364344237777	0
0	6239	1486.282260012092	1
0	6240	1487.072639075229	0
0	6250	1492.854141068664	1
0	6252	1493.451607761474	2
0	6253	1494.436318326569	1
0	6258	1494.983482784416	0
0	6264	1497.001111572127	1
0	6265	1498.56418907116	0
0	6296	1503.615090169535	1
0	6299	1504.557856155654	0
0	6325	1507.577719109293	1
0	6327	1509.051743019601	0
0	6340	1510.576626417223	1
0	6341	1511.047034373464	0
0	6360	1514.636326649304	1
0	6362	1515.192492368555	2
0	6364	1515.275024447976	3
0	6366	1515.512503676889	4
0	6367	1515.663877421606	3
0	6374	1516.720739529518	2
0	6380	1517.365715527017	1
0	6386	1518.440125150513	0
0	6405	1521.423407979651	1
0	6406	1521.707452881774	0
0	6420	1524.46239571013	1
0	6422	1525.745733891343	2
0	6424	1525.864140168593	3
0	6425	1525.917448823573	2
0	6431	1526.610333987991	1
0	6440	1529.920856944536	0
0	6447	1530.540540811551	1
0	6450	1532.893872657436	0
0	6462	1534.744129483789	1
0	6463	1534.876505207546	0
0	6475	1535.43173462543	1
0	6476	1535.500421684764	0
0	6593	1572.052196932673	1
0	6594	1573.547836085716	0
0	6636	1587.579667808624	1
0	6637	1589.432424296962	0
0	6648	1590.833603291161	1
0	6649	1590.962207431575	0
0	6666	1598.603537161446	1
0	6668	1598.959289919637	0
0	6682	1602.576488250363	1
0	6683	1602.979542769471	0
0	6706	1608.445723615817	1
0	6709	1609.361091959702	0
0	6716	1611.431147892551	1
0	6719	1611.607170348077	0
0	6735	1612.953402771986	1
0	6736	1613.627807928333	0
0	6751	1614.46765923047	1
0	6754	1615.270642111538	0
0	6811	1637.707254899862	1
0	6814	1640.899688998803	0
0	6828	1643.345546089476	1
0	6830	1643.619273015812	2
0	6832	1644.439317303826	3
0	6834	1645.988792266307	4
0	6835	1646.362816744932	3
0	6845	1647.226479118598	2
0	6853	1647.685155175102	3
0	6854	1648.115992915987	2
0	6860	1648.651988674356	1
0	6865	1648.734948779928	0
0	6880	1649.428502208201	1
0	6883	1650.085572718208	0
0	6932	1656.944633274744	1
0	6934	1657.819300763048	2
0	6935	1658.258764082268	1
0	6940	1658.320244217576	0
0	6972	1667.072184529957	1
0	6973	1667.620805967736	0
0	7000	1675.022679145162	1
0	7001	1675.480785493591	0
0	7017	1679.037987738557	1
0	7024	1680.880167940298	2
0	7026	1681.368192285267	3
0	7027	1681.473159799517	2
0	7032	1682.120283239438	1
0	7037	1682.128013421717	0
0	7043	1682.526460669941	1
0	7045	1683.208996337429	0
0	7051	1684.198140137989	1
0	7055	1687.114771223237	0
0	7082	1693.487369287117	1
0	7087	1695.882211530745	0
0	7146	1710.677092209216	1
0	7147	1712.892869815826	0
0	7170	1717.91509004569	1
0	7172	1718.083897881119	2
0	7174	1718.537425308603	3
0	7177	1720.769536080615	2
0	7182	1721.105375537386	1
0	7188	1721.729948942059	2
0	7197	1724.875674364064	3
0	7198	1726.806586620004	2
0	7203	1726.971307413196	1
0	7209	1727.435647696776	2
0	7210	1728.123289831043	1
0	7216	1728.132035633282	2
0	7220	1729.610848512609	1
0	7225	1729.767513666715	0
0	7229	1730.775669001267	1
0	7231	1730.784670276449	2
0	7234	1732.976369495277	1
0	7241	1734.794294279837	2
0	7242	1735.147507999839	1
0	7248	1736.067661858259	2
0	7249	1736.666457270117	1
0	7255	1741.652971550992	0
0	7266	1743.444123217767	1
0	7269	1743.919525975037	2
0	7271	1744.079626526508	3
0	7272	1744.157900479921	2
0	7277	1744.667188802529	1
0	7282	1746.535359450824	0
0	7319	1753.213159856143	1
0	7323	1754.111242007798	2
0	7324	1754.668153888375	1
0	7329	1755.001046270945	0
0	7350	1760.535387056478	1
0	7352	1761.644760562508	2
0	7355	1763.837270205974	1
0	7363	1765.359163053268	2
0	7364	1765.855287698807	1
0	7370	1766.73627645254	0
0	7413	1775.165135458686	1
0	7416	1777.716018422789	0
0	7430	1780.4056494608	1
0	7434	1781.828614790874	2
0	7435	1782.623499996351	1
0	7440	1783.592042546487	0
0	7453	1784.102146656214	1
0	7457	1786.471250745722	0
0	7463	1786.758011399913	1
0	7464	1787.894608965908	0
0	7534	1812.630435735801	1
0	7537	1812.687157194189	2
0	7538	1813.588318117931	1
0	7544	1813.591642335767	2
0	7546	1814.572452636137	1
0	7551	1814.635575013016	0
0	7569	1819.332643210663	1
0	7573	1820.913503225571	0
0	7586	1823.46403467037	1
0	7589	1826.837531761211	0
0	7620	1839.342149614739	1
0	7621	1839.590590652748	0
0	7640	1841.20049544075	1
0	7644	1842.687104369125	2
0	7645	1843.307207457546	1
0	7651	1843.80534505948	0
0	7663	1846.390111564771	1
0	7666	1847.500518806499	0
0	7714	1856.871550753211	1
0	7716	1857.735211990033	0
0	7732	1862.062967532096	1
0	7733	1862.20697172013	0
0	7790	1874.57021817141	1
0	7792	1874.651406729257	2
0	7796	1880.73107565632	3
0	7797	1880.750140784621	2
0	7802	1880.955990249236	1
0	7807	1881.297800374508	0
0	7813	1881.386364279222	1
0	7815	1882.807060694461	0
0	7851	1896.699144148568	1
0	7858	1900.802973635165	2
0	7861	1901.639059547938	1
0	7867	1902.280062417752	0
0	7873	1902.350293767596	1
0	7877	1904.070555010445	0
0	7891	1911.79875332663	1
0	7894	1913.243184395976	0
0	7914	1918.134227166941	1
0	7915	1918.746750727269	0
0	7927	1921.291069898395	1
0	7928	1921.5022282701	0
0	7939	1924.245305015736	1
0	7943	1925.15701973091	2
0	7944	1925.695823056782	1
0	7949	1925.921654071648	0
0	7956	1926.461595456463	1
0	7957	1926.5300251215	0
0	7966	1927.941346995155	1
0	7971	1928.712819684377	2
0	7972	1928.840617130148	1
0	7978	1929.165259979966	2
0	7981	1930.743489379521	3
0	7983	1932.593038435523	2
0	7991	1933.149194897856	3
0	7992	1934.539746754233	2
0	8000	1935.933706256319	1
0	8006	1937.054488455913	0
0	8037	1941.927884202441	1
0	8040	1943.281474360197	0
0	8070	1949.111116689313	1
0	8071	1949.578253973824	0
0	8077	1950.42982944545	1
0	8079	1952.234836570824	0
0	8101	1956.082397369359	1
0	8102	1956.164101495582	0
0	8150	1967.030713208547	1
0	8153	1967.664800060669	0
0	8168	1968.255013488085	1
0	8169	1968.325518382906	0
0	8175	1968.854516122862	1
0	8179	1970.633687143148	0
0	8190	1970.807365754031	1
0	8192	1971.04218378497	2
0	8194	1971.219596314977	3
0	8196	1971.650113614158	4
0	8198	1972.149147428608	3
0	8208	1974.141868922647	2
0	8215	1975.80562963223	1
0	8223	1977.872478271149	0
0	8237	1979.131368655352	1
0	8240	1981.716697090536	0
0	8281	1992.352968128541	1
0	8284	1993.745478064688	0
0	8292	1995.86406868825	1
0	8293	1998.779201323096	0
0	8379	2023.672259105067	1
0	8380	2024.122207958771	0
0	8386	2024.3909694569	1
0	8387	2025.06846026504	0
0	8393	2025.28069868668	1
0	8394	2026.300634274417	0
0	8416	2031.162425829475	1
0	8420	2033.499234958575	0
0	8426	2033.99891646064	1
0	8428	2034.461449004186	0
0	8445	2035.930984140827	1
0	8447	2036.066062319469	2
0	8451	2038.355723863785	3
0	8454	2039.068658131322	2
0	8463	2041.670637101084	1
0	8469	2041.815039178354	2
0	8470	2041.872515385143	1
0	8475	2043.146330554936	0
0	8507	2048.448892913897	1
0	8508	2048.630701752578	0
0	8521	2049.90569101211	1
0	8522	2050.116082737914	0
0	8528	2050.939122658001	1
0	8529	2051.011449254012	0
0	8535	2051.015827362609	1
0	8537	2053.011189260317	2
0	8542	2056.061352951871	1
0	8547	2056.15124195578	0
0	8593	2064.815552429842	1
0	8594	2065.766450469723	0
0	8607	2067.432220260202	1
0	8610	2068.51612422134	0
0	8621	2069.013508077555	1
0	8625	2070.633449985212	0
0	8634	2071.661376414238	1
0	8636	2072.937899738903	0
0	8649	2078.445856071196	1
0	8650	2079.161284822598	0
0	8657	2081.392142399881	1
0	8659	2082.569561789148	0
0	8712	2108.205180512884	1
0	8714	2110.319924447209	2
0	8715	2111.170018420172	1
0	8720	2111.275879429531	0
0	8748	2121.407850278757	1
0	8749	2121.958735471121	0
0	8766	2126.631618791554	1
0	8767	2126.832373744816	0
0	8785	2129.499169170313	1
0	8790	2133.163405478383	0
0	8805	2137.26809652963	1
0	8806	2137.906864372415	0
0	8813	2139.028187288565	1
0	8818	2139.65755869866	0
0	8833	2141.644596519988	1
0	8834	2143.266731607728	0
0	8841	2143.995426057098	1
0	8843	2144.890618057468	2
0	8846	2145.369260290407	3
0	8847	2147.970275760421	2
0	8853	2148.610735555398	1
0	8858	2148.899413826197	0
0	8870	2149.76613855328	1
0	8872	2149.950863782911	2
0	8874	2151.632497982247	1
0	8880	2151.696748089049	2
0	8884	2153.770440039878	1
0	8889	2153.868681534515	0
0	8895	2154.107126813573	1
0	8896	2154.215696507582	0
0	8902	2155.19000226279	1
0	8905	2156.051924874896	0
0	8909	2156.065320264968	1
0	8915	2159.143082638778	2
0	8917	2159.888052976388	3
0	8918	2160.048309698617	2
0	8922	2160.639243005726	3
0	8924	2162.033059715927	4
0	8926	2162.462517932543	5
0	8928	2164.978514228793	6
0	8932	2166.799929226413	7
0	8934	2167.171434316604	6
0	8940	2173.934556716808	7
0	8942	2174.121205175062	8
0	8946	2174.76856729445	9
0	8949	2174.892079963864	10
0	8951	2175.160448362576	9
0	8960	2176.298697295688	8
0	8966	2177.128253050291	7
0	8972	2178.037823280789	6
0	8977	2178.063983514025	5
0	8983	2178.786466597226	4
0	8989	2179.838022062585	5
0	8991	2179.93020677149	6
0	8992	2180.007550208256	5
0	8996	2180.032251690722	6
0	9002	2180.813973453125	7
0	9004	2181.352684662726	8
0	9006	2181.554103715446	9
0	9009	2183.411495183496	8
0	9015	2183.956541528712	7
0	9021	2185.77080340263	8
0	9022	2185.82121555161	7
0	9028	2186.557226831227	8
0	9030	2186.751330184318	9
0	9033	2187.973177370615	8
0	9039	2188.899139906477	7
0	9044	2189.260846944477	6
0	9049	2189.692777539613	5
0	9055	2193.510097625899	4
0	9060	2193.683370075639	3
0	9065	2194.757844693782	2
0	9069	2195.238150122483	3
0	9072	2197.225968796919	2
0	9081	2200.791251199735	1
0	9087	2202.026050910531	0
0	9098	2203.762952403272	1
0	9100	2203.928179100645	2
0	9102	2204.067853085056	3
0	9104	2205.555275481664	2
0	9109	2205.624546373966	1
0	9114	2206.867911293919	0
0	9121	2208.172923234192	1
0	9125	2211.619895081103	0
0	9131	2211.655391582333	1
0	9132	2211.849166259468	0
0	9156	2214.089742435631	1
0	9158	2214.415813711337	0
0	9167	2215.57064630218	1
0	9169	2216.244066425609	2
0	9174	2217.965965719441	1
0	9181	2218.900821793393	0
0	9214	2230.840288779641	1
0	9216	2230.842698660174	2
0	9220	2232.3851893495	1
0	9225	2232.513916183379	0
0	9239	2233.912495896433	1
0	9244	2236.101197892472	0
0	9282	2244.528796233385	1
0	9283	2244.652780179277	0
0	9290	2245.207026564282	1
0	9297	2248.367702322333	2
0	9298	2249.662558212655	1
0	9305	2250.775583245034	0
0	9313	2251.082186502007	1
0	9315	2251.922522081874	0
0	9321	2251.926341573519	1
0	9323	2254.230231841278	0
0	9335	2255.036667545945	1
0	9336	2255.948338727511	0
0	9344	2256.776306487188	1
0	9351	2257.483220747227	0
0	9374	2263.027046959768	1
0	9375	2263.308605025469	0
0	9384	2264.180691806881	1
0	9385	2265.161909416215	0
0	9416	2275.171547731188	1
0	9420	2275.991689568293	2
0	9421	2278.924354262941	1
0	9433	2281.911128701314	0
0	9442	2283.427943294607	1
0	9444	2284.557404847566	2
0	9448	2285.836276089192	1
0	9453	2286.190344743607	0
0	9460	2287.790288206373	1
0	9464	2288.946462449698	2
0	9466	2289.088994751273	3
0	9469	2290.405915015576	2
0	9475	2292.282943261881	1
0	9482	2293.282452933014	0
0	9494	2295.138280852166	1
0	9496	2296.740166496931	2
0	9497	2297.166239689427	1
0	9502	2297.294849456353	0
0	9515	2298.906323580498	1
0	9518	2299.49741889923	2
0	9519	2299.701704786962	1
0	9524	2301.163228901637	0
0	9533	2304.676258417615	1
0	9537	2305.880912778405	0
0	9567	2311.814013611707	1
0	9570	2314.767467214121	0
0	9586	2316.833810438899	1
0	9588	2318.361466499803	0
0	9607	2320.69150763259	1
0	9611	2321.238319889757	2
0	9612	2322.250290773148	1
0	9617	2322.791409916697	0
0	9625	2323.705580037834	1
0	9626	2324.058439328923	0
0	9640	2325.996323273554	1
0	9645	2328.103742489197	2
0	9646	2328.257042679727	1
0	9652	2332.791151189359	0
0	9663	2334.581860126065	1
0	9664	2334.994091769224	0
0	9676	2336.00372205308	1
0	9680	2336.719701549279	2
0	9684	2339.486124367056	1
0	9690	2340.363423542417	0
0	9706	2342.26862677177	1
0	9709	2343.974849177479	0
0	9721	2346.300318360987	1
0	9723	2346.415189891202	2
0	9725	2346.436835611975	3
0	9727	2348.488337625965	4
0	9728	2349.12307953127	3
0	9733	2349.674863373373	2
0	9741	2352.721886638387	1
0	9746	2353.573834969661	0
0	9765	2356.945736294167	1
0	9768	2358.605981868704	0
0	9794	2366.576337325588	1
0	9798	2368.990679238451	2
0	9799	2369.503523277374	1
0	9804	2369.649955385101	0
0	9822	2372.331632139965	1
0	9823	2373.485331398737	0
0	9839	2378.076128113348	1
0	9843	2380.472866077615	2
0	9845	2380.638955138038	3
0	9847	2381.102974258505	4
0	9850	2382.190654345886	3
0	9856	2382.369551213727	4
0	9859	2382.936985268441	3
0	9865	2384.18634267385	4
0	9867	2385.027790956728	3
0	9873	2385.184363217187	4
0	9876	2385.528610189724	5
0	9877	2386.023571345181	4
0	9883	2386.752112390899	3
0	9888	2388.246150315812	2
0	9893	2388.935187831756	1
0	9897	2388.999406277519	2
0	9903	2393.897954681113	1
0	9910	2396.281025893312	2
0	9911	2397.014800239744	1
0	9917	2397.439526870084	2
0	9921	2399.487064455596	1
0	9927	2400.025241054715	2
0	9930	2400.61354704828	1
0	9935	2400.898635694728	0
0	9947	2403.564770657913	1
0	9949	2403.593705015827	2
0	9952	2404.66790387464	3
0	9954	2406.205315508569	2
0	9960	2406.411803786524	1
0	9968	2406.687628240289	2
0	9970	2406.950248940653	1
0	9977	2407.680662673808	0
0	9992	2410.089753015024	1
0	9995	2411.176341652906	0
0	10093	2439.160034931677	1
0	10095	2439.360616921928	2
0	10097	2439.673262089044	3
0	10104	2445.30764964719	2
0	10109	2445.427607175212	1
0	10115	2446.250342465754	0
0	10122	2447.393202178333	1
0	10124	2447.560768219105	2
0	10126	2449.677170423027	1
0	10133	2450.267846412125	0
0	10143	2451.161136417812	1
0	10145	2451.267906649847	2
0	10148	2455.079245753054	1
0	10154	2455.662406036557	2
0	10156	2455.887542823894	1
0	10161	2455.888240494969	0
0	10174	2458.708671062655	1
0	10177	2459.868413834279	0
0	10204	2469.442719312013	1
0	10210	2471.282570854893	0
0	10241	2479.93740697525	1
0	10250	2483.069139502409	0
0	10257	2484.112422040394	1
0	10258	2485.327617006982	0
0	10269	2487.120419294807	1
0	10271	2488.41322423418	0
0	10289	2492.087984689922	1
0	10291	2493.067081432667	2
0	10297	2498.000333494941	3
0	10299	2498.293999919206	4
0	10305	2501.425660616351	5
0	10307	2501.978895845746	6
0	10308	2504.147402195158	5
0	10315	2506.241432147183	4
0	10326	2508.509943924418	5
0	10327	2509.541396207452	4
0	10334	2509.971414952056	5
0	10335	2510.037626221853	4
0	10343	2512.563842613281	3
0	10349	2513.386874053808	2
0	10355	2513.863554749641	3
0	10361	2518.605871251354	2
0	10366	2519.279385367901	1
0	10371	2520.978997707708	0
0	10385	2523.710278923876	1
0	10388	2524.38401388887	0
0	10422	2534.322729476193	1
0	10425	2534.584196477197	0
0	10433	2535.146966487114	1
0	10434	2535.349769650192	0
0	10448	2536.9629688751	1
0	10452	2538.498377255947	2
0	10456	2539.612307488004	3
0	10462	2541.99206881864	2
0	10467	2542.570499471603	1
0	10474	2544.205990262918	0
0	10500	2549.075981511028	1
0	10502	2549.490748973716	2
0	10507	2551.029511987096	1
0	10515	2551.893179237965	2
0	10516	2552.037095626034	1
0	10522	2552.688991779685	0
0	10528	2553.47044197971	1
0	10532	2553.827050181677	2
0	10535	2555.740463943236	3
0	10537	2557.840230686516	2
0	10542	2558.112193629603	1
0	10550	2560.26768865662	0
0	10573	2562.457991007424	1
0	10574	2563.021729945797	0
0	10581	2563.782023257295	1
0	10583	2565.018718617608	0
0	10596	2565.798232793347	1
0	10599	2566.109716275796	2
0	10601	2567.673080883429	3
0	10603	2568.021718692463	4
0	10605	2568.025439894073	5
0	10606	2569.751370941055	4
0	10612	2570.293049979877	3
0	10617	2571.080661258763	2
0	10622	2571.682440865339	1
0	10630	2573.228097388786	0
0	10648	2578.83179229381	1
0	10651	2579.38878310682	0
0	10663	2581.07564168201	1
0	10664	2581.833216688491	0
0	10681	2584.775349457613	1
0	10683	2585.142436189031	2
0	10684	2585.393562489825	1
0	10689	2585.505506438052	0
0	10719	2590.35769846098	1
0	10720	2590.658851987031	0
0	10729	2594.386010451796	1
0	10730	2594.478992966373	0
0	10763	2600.057924673858	1
0	10764	2601.032457609182	0
0	10773	2602.619473565732	1
0	10775	2605.088494940622	2
0	10777	2605.314802777742	3
0	10779	2605.828504679931	4
0	10780	2605.94950658991	3
0	10785	2607.500293139959	2
0	10795	2611.212524568336	3
0	10796	2612.396621953936	2
0	10804	2613.096119259118	1
0	10812	2615.167261833518	0
0	10818	2615.213473118253	1
0	10819	2615.424993757008	0
0	10840	2617.046678037508	1
0	10842	2617.799636439414	0
0	10849	2618.680093525201	1
0	10851	2619.74741987068	0
0	10871	2626.87853512137	1
0	10874	2628.635637875491	0
0	10880	2628.651090924041	1
0	10882	2628.733453734934	2
0	10885	2630.200128247862	1
0	10891	2630.952852914603	0
0	10920	2644.617648041361	1
0	10921	2645.703162074159	0
0	10942	2652.227938823758	1
0	10943	2654.005279558806	0
0	10954	2656.072366345374	1
0	10958	2658.737881143295	0
0	10964	2658.756022377172	1
0	10965	2658.757713772944	0
0	10978	2661.198310742571	1
0	10980	2662.283381019414	0
0	11037	2677.418491068771	1
0	11040	2679.311160481689	0
0	11069	2690.01473359072	1
0	11071	2690.76204847724	2
0	11072	2690.789755327056	1
0	11079	2691.883164349724	2
0	11080	2692.03319384062	1
0	11087	2694.584209972235	0
0	11134	2708.70096729139	1
0	11136	2708.775940318686	2
0	11139	2710.76583472978	1
0	11144	2711.071815078648	0
0	11204	2722.385443981164	1
0	11208	2723.944101442722	2
0	11209	2724.092560299472	1
0	11214	2724.347222599538	0
0	11244	2730.425337572618	1
0	11245	2730.580949266328	0
0	11266	2736.655855137627	1
0	11267	2736.952392379012	0
0	11299	2744.665389378075	1
0	11300	2744.699167709688	0
0	11322	2748.882461929839	1
0	11323	2749.122954721166	0
0	11329	2749.677543397163	1
0	11331	2749.721225355038	2
0	11337	2752.217644358514	3
0	11339	2752.379040276617	2
0	11346	2754.035147244346	3
0	11355	2756.647869569283	4
0	11357	2756.917416045281	5
0	11358	2757.904562392093	4
0	11364	2758.254458850757	5
0	11366	2758.365081068726	6
0	11369	2759.636158028636	5
0	11374	2759.949476533417	4
0	11379	2760.011311464707	3
0	11385	2760.877642282361	4
0	11389	2765.049169567077	3
0	11394	2765.812007834359	2
0	11399	2765.928091508552	1
0	11406	2767.644067365316	0
0	11410	2768.462804706007	1
0	11414	2769.485503079459	2
0	11416	2770.133488820896	1
0	11423	2770.648335205867	2
0	11425	2771.826431876056	1
0	11431	2772.369206274015	2
0	11432	2772.454691508066	1
0	11439	2774.785230196917	0
0	11445	2776.868539569708	1
0	11450	2779.462711750144	0
0	11470	2781.179177587746	1
0	11471	2781.397237166841	0
0	11490	2784.987890620059	1
0	11491	2785.024939638996	0
0	11509	2788.203726897703	1
0	11511	2788.676731235994	2
0	11512	2788.701501084994	1
0	11517	2788.717539342691	0
0	11560	2803.454514948694	1
0	11561	2804.463577503228	0
0	11605	2811.108675899361	1
0	11606	2811.122084596142	0
0	11664	2816.878080918724	1
0	11669	2817.88998537977	2
0	11671	2819.688457933585	3
0	11673	2819.924918599282	4
0	11674	2820.308396937529	3
0	11680	2820.654402150134	2
0	11687	2820.946036630175	1
0	11695	2823.86658402946	0
0	11706	2824.443230457866	1
0	11707	2824.574608028627	0
0	11720	2827.455580475336	1
0	11723	2830.996085966078	0
0	11729	2832.062189964623	1
0	11732	2833.416782152432	0
0	11751	2837.095554132166	1
0	11753	2837.673677967962	0
0	11786	2843.224395014498	1
0	11787	2843.839470977873	0
0	11798	2845.25637738942	1
0	11803	2846.86088600644	0
0	11821	2849.746578085558	1
0	11824	2850.464858783029	2
0	11825	2854.987465605808	1
0	11832	2856.3914650599	2
0	11834	2856.690727894216	3
0	11835	2857.297556001792	2
0	11842	2858.845318116005	1
0	11847	2859.259492473735	0
0	11865	2863.838160151458	1
0	11871	2866.491221998747	0
0	11903	2877.117862645025	1
0	11905	2879.814724404176	0
0	11920	2883.709551528472	1
0	11924	2885.232767254034	2
0	11925	2885.30858017586	1
0	11930	2885.571789543244	0
0	11973	2892.321776354838	1
0	11974	2893.044859432151	0
0	11980	2893.652621978849	1
0	11981	2894.642909923558	0
0	11999	2901.319317966303	1
0	12002	2904.031063229961	0
0	12026	2909.928949227259	1
0	12030	2913.695843170452	2
0	12031	2913.745711219767	1
0	12036	2914.49212721461	0
0	12051	2918.478323807996	1
0	12054	2919.798270061301	0
0	12061	2920.862111968088	1
0	12062	2921.59122997654	0
0	12076	2922.375590867702	1
0	12078	2925.65177235244	0
0	12084	2925.821048499176	1
0	12085	2926.587428540356	0
0	12091	2926.71159884219	1
0	12093	2926.932671605417	2
0	12094	2926.936952052815	1
0	12100	2927.436103164132	2
0	12102	2927.671312099664	3
0	12103	2927.980786175669	2
0	12112	2930.051366411928	1
0	12118	2931.94843039722	0
0	12136	2935.451440113828	1
0	12138	2935.455021607954	0
0	12145	2937.08529233094	1
0	12146	2937.148146397749	0
0	12182	2943.574281233964	1
0	12183	2943.832613945098	0
0	12189	2943.858570910817	1
0	12190	2944.946440770508	0
0	12204	2949.822397230303	1
0	12207	2950.345375162292	0
0	12213	2950.741000993666	1
0	12217	2951.183328771072	2
0	12218	2953.285426560938	1
0	12224	2953.709528082209	2
0	12225	2954.023965868889	1
0	12230	2954.136064267761	0
0	12283	2967.461368879222	1
0	12285	2967.608111891105	2
0	12286	2969.29186445195	1
0	12293	2969.317018215055	0
0	12307	2971.324098425228	1
0	12310	2972.140203395336	0
0	12331	2976.995996358751	1
0	12332	2977.227489042838	0
0	12396	2994.393692300181	1
0	12397	2994.427351476245	0
0	12411	2996.774891045496	1
0	12412	2997.923109834473	0
0	12451	3006.293187510336	1
0	12452	3006.609883598865	0
0	12474	3011.888003246384	1
0	12475	3012.345695490415	0
0	12489	3014.444053672301	1
0	12492	3015.005813499406	2
0	12493	3015.594873587964	1
0	12500	3016.109290594987	0
0	12509	3020.171309098488	1
0	12512	3022.941132486809	0
0	12518	3022.958896421034	1
0	12520	3022.988520426064	2
0	12525	3023.369490387761	3
0	12526	3023.565853563416	2
0	12533	3023.927115729095	3
0	12536	3024.828244808463	2
0	12545	3026.859329813051	1
0	12550	3026.933622130615	0
0	12569	3028.024497148366	1
0	12570	3028.028889666026	0
0	12585	3029.382326304446	1
0	12586	3031.06301001795	0
0	12595	3031.49651199275	1
0	12596	3032.035094863225	0
0	12616	3037.286353430617	1
0	12619	3037.904476746144	0
0	12626	3038.686772832972	1
0	12628	3040.397387912141	2
0	12629	3041.253470140235	1
0	12634	3042.46523082965	0
0	12660	3050.917167401417	1
0	12663	3051.704245479969	0
0	12696	3064.056724140519	1
0	12697	3064.862447873354	0
0	12711	3067.89068202609	1
0	12712	3068.074628221363	0
0	12725	3070.399810801024	1
0	12726	3070.778580397337	0
0	12745	3074.504176210734	1
0	12751	3076.596440615136	0
0	12758	3077.783092624404	1
0	12760	3078.707465735818	2
0	12764	3079.964137920345	3
0	12765	3080.717919556491	2
0	12771	3080.989224146862	1
0	12777	3081.670517241795	2
0	12779	3082.569903996982	3
0	12780	3082.967889809514	2
0	12787	3084.118050753732	3
0	12788	3084.425225069212	2
0	12793	3084.843179979207	1
0	12799	3084.902453538638	2
0	12802	3088.14092288664	1
0	12807	3088.556682862816	0
0	12811	3089.30208908435	1
0	12815	3091.336965632824	2
0	12817	3091.685731896818	3
0	12823	3092.824571087452	2
0	12828	3093.561211629371	1
0	12837	3098.806395722707	0
0	12870	3104.373283943063	1
0	12871	3108.952707995749	0
0	12906	3111.838481166939	1
0	12908	3112.131076068775	2
0	12911	3114.031245293444	1
0	12918	3114.805822119245	2
0	12922	3115.919229165388	3
0	12925	3118.423305044387	2
0	12934	3121.797552963464	1
0	12941	3122.598249434923	2
0	12944	3124.000946634373	3
0	12945	3124.60659996167	2
0	12951	3125.72317080614	1
0	12957	3127.00387947425	2
0	12959	3128.616781416806	3
0	12960	3128.858106378885	2
0	12966	3129.31419444114	3
0	12968	3129.415083903162	4
0	12970	3130.061717596585	5
0	12971	3131.285758060296	4
0	12976	3131.593967331229	3
0	12982	3132.193840205677	4
0	12984	3132.590705323785	3
0	12990	3132.922510912192	2
0	12998	3133.780476776322	1
0	13004	3134.512009578134	0
0	13030	3139.145455518657	1
0	13033	3140.879888047483	0
0	13048	3145.624806407053	1
0	13050	3146.165232123886	2
0	13054	3148.177652288428	3
0	13059	3150.459620618815	4
0	13060	3152.227757325561	3
0	13066	3152.967671092569	2
0	13071	3153.231677733013	1
0	13081	3155.270487942125	0
0	13088	3155.491280480257	1
0	13090	3156.944476122122	0
0	13130	3166.842432959668	1
0	13133	3167.778617446311	2
0	13134	3168.009229135582	1
0	13140	3168.559489051549	0
0	13175	3177.362673974656	1
0	13179	3178.407001783829	2
0	13182	3180.133855885353	1
0	13188	3180.569656336166	2
0	13191	3181.289079627304	3
0	13192	3183.755274705725	2
0	13197	3183.973875309276	1
0	13202	3184.088373321206	0
0	13259	3196.547447781906	1
0	13262	3200.857819513355	0
0	13304	3211.484697836226	1
0	13305	3212.675219038537	0
0	13321	3215.111704641207	1
0	13322	3215.836572980558	0
0	13328	3215.946998408263	1
0	13330	3216.736045513248	0
0	13339	3219.771300147503	1
0	13341	3220.374017603823	2
0	13342	3220.450535941547	1
0	13349	3221.018307768452	2
0	13353	3222.623827247537	1
0	13359	3223.635587570573	0
0	13366	3223.963936883516	1
0	13367	3224.334249877065	0
0	13379	3227.672510426148	1
0	13380	3228.428317780659	0
0	13406	3231.890897212608	1
0	13408	3232.923138298254	2
0	13409	3233.067921394145	1
0	13415	3234.152723006536	0
0	13428	3235.111157972343	1
0	13430	3235.391248608494	2
0	13432	3235.663348819446	3
0	13433	3237.232631830213	2
0	13439	3237.274034456783	3
0	13443	3238.156650273704	2
0	13449	3239.598274935223	3
0	13451	3240.328802922772	2
0	13456	3241.81660006023	1
0	13466	3246.072841053895	2
0	13467	3246.087425111564	1
0	13475	3248.30933514975	2
0	13478	3248.428622402417	3
0	13480	3248.576728362794	2
0	13485	3248.662197428112	1
0	13491	3251.514346997598	0
0	13509	3253.808635330747	1
0	13511	3254.017913443379	0
0	13523	3255.126516777973	1
0	13524	3255.583403476336	0
0	13535	3256.757977688275	1
0	13537	3257.826004082369	0
0	13565	3262.80755297957	1
0	13567	3262.812963403448	2
0	13569	3263.099821492135	3
0	13570	3266.735158795432	2
0	13577	3267.633022021652	1
0	13582	3267.820724549237	0
0	13601	3271.226821357524	1
0	13602	3271.329088689318	0
0	13641	3276.479276374499	1
0	13644	3278.306053208447	0
0	13699	3295.967351230825	1
0	13700	3296.224709229514	0
0	13712	3298.987277893531	1
0	13714	3299.466697779605	0
0	13735	3302.848359776926	1
0	13737	3304.616855459497	0
0	13751	3306.97138801602	1
0	13753	3308.595650660541	0
0	13767	3310.496448898161	1
0	13770	3312.33222164398	0
0	13776	3312.475861054431	1
0	13777	3313.603053891298	0
0	13828	3324.086707913178	1
0	13831	3324.374609232392	0
0	13851	3327.321181785125	1
0	13852	3328.669214470688	0
0	13866	3331.105541933896	1
0	13870	3332.837770745689	2
0	13871	3333.273034339575	1
0	13878	3333.423007106943	2
0	13879	3333.428472602568	1
0	13885	3333.500776226939	2
0	13886	3333.50388649352	1
0	13893	3334.379673127795	2
0	13900	3335.975889812686	3
0	13901	3336.817640186113	2
0	13906	3337.25173549066	1
0	13911	3337.795763583417	0
0	13917	3338.556233996742	1
0	13919	3338.652485411451	2
0	13925	3340.883319035377	1
0	13930	3341.093169247018	0
0	13973	3353.201975384395	1
0	13982	3357.966309641661	2
0	13985	3360.262498632821	1
0	13991	3360.461092009423	2
0	13992	3360.732260625261	1
0	13998	3360.911769842617	2
0	13999	3361.539011523413	1
0	14005	3361.626936859823	2
0	14008	3361.733270534592	3
0	14013	3362.818837711677	2
0	14018	3362.822237351975	1
0	14025	3363.754595311384	0
0	14040	3365.704564206488	1
0	14041	3366.074496398996	0
0	14073	3370.30938343653	1
0	14077	3371.439318805303	2
0	14078	3371.459680463887	1
0	14083	3371.899847694238	0
0	14089	3372.58006398797	1
0	14092	3373.456126171629	0
0	14117	3379.284222058829	1
0	14119	3379.334117057069	2
0	14125	3381.429121249337	3
0	14126	3381.931080503051	2
0	14131	3382.128926105921	1
0	14136	3382.422801220684	0
0	14151	3383.260860551319	1
0	14153	3386.543257241612	0
0	14175	3391.920222692861	1
0	14176	3392.006074724648	0
0	14198	3396.002076983037	1
0	14201	3396.66828999008	2
0	14203	3397.077459694061	3
0	14206	3397.599805639089	4
0	14211	3400.97149772376	3
0	14217	3401.443154763493	4
0	14219	3402.86592293824	3
0	14224	3403.076298955044	2
0	14229	3403.136895834483	1
0	14236	3404.669531081691	0
0	14242	3404.923980873412	1
0	14245	3405.19400634079	0
0	14253	3408.334095685194	1
0	14256	3410.255720949891	0
0	14302	3415.918835073365	1
0	14305	3416.512608230167	0
0	14316	3418.142352285995	1
0	14320	3419.074574682828	2
0	14323	3419.813979930649	1
0	14328	3420.193433229844	0
0	14337	3423.119322278224	1
0	14345	3429.982969935828	2
0	14348	3430.243132750236	3
0	14351	3430.796450247457	2
0	14359	3432.034346089712	3
0	14361	3433.300659697541	4
0	14364	3434.057337137777	3
0	14372	3436.05808837243	2
0	14379	3436.645771801903	3
0	14380	3436.675275785993	2
0	14386	3436.851853487698	3
0	14387	3436.878393762519	2
0	14392	3437.076175525174	1
0	14400	3438.147740789274	2
0	14401	3438.196212075541	1
0	14407	3438.651586160862	0
0	14429	3442.250719892541	1
0	14435	3443.874079482302	2
0	14436	3444.772382428409	1
0	14442	3444.863190878014	2
0	14443	3445.172764959484	1
0	14451	3446.041913458291	2
0	14453	3447.866544183331	1
0	14459	3448.489837380997	0
0	14465	3448.724217305653	1
0	14466	3448.773110741632	0
0	14476	3452.30350670337	1
0	14478	3452.396168580866	2
0	14481	3453.292775607964	1
0	14487	3454.796441149257	2
0	14493	3457.401991066454	3
0	14494	3458.051667258419	2
0	14499	3458.438139344788	1
0	14504	3458.950667974275	0
0	14510	3458.994926701434	1
0	14512	3459.501163869862	0
0	14524	3460.663397849886	1
0	14525	3461.401189533796	0
0	14569	3471.220537160353	1
0	14570	3471.905631870911	0
0	14597	3478.0954979103	1
0	14600	3483.43257611886	0
0	14626	3496.295500642302	1
0	14629	3497.054684035809	0
0	14656	3501.477854363987	1
0	14657	3502.370514470813	0
0	14682	3505.513668845675	1
0	14686	3506.717351375808	2
0	14688	3507.421678537642	3
0	14690	3508.777825344476	4
0	14693	3510.574997435965	3
0	14699	3511.32845608339	4
0	14705	3512.369598240362	5
0	14706	3513.132063330922	4
0	14711	3513.273613874127	3
0	14717	3513.587088902921	2
0	14723	3514.002583533061	1
0	14729	3514.722543030138	0
0	14745	3516.068687699083	1
0	14750	3516.953184212525	0
0	14759	3517.706681322163	1
0	14761	3517.806649891967	2
0	14766	3519.86131973768	1
0	14771	3520.988250836981	0
0	14784	3522.892721986481	1
0	14786	3523.347602540973	2
0	14788	3523.456655775317	3
0	14789	3523.464257050087	2
0	14795	3526.082654960716	3
0	14798	3526.872338016084	2
0	14803	3526.972625267701	1
0	14809	3527.261445577072	2
0	14811	3528.904553520406	1
0	14817	3529.692885453686	2
0	14818	3529.69467746177	1
0	14822	3531.340276605447	2
0	14826	3531.838316829105	3
0	14827	3532.817183690194	2
0	14831	3533.042657299294	3
0	14833	3533.320954150541	4
0	14838	3535.760817336377	3
0	14843	3536.091980377976	2
0	14848	3536.546946202627	1
0	14852	3537.021134394592	2
0	14857	3538.514718381036	1
0	14863	3538.627984388049	2
0	14864	3538.811933516732	1
0	14875	3540.377248534851	0
0	14930	3553.548708323297	1
0	14933	3554.83992401666	0
0	14949	3563.35409270871	1
0	14950	3563.909673908082	0
0	14970	3567.018031239918	1
0	14972	3568.221067508471	0
0	14978	3568.42824583717	1
0	14980	3569.139697045976	2
0	14981	3569.469438790942	1
0	14987	3570.219622261801	0
0	14993	3571.15034894569	1
0	14995	3571.886863571686	2
0	14996	3572.311818324685	1
0	15001	3575.0480188585	0
0	15005	3575.241310782599	1
0	15007	3575.544231984985	2
0	15011	3576.168295952989	3
0	15014	3577.354329107881	2
0	15021	3578.211743505878	3
0	15024	3579.534201748653	4
0	15025	3579.587595451956	3
0	15032	3579.828189047273	2
0	15038	3580.735796287081	1
0	15045	3580.8735623162	2
0	15046	3580.954497472067	1
0	15050	3581.170000432496	2
0	15053	3581.62791327522	1
0	15057	3582.014915051653	2
0	15067	3585.440001866459	1
0	15072	3586.574240481223	0
0	15078	3587.036847641801	1
0	15081	3587.951791908716	0
0	15104	3591.162459316853	1
0	15106	3591.275003983944	2
0	15109	3592.389284638759	1
0	15114	3592.917135055187	0
0	15142	3596.68184455282	1
0	15146	3597.501753295711	2
0	15151	3599.42020739114	1
0	15156	3600.106263577756	0
0	15169	3603.443285631544	1
0	15175	3604.639170511696	0
0	15206	3610.00428175949	1
0	15208	3610.497295919219	2
0	15209	3610.928338825875	1
0	15215	3611.069112769303	2
0	15216	3611.347683228449	1
0	15222	3611.678154623203	2
0	15223	3612.580974775985	1
0	15228	3612.868359882388	0
0	15241	3615.470713649512	1
0	15243	3615.655869958221	2
0	15245	3616.034762827516	1
0	15251	3616.499838530514	0
0	15255	3617.265493484105	1
0	15257	3618.267151527579	2
0	15259	3619.856676689629	3
0	15263	3622.666380312038	4
0	15266	3624.473484280158	5
0	15267	3624.606963018832	4
0	15273	3625.353707526743	3
0	15277	3626.642223373321	4
0	15282	3628.18526723985	3
0	15288	3629.477821127989	4
0	15290	3629.759802351309	5
0	15292	3631.63453725664	6
0	15296	3632.335174925185	7
0	15297	3632.856784707388	6
0	15303	3637.155940533066	7
0	15311	3639.902050482523	6
0	15316	3639.962834724578	5
0	15323	3641.000190289092	4
0	15330	3644.651744096863	3
0	15337	3646.145297787485	2
0	15342	3646.3096927852	1
0	15348	3646.823514728604	0
0	15379	3649.183642272656	1
0	15380	3649.193044427994	0
0	15397	3651.579062061098	1
0	15399	3652.141537391581	2
0	15400	3653.123740297748	1
0	15405	3653.816896041597	0
0	15464	3669.448162134963	1
0	15466	3669.736248404802	2
0	15467	3669.958891563837	1
0	15476	3671.790405639032	2
0	15478	3672.128218641506	3
0	15482	3674.736257906343	4
0	15483	3674.817544286562	3
0	15488	3675.172354453885	2
0	15493	3675.477244041445	1
0	15498	3675.674357689997	0
0	15504	3676.543397233433	1
0	15509	3678.05808687936	2
0	15511	3678.461207298268	1
0	15521	3681.37841643549	2
0	15523	3681.627782492749	3
0	15525	3682.020652502799	4
0	15526	3682.035687141919	3
0	15531	3682.151072253852	2
0	15536	3682.652166887409	1
0	15542	3683.03074731122	2
0	15544	3683.723691874561	1
0	15550	3684.281846648767	2
0	15555	3685.078842825018	3
0	15556	3686.856192465126	2
0	15562	3686.886786700414	3
0	15563	3688.020483712411	2
0	15570	3688.61675041849	1
0	15575	3689.246255289895	0
0	15579	3690.760256285717	1
0	15583	3691.299225741336	2
0	15585	3691.469933250779	3
0	15589	3694.448348860515	2
0	15594	3694.995758050906	1
0	15599	3695.841451908397	0
0	15607	3698.23561251811	1
0	15609	3698.557715476404	2
0	15611	3699.455014650423	1
0	15616	3700.063993561646	0
0	15627	3700.460081259992	1
0	15630	3701.840976729938	0
0	15662	3707.621259388655	1
0	15663	3710.614257879766	0
0	15692	3718.594303541958	1
0	15693	3718.896463537073	0
0	15704	3720.288684882941	1
0	15708	3721.326600418534	0
0	15728	3725.797160741855	1
0	15729	3725.844080732666	0
0	15748	3734.30577315978	1
0	15751	3735.561445884695	0
0	15765	3736.665042358227	1
0	15772	3741.629645488911	0
0	15818	3750.144891998099	1
0	15820	3751.263233118161	0
0	15867	3780.560245160751	1
0	15869	3781.063402190013	2
0	15870	3781.088519220506	1
0	15876	3781.961939047764	0
0	15907	3796.103748197799	1
0	15908	3796.324989932012	0
0	15915	3796.37733270976	1
0	15916	3796.697221245366	0
0	15924	3797.314113001569	1
0	15927	3798.447133751554	0
0	15935	3799.883898020459	1
0	15937	3800.376585365015	0
0	16011	3822.930183095182	1
0	16012	3824.466471490581	0
0	16066	3837.69470908856	1
0	16068	3837.960548230075	0
0	16097	3842.629050038958	1
0	16098	3843.345077212003	0
0	16104	3843.647471966791	1
0	16107	3844.951453362681	0
0	16114	3846.313931485942	1
0	16116	3846.344419419097	2
0	16117	3846.978910069416	1
0	16122	3847.339684081196	0
0	16160	3858.616974111925	1
0	16164	3860.666411250999	0
0	16193	3866.722454192832	1
0	16196	3868.237925879443	0
0	16215	3871.270187756183	1
0	16219	3872.886158232894	0
0	16225	3873.372351785382	1
0	16226	3873.790663386958	0
0	16256	3876.340269183125	1
0	16260	3876.955454740952	0
0	16281	3879.230917184446	1
0	16283	3880.206945077475	0
0	16299	3883.457922493624	1
0	16300	3884.158900238863	0
0	16320	3888.439969002136	1
0	16321	3888.606734284365	0
0	16337	3890.294904235601	1
0	16338	3891.046761321009	0
0	16344	3891.077340434374	1
0	16347	3891.351938243885	2
0	16348	3891.919178981209	1
0	16355	3892.687154268069	2
0	16357	3893.272355325744	1
0	16362	3893.480866546548	0
0	16376	3896.057111602443	1
0	16377	3896.088100321939	0
0	16402	3905.074205738155	1
0	16403	3905.566858357003	0
0	16429	3908.57973778889	1
0	16430	3908.917106752236	0
0	16458	3912.380851868897	1
0	16461	3912.7696721807	0
0	16468	3913.354618182393	1
0	16471	3914.071267339474	2
0	16476	3917.12467608024	1
0	16484	3917.801351872887	0
0	16490	3919.084671940327	1
0	16492	3919.32658570447	2
0	16494	3920.171825962412	1
0	16499	3921.505553310848	0
0	16517	3923.651179581643	1
0	16518	3923.823544171783	0
0	16557	3934.148973314841	1
0	16560	3934.346767200778	2
0	16561	3934.364211465208	1
0	16568	3937.164129788255	2
0	16569	3938.319952169656	1
0	16575	3939.412621403512	2
0	16580	3944.706909091527	3
0	16581	3945.350022847299	2
0	16586	3946.002687633623	1
0	16591	3946.176165303622	0
0	16597	3946.518053700065	1
0	16599	3947.291556173059	0
0	16611	3949.362538810907	1
0	16612	3949.462134599133	0
0	16658	3961.302333137117	1
0	16661	3962.759676511342	0
0	16672	3965.681599311065	1
0	16674	3967.307039529378	0
0	16680	3967.996858054779	1
0	16683	3968.949869456728	0
0	16690	3969.765843069185	1
0	16691	3969.986705097037	0
0	16736	3978.753790507924	1
0	16737	3979.686103676073	0
0	16753	3983.378690191451	1
0	16754	3983.397636069073	0
0	16770	3987.926394057399	1
0	16771	3989.132176141117	0
0	16782	3990.782832078917	1
0	16783	3992.647971583018	0
0	16807	3997.563407166224	1
0	16809	3998.10286179844	2
0	16811	3998.549062789387	3
0	16814	4001.343396071456	2
0	16824	4003.605917142968	1
0	16832	4006.21990464357	0
0	16850	4008.513344607981	1
0	16851	4008.975387305378	0
0	16879	4014.652927641395	1
0	16881	4016.848326435226	0
0	16896	4020.845969208252	1
0	16897	4022.064009782994	0
0	16920	4026.211409023314	1
0	16921	4026.814667723537	0
0	17006	4045.823131487278	1
0	17007	4046.14303484074	0
0	17038	4051.262203358208	1
0	17040	4052.387156904037	0
0	17049	4053.47549865939	1
0	17051	4054.05351285882	2
0	17052	4054.551632833676	1
0	17058	4055.226103906442	0
0	17064	4055.483989585531	1
0	17065	4055.537904683817	0
0	17071	4055.700567551029	1
0	17076	4056.164577078624	0
0	17082	4056.747840518941	1
0	17084	4057.947880122059	2
0	17085	4059.074296050857	1
0	17091	4059.254241314741	2
0	17094	4061.373198153014	1
0	17101	4061.645678138521	2
0	17102	4062.346767320785	1
0	17107	4062.600193507374	0
0	17114	4063.465188871203	1
0	17116	4063.505445753961	2
0	17119	4067.141092964267	3
0	17121	4067.332412385912	4
0	17122	4067.407728963926	3
0	17128	4068.14607293895	2
0	17134	4068.333494811753	3
0	17135	4068.371116255986	2
0	17140	4068.566378482457	1
0	17149	4070.457796314807	0
0	17179	4074.606758483529	1
0	17181	4074.995009826705	2
0	17183	4075.906568952235	3
0	17184	4076.628122030834	2
0	17192	4078.026196524343	1
0	17198	4078.04793373965	2
0	17199	4078.725637471032	1
0	17213	4083.137900679438	0
0	17226	4084.327956609687	1
0	17229	4084.90269291674	2
0	17231	4085.100871665419	3
0	17233	4085.906665275948	4
0	17234	4089.693419157077	3
0	17241	4090.212020637138	2
0	17246	4090.801273902411	1
0	17251	4090.858511329433	0
0	17265	4092.454306694148	1
0	17266	4092.576101659544	0
0	17282	4094.914960422499	1
0	17283	4095.156705781791	0
0	17313	4105.090734900132	1
0	17315	4105.855652656387	0
0	17324	4107.484386589696	1
0	17325	4109.480683287618	0
0	17342	4110.355240119501	1
0	17344	4111.022252321603	2
0	17346	4111.83978981889	3
0	17348	4111.993855297982	4
0	17352	4113.620737136855	5
0	17353	4115.274672775162	4
0	17359	4115.954432581447	3
0	17364	4116.230727779912	2
0	17372	4118.108062712606	1
0	17377	4118.481147904876	0
0	17383	4119.123445630026	1
0	17385	4119.470645031801	2
0	17386	4120.324204019186	1
0	17393	4121.130066061927	2
0	17394	4121.739074868897	1
0	17402	4122.226998323934	2
0	17405	4124.935588745968	1
0	17412	4127.416879012414	2
0	17414	4128.968629490364	1
0	17419	4129.084668503425	0
0	17438	4136.174774425231	1
0	17439	4137.10297501543	0
0	17452	4139.589128455131	1
0	17453	4140.797459309557	0
0	17459	4141.418733619994	1
0	17461	4142.114784284095	0
0	17570	4176.265647767011	1
0	17574	4176.794862756776	2
0	17575	4177.7559455131	1
0	17580	4177.957170647206	0
0	17586	4178.298281051747	1
0	17588	4179.172467865595	2
0	17591	4179.664513530767	1
0	17596	4180.634657304143	0
0	17641	4189.656957543924	1
0	17642	4190.19949071673	0
0	17666	4193.114341518806	1
0	17670	4194.178486448166	2
0	17672	4194.64473726711	3
0	17673	4195.459630499514	2
0	17682	4197.234492932955	1
0	17689	4198.300005129524	0
0	17706	4201.085990823677	1
0	17707	4201.952915209488	0
0	17731	4208.898851129263	1
0	17735	4210.061158091001	2
0	17737	4210.427229489297	3
0	17738	4210.874909502553	2
0	17743	4212.361625495654	1
0	17748	4212.377354004085	0
0	17754	4212.583606868506	1
0	17759	4213.301544684798	0
0	17770	4214.125074931398	1
0	17772	4214.428815415618	0
0	17785	4217.547796871092	1
0	17788	4218.233436125433	0
0	17824	4223.921146437089	1
0	17825	4226.66228008428	0
0	17839	4229.575644667858	1
0	17841	4230.962580856149	2
0	17844	4231.230567314457	1
0	17850	4231.430240798914	0
0	17856	4231.585937083492	1
0	17859	4231.926502718504	2
0	17861	4232.056183811006	3
0	17864	4232.458276219408	2
0	17871	4233.733908441804	1
0	17877	4234.873638830905	2
0	17879	4236.002106637314	1
0	17885	4236.212775937298	2
0	17886	4236.496371384083	1
0	17890	4236.783441349857	2
0	17895	4237.303536530984	1
0	17899	4237.448385542073	2
0	17901	4238.166191782296	3
0	17910	4239.968167122712	2
0	17915	4240.419320584049	1
0	17921	4245.13212748499	0
0	17933	4246.138367928094	1
0	17936	4248.857056390939	0
0	17948	4250.8984101686	1
0	17949	4251.454660664172	0
0	17968	4252.829484045969	1
0	17970	4253.131101334743	2
0	17971	4253.37716618289	1
0	17976	4253.453198891603	0
0	17996	4258.015558518068	1
0	17998	4258.889044696093	2
0	18002	4260.241542411059	3
0	18004	4260.55188823861	4
0	18006	4261.450037161596	3
0	18011	4261.910065400583	2
0	18018	4262.70073455956	1
0	18026	4264.421969356638	0
0	18037	4265.084087755308	1
0	18039	4265.162062851493	2
0	18041	4267.234016268013	3
0	18043	4267.752101962941	4
0	18048	4269.705843366663	5
0	18049	4270.016458138343	4
0	18057	4270.982744569419	5
0	18058	4271.707546047888	4
0	18063	4271.757125425189	3
0	18068	4271.84765868113	2
0	18073	4272.65572123611	1
0	18084	4275.618767149779	2
0	18086	4276.204661409599	3
0	18089	4279.031963856596	2
0	18095	4279.481100459539	1
0	18101	4280.228508265838	0
0	18116	4282.181023929779	1
0	18117	4283.253195612838	0
0	18136	4286.889516435286	1
0	18138	4287.584436738876	2
0	18140	4289.082020106505	3
0	18142	4289.611427339725	4
0	18149	4291.162339005316	5
0	18150	4291.310021634251	4
0	18155	4292.056451549814	3
0	18164	4293.01120663841	4
0	18165	4293.205269381619	3
0	18170	4293.803505044473	2
0	18176	4293.961742040963	3
0	18179	4295.155461136424	2
0	18185	4295.406513388876	3
0	18186	4295.650716110058	2
0	18191	4295.807368257954	1
0	18195	4295.823393200515	2
0	18197	4296.076510953142	3
0	18204	4299.816149653814	2
0	18210	4300.60955894138	3
0	18215	4303.348925693315	2
0	18222	4303.849002772356	3
0	18225	4304.724462862142	4
0	18227	4305.089445744551	5
0	18228	4305.174789869693	4
0	18233	4305.93519273117	3
0	18238	4305.967097218414	2
0	18244	4306.149738499226	3
0	18245	4306.806586277434	2
0	18250	4310.526633948452	1
0	18256	4312.706128998786	0
0	18278	4315.552952023158	1
0	18281	4319.221863746912	0
0	18305	4326.189096752539	1
0	18308	4326.882136073483	0
0	18326	4332.47965915752	1
0	18328	4332.496470955784	2
0	18335	4334.378533757419	3
0	18336	4334.998216853638	2
0	18342	4336.115830209437	1
0	18347	4336.592964790291	0
0	18407	4346.732590712433	1
0	18411	4347.137326962679	0
0	18452	4358.277673805684	1
0	18455	4359.781592261429	0
0	18478	4363.781769753004	1
0	18479	4364.729659467774	0
0	18485	4366.942441985492	1
0	18487	4367.769086569797	0
0	18498	4369.831920124281	1
0	18504	4371.433467852743	0
0	18510	4372.242915079534	1
0	18513	4372.753607720364	2
0	18515	4372.933022314386	3
0	18516	4373.013012028759	2
0	18522	4373.373518668197	1
0	18528	4374.897300335551	0
0	18534	4375.044517449778	1
0	18535	4376.046398184315	0
0	18571	4386.791728665507	1
0	18572	4386.968048526054	0
0	18610	4392.107903332385	1
0	18612	4393.01867031122	0
0	18629	4397.826687321112	1
0	18631	4397.935985420378	2
0	18632	4399.531006820705	1
0	18639	4400.590262738549	0
0	18669	4411.589120703686	1
0	18670	4411.682491816573	0
0	18692	4426.233569644825	1
0	18695	4429.317998771226	0
0	18701	4431.792920352383	1
0	18703	4431.992751871285	2
0	18704	4434.280634399462	1
0	18712	4438.01414298299	0
0	18731	4440.138393924197	1
0	18732	4440.580892851614	0
0	18736	4441.356455975808	1
0	18738	4443.952482514322	2
0	18741	4444.43807764985	1
0	18747	4448.288078178378	2
0	18749	4448.637185828059	3
0	18753	4450.674378194424	2
0	18761	4454.86635205742	3
0	18768	4456.854947624893	4
0	18769	4457.466607891073	3
0	18775	4458.42933569411	4
0	18779	4459.467100222069	5
0	18782	4460.118896395331	4
0	18789	4461.822724745108	3
0	18795	4462.800042887517	2
0	18801	4463.872572433154	1
0	18807	4464.763313127555	2
0	18808	4464.776452194575	1
0	18812	4464.944349169575	2
0	18820	4467.613833415956	1
0	18826	4467.618362291585	2
0	18828	4468.697158253708	3
0	18829	4468.879239684302	2
0	18835	4470.627511488537	1
0	18840	4470.718323165502	0
0	18854	4474.409123960542	1
0	18859	4474.898829948064	2
0	18861	4476.528431026283	1
0	18866	4477.077414438552	0
0	18872	4477.660138021553	1
0	18876	4480.863259733433	0
0	18902	4484.158058101189	1
0	18903	4485.567140110403	0
0	18909	4485.770050114531	1
0	18912	4487.354014293667	0
0	18929	4489.74547493352	1
0	18930	4490.429880596396	0
0	18942	4494.491825930631	1
0	18943	4496.129501211214	0
0	18967	4503.263977834963	1
0	18969	4504.857266191348	2
0	18973	4505.369464856941	3
0	18974	4508.291833424675	2
0	18981	4508.837324911985	3
0	18982	4509.908902776408	2
0	18990	4511.119677907139	3
0	18991	4513.578704481259	2
0	18997	4513.647323333127	3
0	18999	4513.781350309676	2
0	19006	4514.312254991371	1
0	19012	4515.007626369639	0
0	19018	4515.997910620633	1
0	19020	4516.494154937187	0
0	19035	4518.38984590689	1
0	19039	4519.367280683239	2
0	19040	4519.916330670707	1
0	19049	4520.326845919571	0
0	19085	4527.940585400218	1
0	19090	4530.981764015164	0
0	19096	4531.297743758033	1
0	19098	4531.319604025591	2
0	19099	4531.36511061747	1
0	19105	4531.989741536926	2
0	19108	4533.202294043629	1
0	19113	4533.303237755631	0
0	19134	4535.772691539361	1
0	19136	4535.834344419421	2
0	19138	4536.361454796373	3
0	19140	4536.979028611146	4
0	19142	4537.215454859031	3
0	19147	4537.468525782739	2
0	19153	4537.935307106787	1
0	19158	4538.031424968061	0
0	19167	4541.608257640154	1
0	19169	4542.087517208343	0
0	19181	4543.114478028563	1
0	19182	4543.157788584416	0
0	19188	4543.494771552588	1
0	19189	4543.645337318838	0
0	19217	4546.115330288314	1
0	19219	4546.283489176967	2
0	19221	4546.355555800462	3
0	19222	4547.186085353938	2
0	19228	4547.934967001191	3
0	19231	4550.220504837597	2
0	19236	4550.840045438762	1
0	19243	4551.964864050256	0
0	19256	4555.110855428143	1
0	19260	4555.203242898637	2
0	19261	4555.290127814527	1
0	19267	4555.645015065409	2
0	19273	4557.200703041605	3
0	19274	4559.706368684285	2
0	19278	4561.838309432053	3
0	19284	4563.175349405989	4
0	19286	4564.460909301692	3
0	19291	4564.627017838757	2
0	19299	4565.155040249998	1
0	19304	4566.543014710684	0
0	19312	4567.593174314722	1
0	19314	4567.728427020488	2
0	19316	4568.362186165922	3
0	19317	4568.815060567352	2
0	19325	4569.943242547459	3
0	19326	4571.365874941218	2
0	19331	4571.641653502109	1
0	19337	4571.795662252531	2
0	19339	4572.359589742995	3
0	19340	4572.67514392645	2
0	19347	4573.080575101965	1
0	19352	4575.016615921254	0
0	19358	4576.836226599331	1
0	19361	4578.171535831253	2
0	19362	4578.443904470459	1
0	19368	4578.823046272628	2
0	19371	4579.200676838943	1
0	19375	4579.434592323117	2
0	19378	4580.005753243306	1
0	19383	4580.525126091469	0
0	19390	4582.936960116832	1
0	19394	4586.186064107793	2
0	19395	4586.990376332235	1
0	19402	4588.162224797604	2
0	19403	4588.322032430495	1
0	19409	4588.842231644728	0
0	19443	4596.49676248204	1
0	19445	4600.264541240604	2
0	19447	4600.365913501832	3
0	19449	4600.740341045464	4
0	19450	4601.728136345528	3
0	19455	4601.859123864356	2
0	19462	4603.423095351856	1
0	19468	4604.997690231671	0
0	19474	4605.14852461619	1
0	19476	4605.378454592315	2
0	19478	4606.567387520918	1
0	19485	4607.002415998369	2
0	19486	4607.108920612944	1
0	19491	4607.821816615472	0
0	19519	4613.87839603296	1
0	19520	4614.908904443601	0
0	19542	4623.847563689332	1
0	19546	4624.486369709153	2
0	19548	4624.509145042852	3
0	19549	4626.139945837929	2
0	19558	4628.283692255666	3
0	19560	4630.484276291096	4
0	19561	4630.853333792789	3
0	19567	4631.854150743915	2
0	19574	4632.734030207015	1
0	19580	4633.631487509057	0
0	19598	4642.423339210385	1
0	19601	4643.475466533384	2
0	19602	4645.68988483513	1
0	19608	4646.488440684166	2
0	19611	4647.742968325938	3
0	19613	4647.966462285479	4
0	19614	4648.137130806015	3
0	19619	4648.495454985303	2
0	19624	4649.065358112734	1
0	19631	4650.8536302563	0
0	19694	4680.24122197308	1
0	19695	4680.586217227866	0
0	19709	4684.271097444508	1
0	19711	4684.501705266716	0
0	19719	4687.280653063942	1
0	19720	4690.784578325471	0
0	19742	4696.03937767577	1
0	19743	4696.243909800204	0
0	19757	4698.337813728779	1
0	19758	4699.210785474842	0
0	19805	4726.364358357843	1
0	19806	4726.891663377829	0
0	19842	4733.105955794558	1
0	19850	4735.575866481374	0
0	19861	4735.837414590776	1
0	19863	4735.957506029244	2
0	19864	4736.062507633222	1
0	19871	4736.652298976782	2
0	19873	4739.081028721532	1
0	19878	4740.187293926528	0
0	19886	4741.354667614651	1
0	19890	4744.603260341738	0
0	19921	4748.510621015039	1
0	19922	4748.705177285777	0
0	20026	4775.521725626795	1
0	20027	4777.336561780746	0
0	20035	4778.735081493651	1
0	20038	4780.122389626403	0
0	20047	4781.134037617682	1
0	20048	4782.219951696431	0
0	20065	4785.261551065898	1
0	20067	4785.656141769425	2
0	20070	4786.686699165038	1
0	20078	4787.834174271532	2
0	20079	4789.264378152682	1
0	20085	4789.906604771639	2
0	20090	4792.660714855347	1
0	20096	4793.15217053008	2
0	20097	4793.255731390141	1
0	20102	4795.363357327192	0
0	20142	4807.17931267805	1
0	20143	4807.712206634838	0
0	20169	4818.144586544216	1
0	20171	4818.594207557116	0
0	20178	4819.391413620933	1
0	20180	4820.164583690529	2
0	20181	4820.397914414461	1
0	20188	4821.202359795086	2
0	20189	4821.733335594855	1
0	20197	4822.379539036432	2
0	20199	4822.554019512223	3
0	20200	4823.403151309467	2
0	20205	4823.610702362073	1
0	20211	4824.869040724286	0
0	20243	4833.692334140198	1
0	20244	4833.880096339049	0
0	20315	4843.503419386207	1
0	20316	4843.753571777989	0
0	20407	4877.538760262113	1
0	20408	4877.653884104356	0
0	20450	4884.394838374122	1
0	20454	4885.57950846614	2
0	20457	4888.329044882198	1
0	20462	4889.518470958634	0
0	20480	4891.525614247131	1
0	20481	4891.677248513766	0
0	20519	4898.057176231564	1
0	20524	4901.148163869925	0
0	20576	4917.847314988215	1
0	20577	4918.146721939773	0
0	20601	4935.736178581308	1
0	20602	4936.035230547061	0
0	20618	4937.342061414722	1
0	20619	4938.545847349182	0
0	20625	4938.772797573853	1
0	20627	4939.556510416778	2
0	20631	4939.804447878781	1
0	20636	4940.576272725275	0
0	20656	4946.119571721996	1
0	20657	4946.24511881423	0
0	20681	4955.665606670619	1
0	20685	4958.049226536374	0
0	20704	4961.980431355374	1
0	20705	4962.697897156533	0
0	20731	4969.287408164228	1
0	20734	4971.590677359921	2
0	20735	4972.520855614397	1
0	20740	4973.271120741276	0
0	20751	4974.329663423638	1
0	20752	4974.625425299882	0
0	20758	4974.961137312641	1
0	20760	4975.858250729966	0
0	20766	4975.945657331246	1
0	20769	4976.034377786468	0
0	20775	4977.187782844884	1
0	20778	4977.622582387425	0
0	20790	4979.44893073091	1
0	20791	4979.611338194451	0
0	20819	4985.081719771397	1
0	20820	4985.225200179902	0
0	20835	4988.546601686643	1
0	20836	4989.312808503169	0
0	20842	4989.954915914432	1
0	20843	4989.97198446605	0
0	20849	4990.358757266057	1
0	20851	4990.661959087074	2
0	20852	4990.831066623957	1
0	20856	4993.593461735776	2
0	20858	4994.518209513566	3
0	20865	4996.427327802592	4
0	20867	4996.619452577291	3
0	20871	4996.701942371549	4
0	20875	4999.11523143768	3
0	20881	4999.776351547077	2
0	20886	5000.228397747191	1
0	20893	5001.836620825268	2
0	20894	5002.306664346122	1
0	20900	5004.092420568074	0
0	20906	5004.261388088916	1
0	20907	5004.457143327182	0
0	20922	5007.243564217288	1
0	20924	5007.29630523121	2
0	20927	5007.583125442467	1
0	20932	5008.296281827387	0
0	20952	5009.458175962648	1
0	20954	5009.466679639609	2
0	20957	5009.568262330645	3
0	20959	5010.14405095344	4
0	20960	5010.224469975184	3
0	20965	5010.921217169654	2
0	20971	5011.653397030732	3
0	20972	5012.383249477925	2
0	20976	5014.291836203666	3
0	20984	5016.306774341493	2
0	20990	5019.669765429636	1
0	20999	5020.489575028659	2
0	21000	5020.876685191004	1
0	21005	5021.014595581846	0
0	21019	5023.565301687488	1
0	21023	5026.800962451855	0
0	21075	5031.735093868072	1
0	21078	5032.0879781899	2
0	21080	5032.282801622679	1
0	21085	5032.423854339417	0
0	21113	5033.942413119778	1
0	21115	5034.06924712664	2
0	21121	5037.10266711475	1
0	21127	5037.308807063508	0
0	21138	5041.168755797644	1
0	21142	5042.952305155966	2
0	21144	5043.105579932043	3
0	21145	5044.322567037198	2
0	21150	5044.733151310141	1
0	21155	5045.04722760363	0
0	21171	5053.330434594403	1
0	21172	5054.714770099697	0
0	21191	5059.147904063352	1
0	21192	5059.806372380167	0
0	21198	5060.01159153037	1
0	21200	5061.616695486584	0
0	21228	5071.108541054801	1
0	21229	5072.311859581981	0
0	21236	5073.161698597531	1
0	21239	5074.742853513572	0
0	21273	5078.703740340366	1
0	21275	5079.24508509416	2
0	21276	5079.482364083887	1
0	21281	5079.584768145892	0
0	21316	5090.910423238214	1
0	21317	5090.967993154613	0
0	21326	5092.502257708156	1
0	21327	5092.581979349265	0
0	21363	5098.030306328451	1
0	21368	5100.239450150664	0
0	21374	5100.476815483678	1
0	21376	5100.759874884091	0
0	21394	5107.173391638489	1
0	21396	5107.592394679153	2
0	21398	5107.784689951253	3
0	21399	5108.035944566958	2
0	21404	5108.293333324063	1
0	21411	5109.203892589511	0
0	21426	5110.327351605378	1
0	21428	5110.806118000181	2
0	21430	5111.253554677006	3
0	21431	5111.305433127618	2
0	21438	5113.941276237114	3
0	21439	5115.528719766892	2
0	21446	5116.45028547961	3
0	21447	5116.856468525498	2
0	21453	5118.983249212103	1
0	21458	5119.012580434331	0
0	21472	5122.264872959482	1
0	21473	5122.288398838318	0
0	21477	5122.546479672252	1
0	21480	5123.417722217868	0
0	21486	5125.367783094958	1
0	21492	5126.58207009918	2
0	21494	5126.737739542198	3
0	21500	5128.137379934329	2
0	21505	5128.474630833329	1
0	21512	5130.289464418383	0
0	21518	5130.746660539388	1
0	21519	5130.768636125476	0
0	21533	5133.726617275049	1
0	21534	5133.856132633311	0
0	21557	5139.433766067562	1
0	21558	5140.266637031502	0
0	21564	5140.309034770498	1
0	21566	5142.598541018236	0
0	21601	5155.74432009971	1
0	21602	5156.140575863428	0
0	21622	5159.949621123659	1
0	21623	5160.345317036705	0
0	21630	5160.46845782332	1
0	21631	5161.035750661317	0
0	21644	5166.283720411641	1
0	21646	5167.849543749444	2
0	21651	5168.252062376937	1
0	21657	5168.274247637279	2
0	21659	5171.606819644126	1
0	21664	5171.670074667183	0
0	21675	5174.344108846099	1
0	21682	5176.953300935312	0
0	21704	5186.329181147192	1
0	21706	5187.292952564876	2
0	21709	5187.408337762886	1
0	21715	5187.907611744517	0
0	21748	5192.838389454981	1
0	21750	5194.228394698855	2
0	21751	5195.004635748229	1
0	21756	5195.251779772641	0
0	21762	5195.298483487469	1
0	21763	5195.747236489355	0
0	21772	5197.107300197137	1
0	21774	5197.65350914918	2
0	21775	5198.364919422694	1
0	21782	5200.663905009961	0
0	21788	5201.478295645411	1
0	21790	5202.545484315754	2
0	21793	5203.985817140924	1
0	21798	5204.723674591465	0
0	21834	5210.918635268611	1
0	21835	5213.335163869001	0
0	21873	5222.241748715479	1
0	21874	5222.771840354017	0
0	21923	5238.780766572161	1
0	21925	5238.852530653239	2
0	21927	5239.142123678973	3
0	21929	5239.334882535287	4
0	21930	5239.455087996755	3
0	21936	5239.718112663466	4
0	21938	5240.592084108135	5
0	21939	5243.285990030779	4
0	21945	5243.594149255198	3
0	21950	5243.62392529051	2
0	21956	5244.197175862203	3
0	21961	5245.687250827929	2
0	21966	5246.555585782147	1
0	21971	5246.923560522723	0
0	21979	5251.367332683325	1
0	21980	5251.647255077823	0
0	21984	5252.055716729243	1
0	21987	5255.145068685431	0
0	21991	5255.283540280723	1
0	21993	5255.48417772738	2
0	21996	5255.86744881312	1
0	22004	5257.521148368837	0
0	22067	5278.116703208763	1
0	22070	5278.913851473592	0
0	22125	5301.697160593903	1
0	22130	5303.163578996469	0
0	22151	5307.218654286498	1
0	22153	5308.701871850344	2
0	22156	5310.300804996466	1
0	22162	5311.509200454954	2
0	22164	5311.650272496521	3
0	22170	5313.105703518753	4
0	22171	5314.410819128871	3
0	22179	5314.827953173512	4
0	22181	5315.470136258968	3
0	22187	5316.175391514759	2
0	22192	5316.629667322664	1
0	22199	5317.424316805221	0
0	22205	5318.640248322004	1
0	22206	5318.711907238657	0
0	22218	5319.808063929745	1
0	22220	5321.741229125721	0
0	22291	5338.579731303644	1
0	22295	5340.081933748284	0
0	22311	5340.77304875537	1
0	22313	5340.895823016837	2
0	22314	5340.943115593482	1
0	22320	5341.469939588785	0
0	22326	5341.535880948324	1
0	22327	5341.94610051959	0
0	22333	5342.394336682299	1
0	22337	5342.69430210492	2
0	22338	5342.796701263092	1
0	22343	5343.042860257613	0
0	22354	5344.845806376016	1
0	22360	5346.709719657564	0
0	22366	5348.512335198844	1
0	22368	5348.787879482345	2
0	22369	5348.888210895351	1
0	22373	5350.258900310661	2
0	22379	5351.367699700346	3
0	22380	5351.659756633985	2
0	22387	5352.671541390539	1
0	22393	5352.800031731679	0
0	22400	5352.86726247474	1
0	22401	5353.121238294181	0
0	22408	5353.386732219226	1
0	22411	5355.182322856759	0
0	22471	5372.085728874564	1
0	22476	5372.656391876481	0
0	22524	5382.755723349801	1
0	22526	5383.590428072827	2
0	22527	5383.892130515854	1
0	22532	5384.057162117403	0
0	22578	5401.95211148757	1
0	22579	5402.094767949975	0
0	22599	5407.00517859988	1
0	22602	5409.052218772806	0
0	22617	5413.858005146604	1
0	22618	5414.851541327261	0
0	22649	5419.285619584638	1
0	22650	5419.294403361333	0
0	22688	5428.073264698971	1
0	22690	5428.256034242476	2
[...]
4	115589	27775.027118923483	3.333211150675
4	115616	27778.586761046564	0.729302244404
4	115620	27779.414855836738	1.364100876049
4	115641	27787.277913756864	5.91521477676
4	115677	27792.149999404264	9.871382133338
4	115744	27809.951812144745	27.435999061898
4	115753	27810.45567574022	26.205427965932
4	115765	27811.554569036947	23.49335665499
4	115773	27811.991005375671	22.662458636939
4	115779	27812.970130802159	23.28472105733
4	115787	27817.498791403336	27.761519027885
4	115796	27818.931440311434	11.970804224801
4	115810	27824.18011734734	16.74749803521
4	115822	27826.559562079225	17.414864660307
4	115863	27833.920155171075	22.428416284622
4	115878	27836.641226971108	25.059133802758
4	115902	27842.67577708593	25.197917700052
4	115910	27847.266273432991	26.847528700908
4	115930	27850.729673959105	25.411871607936
4	115964	27857.843572640666	29.045887138007
4	115970	27858.1385049951	23.495513861954
4	115975	27858.17788014128	23.373775078883
4	115988	27864.356163094501	28.703710321098
4	116013	27868.833027373203	14.29841241392
4	116041	27872.918081722754	15.189204989421
4	116046	27873.213826950636	14.559981623391
4	116057	27876.950380468802	14.055930954886
4	116070	27881.874949073284	17.299409830325
4	116115	27892.348729009508	26.900311577648
4	116140	27895.083177769005	23.590507378123
4	116172	27901.343924777158	27.402702043287
4	116194	27907.718732370587	26.350724112969
4	116364	27944.802648195798	61.87984910375
4	116374	27945.357757243717	60.083174716502
4	116379	27945.7918083569	59.762344736064
4	116393	27948.290876584629	61.461621598557
4	116439	27955.472026617423	66.231454634184
4	116462	27959.875531753314	68.280309649091
4	116489	27964.255155407682	62.230247914998
4	116496	27968.345679966748	63.967022323521
4	116501	27968.875911928803	46.057273937671
4	116507	27971.188793741233	44.901820523345
4	116515	27972.84058934964	44.718192800446
4	116531	27978.098217238088	45.746276438871
4	116536	27978.320015572713	45.489703358796
4	116547	27981.204344117054	48.224548844466
4	116568	27983.983024934228	50.839405680245
4	116576	27985.18725612767	44.902271536872
4	116583	27988.000244572006	46.76606030653
4	116593	27988.53656940494	44.50559017944
4	116600	27990.377363831481	44.206541674431
4	116619	27994.640282106611	46.936187087379
4	116630	27995.413125747756	47.007211229597
4	116635	27995.519875323018	37.509633119848
4	116641	27998.146573822348	24.406863374668
4	116646	27998.47033042115	21.23744705847
4	116660	28002.335333560157	17.232292926602
4	116670	28003.114281594146	10.537902812258
4	116678	28005.581085277604	12.53973413796
4	116683	28005.9198222436	7.360520892245
4	116694	28012.394977455697	11.992710345542
4	116710	28013.920253044841	12.937213810235
4	116721	28015.384113039177	0.76643973562
4	116779	28034.523472846913	1.274606612713
4	116790	28035.355627506033	1.972934036602
4	116806	28046.186726994594	1.775706498233
4	116820	28057.300053700307	6.263711033881
4	116837	28060.097005281342	1.461731953207
4	116846	28064.212523013126	1.254019250158
4	116856	28068.272528150869	3.013579239995
4	116894	28078.863548974008	1.523376716307
4	116907	28081.827355370602	2.519547760965
4	116926	28091.33013333825	6.838658764897
4	116930	28092.057600785319	3.107507105489
4	116945	28094.768475108012	0.217331473399
4	116972	28105.05786625682	1.853988087457
4	117027	28117.320418974861	7.511048988583
4	117093	28146.449556822523	9.670905011453
4	117120	28153.381147596845	2.995476298652
4	117137	28154.897551276885	3.624854549221
4	117144	28157.164994744766	3.168817412078
4	117155	28160.308667985341	4.792352566232
4	117281	28189.262416527787	18.855327980775
4	117294	28194.595654526923	19.011830853178
4	117380	28215.532151385055	35.932579515387
4	117389	28219.564933636435	34.873035732326
4	117394	28219.675263738272	33.645884996622
4	117399	28219.988126588855	33.633072357633
4	117408	28222.108193829532	34.614060370658
4	117446	28226.28584145951	32.433131667301
4	117459	28233.233031812459	35.099650223946
4	117475	28234.466383988449	26.787835935436
4	117482	28236.723415937528	28.852453749006
4	117487	28238.61572593148	29.547549078867
4	117495	28241.706325800588	29.0048340706
4	117516	28245.022582602871	23.720941458343
4	117522	28245.435331951026	21.695555632084
4	117539	28251.607429146654	18.739966209821
4	117634	28268.015848085997	31.301881090068
4	117644	28269.484550867681	25.216153206184
4	117660	28279.382778327806	32.612259456267
4	117751	28304.02606099608	44.860865520902
4	117789	28311.262389968583	49.836779904933
4	117798	28312.277185330083	48.315440924653
4	117803	28312.945677900705	48.34981253977
4	117817	28317.709285716171	52.583435966523
4	117849	28324.368412106306	58.155432545648
4	117855	28325.732250599303	45.928196024518
4	117860	28326.791450137692	45.203878692763
4	117865	28327.126796922816	36.916662517717
4	117873	28328.068747843632	32.046374447714
4	117902	28343.355971617525	37.583718309906
4	117939	28354.749526354899	43.588815706361
4	117951	28359.315229424506	47.569909090108
4	117956	28359.519833749083	47.602128635912
4	117967	28361.864011823869	48.84111622161
4	117972	28361.977517494827	44.290056622308
4	117978	28362.435352097544	33.702466892377
4	117984	28366.317561088284	22.774226879154
4	117994	28370.421171007712	19.728118815189
4	117999	28370.739303322848	9.483757685933
4	118012	28376.316894696719	9.513621358995
4	118062	28383.503718654813	13.134231010203
4	118067	28383.588299404006	10.486893750473
4	118072	28383.786609864417	7.66692254065
4	118087	28388.580609481559	3.027525958506
4	118143	28404.123344689952	5.181471661873
4	118190	28415.487586066046	5.948068758551
4	118213	28419.518399325889	1.300542551117
4	118223	28421.934630155591	3.616404818257
4	118235	28422.759039516915	1.680164639409
4	118239	28422.842886822685	0.618521002148
4	118277	28433.734128001247	8.548525218901
4	118371	28448.823822475947	22.986981259019
4	118379	28451.164261895745	23.136549439363
4	118391	28455.143938414144	16.437921792466
4	118403	28455.358737851246	11.718020514162
4	118408	28455.443126454667	11.786504059327
4	118413	28456.26358383372	11.031228657314
4	118425	28462.852798258946	17.236021148953
4	118430	28463.141198196479	14.632293876984
4	118434	28463.354297836718	0.579026936219
4	118442	28467.809324870918	2.612661797466
4	118454	28469.666385755772	0.534416581336
4	118491	28477.458987607818	3.608540410908
4	118525	28481.651851624372	2.695066127937
4	118537	28484.895544492335	5.747292264245
4	118571	28497.465221929616	5.114826625998
4	118614	28505.63806927561	4.896226373748
4	118640	28512.789716353173	2.237119620518
4	118651	28518.455569056179	6.921200921677
4	118664	28521.515127425125	4.973696041002
4	118672	28523.263156610758	5.91477548951
4	118679	28524.617492493371	4.504541294838
4	118683	28525.042004564426	1.939162979866
4	118698	28529.919271350976	3.260682338498
4	118714	28534.474684584748	7.060148258164
4	118723	28540.471635424948	12.496013734696
4	118746	28542.735205180396	9.309630944161
4	118752	28543.539287551176	10.066833730995
4	118759	28544.575422287314	8.626723467333
4	118773	28547.581251088679	6.617269399063
4	118783	28547.793019136579	6.594586421973
4	118799	28555.761988963593	0.0689516564
4	118840	28563.75231527939	2.707755797103
4	118851	28569.872624225467	3.591954551327
4	118857	28572.606367207826	6.226677008994
4	118881	28577.793301883728	2.814879396667
4	118897	28580.036967259184	0.110537924597
4	118924	28584.522329219815	0.932987521703
4	118955	28590.795712844649	5.970355465697
4	118959	28590.855952907592	4.873103957825
4	119022	28601.556031358789	8.255739176778
4	119027	28601.576366566183	8.122462560338
4	119039	28604.733319844933	10.481909860376
4	119063	28608.158173957641	13.091606920375
4	119072	28610.569744587568	9.91378939562
4	119101	28615.862638063228	13.693421766782
4	119109	28618.352923338954	15.461939163163
4	119128	28625.50276878232	18.740433474066
4	119142	28627.466203722015	19.893232036837
4	119149	28627.897540837506	16.630546728776
4	119154	28628.169627876759	9.3457914348
4	119159	28628.361288812125	8.564350430103
4	119164	28632.027703939549	10.921429921836
4	119185	28639.837630481726	2.978400677336
4	119203	28641.937879248243	1.529060892132
4	119242	28647.979850067434	3.523459548763
4	119254	28650.585314199148	6.127600334641
4	119270	28653.855369038009	1.836673639279
4	119284	28657.278170325312	2.640062280669
4	119308	28662.10464976608	0.467343245455
4	119323	28667.88647518964	0.044734690577
4	119341	28674.890109413639	4.503587870586
4	119345	28675.898996984004	5.455217444777
4	119360	28680.746887022273	0.74526629891
4	119373	28686.777468442248	2.07676921113
4	119386	28689.060051653649	0.983348523935
4	119393	28690.827480951023	0.429021805311
4	119408	28699.781016902319	0.718857517417
4	119422	28702.1382335324	2.192174615749
4	119444	28710.083819983548	10.088229832455
4	119448	28710.31534810335	6.608011062829
4	119484	28719.090410355334	6.077735731103
4	119498	28724.322484262226	8.394123512144
4	119520	28729.960553364511	11.324715840315
4	119526	28731.482038808526	7.927135682104
4	119530	28731.73347917717	5.922885657602
4	119550	28738.303103436723	0.235169918065
4	119569	28745.843433854601	4.243790882224
4	119600	28748.983173640895	5.713281427299
4	119605	28749.593341992744	2.04004310402
4	119612	28750.308087393127	0.316842328227
4	119627	28755.081893459682	3.922434174328
4	119666	28759.105076809333	5.800245701397
4	119677	28760.533302070483	2.741728893327
4	119681	28760.740498962153	1.747281758721
4	119742	28772.151925558971	7.656145421994
4	119756	28774.505759493165	1.097628639748
4	119781	28788.724009184075	5.239916903579
4	119815	28795.174840806951	9.259937544132
4	119826	28796.128143754861	4.246523084609
4	119834	28797.675881783915	0.268431010722
4	119855	28802.454545667077	0.983477672393
4	119877	28808.874382495088	0.842465563
4	119929	28824.661200927267	6.590205443653
4	119959	28831.531143123933	3.216322160161
4	119963	28831.760280669198	0.319750026558
4	119977	28833.793907288645	1.809684319203
4	120004	28839.495455731631	7.453948718292
4	120039	28843.776284420329	5.495709994867
4	120050	28847.913257288188	6.271502779808
4	120073	28854.914022532592	12.535849190131
4	120098	28871.318983717941	0.268060751909
4	120106	28872.546529835802	0.626399915854
4	120124	28877.996298242184	0.610594685537
4	120138	28880.746282942347	0.174808969818
4	120153	28885.090116565027	2.445661827919
4	120165	28888.728518660696	3.337402635039
4	120241	28904.362721680032	18.103773849952
4	120246	28907.481633624444	16.332705293032
4	120250	28907.786776939802	10.482392114878
4	120266	28913.021717799836	2.736216796977
4	120378	28937.500893161389	20.470212827813
4	120426	28946.66512256138	21.973468771796
4	120432	28947.045424916534	13.875789452821
4	120437	28947.495777741154	8.789446767529
4	120460	28963.240497994861	17.878994798981
4	120540	28975.62906207324	26.080003032413
4	120547	28976.671586593259	25.830608558762
4	120557	28978.643318106301	21.144521378325
4	120574	28990.27249209037	32.750082805273
4	120600	28994.554376514311	26.077054383377
4	120609	28996.527011253998	23.979722771371
4	120627	28999.450908489526	19.218933558629
4	120636	29003.130078637213	21.113706198031
4	120644	29006.434546216139	17.059869242953
4	120656	29008.900015780542	13.673992484988
4	120669	29012.660517254867	12.914558862281
4	120686	29024.579629852863	22.432442336201
4	120717	29029.056589939921	18.244372180806
4	120721	29029.207518881167	13.561498184181
4	120749	29042.696139963654	0.436996353044
4	120865	29067.308194931679	16.321167752867
4	120874	29067.853152870683	15.005435043046
4	120887	29069.728049596595	16.593459216376
4	120910	29075.262401087126	15.152982996947
4	120946	29081.6019001524	19.228080565012
4	120957	29083.45479240681	19.28146329866
4	121026	29095.318037982397	27.790361620588
4	121087	29107.601507759719	37.323061784589
4	121097	29109.764342214572	38.817752777636
4	121102	29109.767087297745	36.543632774948
4	121107	29110.374406789736	36.342786783651
4	121115	29112.051579375837	36.895112334334
4	121128	29114.607982726967	31.414735736294
4	121133	29114.674292245562	28.857828792316
4	121143	29116.52141824284	21.851125987573
4	121166	29123.027580729771	27.878141172856
4	121182	29124.427342042677	22.26521451538
4	121227	29137.173523936417	33.821756554464
4	121234	29138.166964072685	31.111122923334
4	121249	29140.548117806704	32.129136135308
4	121255	29140.831842870577	27.458786245153
4	121262	29141.101998648102	5.4865199315
4	121321	29147.968516071506	7.804610643903
4	121328	29150.820227638941	7.244957628143
4	121344	29154.613012191631	2.136776353198
4	121357	29157.2340468026	4.472618155544
4	121365	29160.505962124846	7.281201064069
4	121378	29164.160091747103	8.676693333696
4	121383	29170.226341738257	6.495001172918
4	121407	29177.406443397899	0.732947091322
4	121434	29181.38208572648	2.777820925473
4	121450	29184.381235982415	5.738974377256
4	121469	29190.101883196505	7.053409061941
4	121484	29193.917295532026	9.406624762033
4	121495	29194.573248718788	4.514552510527
4	121505	29199.247042843073	0.840806667362
4	121509	29199.376862672321	0.764228100801
4	121538	29205.32440426897	2.722258158461
4	121543	29206.037258843099	2.114962754016
4	121550	29208.644419849567	4.398483226917
4	121562	29210.718039547095	1.22702607647
4	121633	29223.26100722196	9.998349347821
4	121637	29225.380093973402	9.796993040052
4	121669	29231.699050455053	1.436753912673
4	121684	29236.043969725961	0.941286658851
4	121703	29244.846640344361	6.167394849454
4	121739	29250.947645784929	4.123374871854
4	121782	29258.922024775211	5.701983342226
4	121791	29260.707605756043	4.549475032684
4	121891	29279.484770514921	16.297222560135
4	121903	29286.901215699205	22.917905721784
4	121933	29292.479349554066	28.038067524863
4	121948	29294.123476233415	17.240034304769
4	121971	29297.926765079896	7.003849823163
4	121988	29299.942766019851	7.420637418706
4	121995	29304.794567519819	9.850954365224
4	122041	29318.010428498631	7.929154288714
4	122048	29321.771355313166	5.805486803033
4	122056	29322.502668304727	0.192580976929
4	122085	29330.597201152654	1.998601880617
4	122094	29332.790910528448	1.825795402832
4	122138	29342.722915150287	2.580024047825
4	122153	29345.982820596454	3.462540559731
4	122157	29350.50913244187	6.301045722266
4	122172	29353.262943805902	0.309586775721
4	122191	29357.78458112581	3.070628113987
4	122197	29358.380616992993	1.652344762923
4	122206	29362.658221925093	5.865548343458
4	122233	29368.283141486572	8.739572728971
4	122277	29383.900825133364	9.464124445591
4	122282	29387.221017175207	9.993041817809
4	122297	29389.295272724798	1.299348692988
4	122315	29396.090146608866	2.575149861536
4	122355	29403.703248992069	2.33413445886
4	122440	29424.905124321243	19.386096063198
4	122473	29429.091836036474	18.328809535946
4	122481	29429.758561320436	12.078812252421
4	122493	29434.429835379849	13.868962008536
4	122591	29449.384723360773	7.455459205845
4	122608	29450.563248178433	6.232403509746
4	122615	29451.558645586847	4.055563897931
4	122638	29454.511626280236	6.14812537189
4	122642	29454.7074205275	2.03514073985
4	122667	29462.80223881244	6.534541474471
4	122790	29488.337761775098	29.921246139702
4	122804	29490.024619589883	29.492155825338
4	122819	29491.5787203129	30.384993584131
4	122831	29493.07918121076	29.541181681794
4	122836	29493.496236760653	24.293908555896
4	122847	29495.287827915499	22.600544708921
4	122857	29495.805196824065	7.734236892496
4	122862	29497.652687879362	9.404545302051
4	122877	29504.007072132354	15.262958496389
4	122911	29509.658786221462	19.549869744492
4	122935	29513.148333229945	18.922403340603
4	122950	29516.369792810949	17.61533954958
4	122991	29525.572062901566	21.610330419057
4	122998	29530.178825726731	24.998836471168
4	123009	29534.180276400354	20.833545117714
4	123021	29541.465693351197	2.6631133213
4	123045	29544.152238316375	2.378171918325
4	123058	29549.998864636204	5.910906694791
4	123125	29559.356307845211	15.138705241771
4	123137	29561.582606950466	16.2868454903
4	123163	29565.790255134279	20.405859226298
4	123170	29567.983444489728	6.873861107782
4	123176	29568.327588398832	6.711226469037
4	123181	29569.556622186297	4.642537101585
4	123191	29572.119611921481	6.932041816565
4	123218	29578.722650085745	12.85826480635
4	123241	29582.797371871452	8.28716867739
4	123288	29594.506922293664	1.194393704503
4	123319	29606.644830650369	3.98643428275
4	123334	29609.870480296203	6.773627099012
4	123361	29614.147706282523	7.549374377756
4	123397	29622.052904233631	11.349686490406
4	123402	29623.498937819909	12.324853283831
4	123407	29626.296701804587	10.764950928629
4	123412	29629.344987444596	8.726068304277
4	123432	29637.877922262247	3.519520676508
4	123496	29656.921440113541	1.425202004268
4	123513	29659.813268301667	0.479578189112
4	123592	29681.540705402069	12.452979937128
4	123605	29684.750919790673	13.87819245348
4	123626	29686.055214342325	14.125206351698
4	123633	29687.342920034476	13.869570783401
4	123644	29689.957240181614	14.261808724677
4	123663	29694.040317848191	15.921920544682
4	123669	29694.529540979748	15.525865228254
4	123680	29699.746607113592	11.203503059503
4	123689	29701.650330316073	5.516517703104
4	123708	29704.549257975756	8.02224979392
4	123722	29708.694473016572	10.359790688419
4	123741	29714.036561445535	11.947504413046
4	123762	29722.009347331164	17.383011523966
4	123790	29729.540885601614	18.00719838651
4	123797	29731.706152810195	18.250439979829
4	123816	29734.628747084504	18.771013884148
4	123855	29740.79195197801	19.475351341539
4	123862	29743.225792185385	15.767989311647
4	123894	29749.053466631274	16.406798988176
4	123907	29750.415533075816	16.512503410567
4	123938	29755.639796256568	11.209962159333
4	123944	29757.880475842185	9.336778335442
4	123958	29763.430833606042	14.191335461111
4	123988	29770.648134507794	11.403520364563
4	124018	29778.771747432475	17.061678807171
4	124030	29779.761347651755	12.387159197813
4	124052	29784.313022384041	15.689673257833
4	124059	29784.835461908222	5.154819966006
4	124064	29785.736567636198	3.755160267439
4	124069	29789.870606765114	6.435728276001
4	124080	29791.047141840516	6.460702375714
4	124095	29792.073439863126	1.619051594272
4	124113	29797.143031412304	0.151929308193
4	124152	29807.176263198587	2.20269933537
4	124171	29812.96453727655	4.127374784848
4	124178	29814.262523594013	0.049195911271
4	124186	29815.588355578796	0.938286177245
4	124193	29816.397684508232	0.590853498053
4	124209	29819.140898005047	0.343871199042
4	124233	29825.455561979224	0.553467085945
4	124266	29831.262276575065	0.068766698278
4	124315	29839.137454903987	6.189931680409
4	124319	29841.506980058958	5.741183604044
4	124335	29848.300251172881	3.785530694172
4	124357	29857.218116466628	9.459297491669
4	124520	29901.909432906778	54.136781748595
4	124528	29903.767543757235	55.959824098672
4	124552	29912.597698235345	50.923524249127
4	124557	29913.098953530877	41.791425672651
4	124564	29915.403634902781	43.492403239431
4	124579	29919.348063083467	46.410383233169
4	124615	29923.366115624748	43.93872298725
4	124623	29924.667725630802	44.951951601851
4	124637	29927.447199759959	41.201193486844
4	124642	29927.603243668916	38.689246120956
4	124650	29930.913195806956	38.988158166338
4	124655	29932.440272674448	37.259772898667
4	124662	29933.010336081308	25.92107386909
4	124669	29936.114990886063	22.737850456666
4	124693	29942.722392232145	25.909087196153
4	124718	29948.413857760399	25.548191003113
4	124723	29948.931630247156	22.830024730566
4	124739	29953.553554823955	24.418675203141
4	124795	29962.114729698266	29.176156608228
4	124837	29968.814722101837	26.293666583639
4	124847	29973.395575511219	25.966377552329
4	124867	29977.866902224074	23.055325146345
4	124897	29983.315410799601	22.272206861748
4	124909	29986.212452982163	22.141218854775
4	124915	29987.342796810636	21.065633181295
4	124921	29989.369938789458	22.693295501785
4	124927	29989.980098026534	21.764054408819
4	124932	29990.299214073354	17.358858850289
4	124939	29991.765773980968	16.884338336393
4	124950	29996.046545161885	18.605541119481
4	124966	29998.912046664	21.464346793542

