version 2
run Second-n2-14-20191016-14:53:01-10656
attr configname Second-n2
attr datetime 20191016-14:53:01
attr experiment Second-n2
attr inifile omnetpp.ini
attr iterationvars ""
attr iterationvarsf ""
attr measurement ""
attr network org.omnetpp.queueing.Pizza
attr processid 10656
attr repetition 14
attr replication ""
attr resultdir results
attr runnumber 14
attr seedset 14
param **.PS.maxInventoriedPS 2
param **.U1.interArrivalTime exponential(3s)
param **.U2.interArrivalTime exponential(5s)
param **.PS.serviceTimeForInventoryU1 exponential(1.0s)
param **.PS.serviceTimeForInventoryU2 exponential(1.2s)
param **.PS.serviceTimeDirectU1 exponential(1.4s)
param **.PS.serviceTimeDirectU2 exponential(1.4s)
param **.PS.probabilityProducing 0.7
param **.CS.serviceTimeU1 exponential(1.1s)
param **.CS.serviceTimeU2 exponential(1.4s)

vector 0 Pizza.EntryQueueU1 queueLength:vector ETV
attr interpolationmode sample-hold
attr title "queue length, vector"
vector 1 Pizza.CS queueLength:vector ETV
attr interpolationmode sample-hold
attr title "queue length, vector"
vector 2 Pizza.EntryQueueU2 queueLength:vector ETV
attr interpolationmode sample-hold
attr title "queue length, vector"
vector 3 Pizza.sink lifeTime:vector ETV
attr interpolationmode none
attr title "lifetime of arrived jobs, vector"
attr unit s
vector 4 Pizza.sink lifeTimeU2:vector ETV
attr interpolationmode none
attr title "lifetime of arrived jobs, vector"
attr unit s
0	0	0	0
0	49	13.060027492749	1
0	50	13.108120898325	0
0	69	17.380872885752	1
0	71	18.274443617111	2
0	76	18.579205620533	3
0	78	19.909896968044	2
0	91	22.38170036376	3
0	93	22.574836119096	4
0	94	24.379760695843	3
0	99	25.872218320829	2
0	105	27.18474967561	1
0	110	27.416377875317	0
0	118	29.979017102208	1
0	121	30.763638623054	0
0	129	31.305880716025	1
0	131	32.324511942302	2
0	133	36.312458875252	3
0	137	38.165850322084	2
0	143	38.171010957956	3
0	145	38.749591153637	4
0	147	39.358750629605	5
0	148	39.608017501657	4
0	154	39.882860106536	3
0	160	40.075126854821	4
0	161	40.194401907872	3
0	166	40.48377979395	2
0	170	40.672718064888	3
0	173	42.403498906027	2
0	178	43.148506902827	1
0	184	44.60645189251	2
0	187	45.386111317092	1
0	193	47.372926320172	2
0	195	47.655520175039	3
0	199	49.336998505387	4
0	200	49.533810043493	3
0	204	49.566253897615	4
0	211	50.546711299868	5
0	213	52.325984933953	4
0	222	53.618942086069	5
0	223	53.94286945366	4
0	230	54.48099310715	3
0	239	55.505597916182	4
0	241	55.738379871925	5
0	242	56.314446224715	4
0	247	56.670077316173	3
0	252	56.776979553514	2
0	258	57.268791692877	3
0	262	60.157539727821	2
0	270	65.211520664879	3
0	271	65.996810384057	2
0	276	66.743871211072	1
0	282	68.468473289929	2
0	284	71.44063227118	3
0	285	72.357828298375	2
0	293	73.348282482598	3
0	296	76.309814318253	2
0	302	76.69881183629	1
0	307	76.889740867324	0
0	336	82.068568543167	1
0	338	82.387060601219	2
0	339	82.871558632325	1
0	345	84.087199492534	0
0	353	85.541993853579	1
0	355	85.971334965575	2
0	357	86.209263841775	3
0	359	86.402506629608	4
0	361	87.095573670778	5
0	364	87.971634638617	4
0	369	88.714002858812	3
0	373	91.363824025855	4
0	383	92.957924094897	5
0	384	93.227120337836	4
0	389	94.185123974899	3
0	395	94.561177297563	4
0	397	95.010542673066	3
0	403	95.344718751055	2
0	410	97.424435457357	1
0	415	99.603619701569	0
0	438	103.308502851784	1
0	444	103.84941514235	0
0	464	108.188443615996	1
0	467	110.041024446138	0
0	473	110.222023726133	1
0	474	110.718744674718	0
0	516	118.375477398064	1
0	524	120.131430665494	2
0	525	120.138847275821	1
0	531	123.511662989766	0
0	558	135.4872914313	1
0	560	136.35972063839	0
0	567	137.24432567625	1
0	569	138.126250672202	2
0	570	138.411215621377	1
0	575	138.489204496358	0
0	600	140.960894786312	1
0	601	141.60122049165	0
0	615	142.700042566932	1
0	621	148.35920251908	0
0	629	149.057044408118	1
0	631	150.146575984817	0
0	641	150.288010014777	1
0	643	150.349783169544	2
0	645	150.667362759157	3
0	648	153.4634276886	2
0	656	156.530754044634	1
0	661	157.088406475006	0
0	683	160.344759884179	1
0	685	160.701771096641	2
0	688	161.317673623873	1
0	698	162.508484874391	2
0	699	165.252708775508	1
0	705	166.037584791302	0
0	721	168.24288621935	1
0	723	168.614516450093	2
0	727	169.463739655466	3
0	728	169.619909417948	2
0	733	169.795503483205	1
0	739	171.146425840839	2
0	744	172.980341755994	1
0	749	175.000488753777	0
0	767	180.076991379329	1
0	772	186.032931934307	0
0	799	190.617873570449	1
0	801	190.836612060341	2
0	803	191.227861585984	3
0	808	192.508415527809	4
0	809	194.413112498729	3
0	816	195.244682810428	2
0	822	195.303767972303	3
0	824	198.092031833137	2
0	830	198.616410126197	1
0	837	199.817227162324	2
0	838	199.948860102102	1
0	844	200.393435848639	0
0	866	206.609539847294	1
0	868	207.420847856794	2
0	870	207.655315011159	3
0	871	208.380748866621	2
0	876	208.800499316456	1
0	881	208.991299000508	0
0	942	229.473361590533	1
0	943	229.718542211756	0
0	951	232.604872734519	1
0	953	233.310307008807	0
0	959	233.979875000264	1
0	962	234.660586449366	0
0	973	235.695677184147	1
0	975	238.580897591379	0
0	1035	267.006763857823	1
0	1036	267.312218897759	0
0	1040	269.175762249779	1
0	1042	272.548293366203	2
0	1049	275.258680289919	1
0	1055	275.821409930828	2
0	1059	277.850249051008	1
0	1064	277.929039601493	0
0	1070	279.519761935494	1
0	1071	280.127484768849	0
0	1077	280.955081566433	1
0	1081	284.214329546841	2
0	1085	284.599214462965	3
0	1086	284.801397249411	2
0	1091	285.35474786729	1
0	1095	289.118501857788	2
0	1101	291.236341288264	3
0	1103	293.292569884229	2
0	1109	293.483573401575	3
0	1111	294.102024974506	4
0	1113	294.683695759313	5
0	1120	298.069514854493	6
0	1122	300.488559369934	7
0	1123	300.846283849722	6
0	1128	301.473635096515	5
0	1135	302.209005650034	4
0	1140	302.655975479325	3
0	1146	306.79744825519	4
0	1147	307.199416681848	3
0	1151	307.389058129073	4
0	1158	310.024941978374	3
0	1162	310.081887493998	4
0	1164	310.274436276278	5
0	1167	311.105132823057	4
0	1171	312.110385714577	5
0	1177	314.820844029884	6
0	1180	317.375812917151	5
0	1185	318.058820563814	4
0	1193	319.825045468509	5
0	1195	320.556086817382	6
0	1196	321.049503546333	5
0	1202	323.448593252685	4
0	1207	323.999670157644	3
0	1214	324.717255618971	2
0	1222	325.651523722045	3
0	1223	325.853923508396	2
0	1227	326.309915770233	3
0	1230	327.039633233734	2
0	1235	327.299748052729	1
0	1240	329.381977894957	0
0	1260	333.506243588985	1
0	1264	334.786722045973	2
0	1265	335.663681067773	1
0	1270	336.429446446173	0
0	1274	336.517155530518	1
0	1276	336.992786762804	2
0	1278	337.083224456078	3
0	1282	338.829791653032	4
0	1285	340.405688617346	3
0	1290	342.868699813632	2
0	1294	343.024412810338	3
0	1300	343.389715047904	2
0	1307	344.676939163584	3
0	1308	344.876813062204	2
0	1315	345.292227961611	1
0	1321	346.213368473884	0
0	1341	348.182574274314	1
0	1343	349.61511323662	2
0	1346	350.298987876638	1
0	1352	350.61752792958	0
0	1387	363.984841296157	1
0	1391	364.666605470396	0
0	1405	367.514517139375	1
0	1406	368.426000985563	0
0	1412	368.463532641489	1
0	1415	369.009509460488	2
0	1417	369.330188602739	3
0	1418	371.670804803054	2
0	1427	372.735258413911	3
0	1429	375.129580602573	4
0	1430	375.364023808386	3
0	1436	375.386121928215	4
0	1438	376.323974203118	3
0	1449	378.76784291535	4
0	1452	380.798559317706	3
0	1458	382.147383848265	2
0	1463	382.801758284379	1
0	1468	382.955160772649	0
0	1484	386.55804093211	1
0	1486	386.88177615226	0
0	1492	387.31111014752	1
0	1495	387.96587107968	0
0	1513	389.984248402682	1
0	1518	391.914668928713	2
0	1519	392.277783271219	1
0	1524	392.635930558078	0
0	1550	398.685996943247	1
0	1551	398.690631485664	0
0	1557	400.169351640358	1
0	1559	400.3827993304	0
0	1591	407.032986998112	1
0	1594	409.062890732213	2
0	1596	409.085873452846	3
0	1597	409.819835905276	2
0	1603	410.14451210404	1
0	1608	410.208148385044	0
0	1623	411.551936362639	1
0	1624	411.626209886091	0
0	1641	413.301721154642	1
0	1643	413.778707696428	0
0	1649	414.026311367337	1
0	1651	414.453937150549	0
0	1662	415.721173867888	1
0	1663	416.380807882855	0
0	1674	418.676615764709	1
0	1676	419.085698023016	2
0	1679	420.153448199517	3
0	1682	425.126526250923	4
0	1685	426.719249121779	5
0	1686	426.929105800473	4
0	1693	428.814659310082	5
0	1697	432.300446164593	4
0	1702	432.847450973225	3
0	1707	433.24588120485	2
0	1716	434.870700687478	1
0	1721	435.882668368584	0
0	1772	442.512350966807	1
0	1775	443.816131354418	0
0	1790	447.00751703651	1
0	1794	447.468000499803	2
0	1798	448.053094237148	3
0	1805	451.468408116301	2
0	1811	454.834833756961	1
0	1816	455.075654187444	0
0	1827	456.087503425907	1
0	1828	456.182545083787	0
0	1834	457.255326161356	1
0	1836	457.647610780295	2
0	1839	458.521770348903	1
0	1844	458.887438768382	0
0	1848	459.500524774427	1
0	1851	461.657165387668	0
0	1877	465.390489050416	1
0	1880	466.421575039702	0
0	1908	472.191234697989	1
0	1909	472.536916791746	0
0	1959	489.903308637049	1
0	1963	493.503144232802	0
0	2001	505.176399897335	1
0	2002	505.632472545852	0
0	2016	509.995613633032	1
0	2019	510.876676879498	2
0	2020	511.011503359867	1
0	2026	511.269713557517	0
0	2070	526.88100474231	1
0	2071	527.126138070881	0
0	2084	529.719797910047	1
0	2087	533.40611421356	0
0	2130	551.338390803866	1
0	2132	552.417081564173	2
0	2133	552.600083647895	1
0	2139	553.952810367496	0
0	2170	562.788094901273	1
0	2171	562.923026750773	0
0	2182	564.453961264375	1
0	2187	569.097414440124	2
0	2188	569.113960564935	1
0	2193	570.945823166323	0
0	2204	574.830216027611	1
0	2207	575.233806568962	0
0	2228	583.200208767317	1
0	2231	584.035656968927	0
0	2246	584.876838218629	1
0	2250	586.171781250771	2
0	2252	586.405241074008	3
0	2254	586.473551425463	4
0	2255	586.692087981564	3
0	2261	587.127715175408	4
0	2262	587.607981685732	3
0	2268	588.310143112061	2
0	2273	588.492112505023	1
0	2278	589.786225180543	0
0	2282	589.814604921918	1
0	2284	591.076650112222	2
0	2288	593.426736789798	3
0	2289	594.264941427161	2
0	2293	594.968828062861	3
0	2298	597.923543046692	4
0	2303	598.492886313307	3
0	2308	599.480429655726	2
0	2314	600.028932916773	1
0	2321	601.250553537873	2
0	2324	602.665708383836	1
0	2328	602.895069511539	2
0	2330	604.082035074893	3
0	2335	606.186291882325	2
0	2340	606.781910306255	1
0	2348	607.575962076178	0
0	2387	616.790321433397	1
0	2389	617.104401732425	2
0	2394	620.355543797378	1
0	2400	621.644507597181	2
0	2404	622.840830770115	1
0	2409	623.021059501053	0
0	2423	627.157514616252	1
0	2426	627.422013791531	0
0	2442	628.837937200525	1
0	2444	630.264442129524	2
0	2445	630.471996393839	1
0	2450	630.641266853838	0
0	2462	631.117459867116	1
0	2463	631.280748897785	0
0	2482	637.774074411362	1
0	2483	638.57789424624	0
0	2497	641.116864448724	1
0	2500	642.101551157958	0
0	2516	644.33598844516	1
0	2519	645.872383120585	2
0	2523	647.344136832891	1
0	2529	648.185929862277	0
0	2538	648.567653887976	1
0	2541	649.715554639277	0
0	2554	651.72712571484	1
0	2555	652.278804300082	0
0	2582	655.951008305607	1
0	2586	658.963529580147	2
0	2587	659.727177803231	1
0	2594	660.074223627057	0
0	2616	663.45123672905	1
0	2618	664.449095892688	0
0	2647	668.446853263162	1
0	2648	669.632720219778	0
0	2680	682.08930239312	1
0	2682	682.970621002917	0
0	2702	689.893675153553	1
0	2704	690.178831558275	2
0	2705	690.339320030391	1
0	2709	690.614433776903	2
0	2711	692.325638220487	3
0	2714	693.337257323211	2
0	2722	694.477869047474	3
0	2726	695.590107429736	2
0	2732	696.219099422733	1
0	2737	697.100352496534	0
0	2755	701.346696772308	1
0	2757	702.386407694607	2
0	2759	702.449673898911	3
0	2760	702.656824790411	2
0	2765	702.729007367403	1
0	2771	702.754652887484	2
0	2772	703.083848005161	1
0	2776	705.870752104256	2
0	2778	707.070712836307	3
0	2786	711.166320419545	4
0	2791	716.914847787039	3
0	2796	716.93573824013	2
0	2802	717.65539132155	1
0	2807	717.963188224816	0
0	2818	720.883118457131	1
0	2819	721.319389055077	0
0	2823	722.022312787163	1
0	2829	723.949632329337	0
0	2836	724.326450284387	1
0	2838	724.693267684456	0
0	2859	725.774381767264	1
0	2868	726.772361876515	2
0	2870	727.200481853879	1
0	2875	727.663184106605	0
0	2881	728.59174400839	1
0	2884	729.014579748835	0
0	2915	732.653806347411	1
0	2917	733.41343503239	2
0	2921	735.650004772673	1
0	2926	735.692677996428	0
0	2949	739.570939561633	1
0	2952	740.993597357253	0
0	2976	745.777374098035	1
0	2978	746.029526557632	2
0	2981	746.92211817665	3
0	2986	747.390720347737	2
0	2992	747.508320358201	3
0	2993	747.944205633627	2
0	2999	748.074300863702	3
0	3001	748.119507607675	4
0	3004	750.188216948977	3
0	3009	750.440123856698	2
0	3014	751.060273857973	1
0	3019	751.573716468618	0
0	3025	754.981782990173	1
0	3026	755.216203383288	0
0	3070	765.626775747161	1
0	3071	765.959865561394	0
0	3078	766.524611002169	1
0	3079	766.592496687563	0
0	3119	783.744790105325	1
0	3122	785.351806117811	0
0	3135	786.094481833034	1
0	3139	787.641022097277	2
0	3140	787.710814033867	1
0	3146	788.273754474748	0
0	3177	795.921162081276	1
0	3178	796.054898971859	0
0	3182	796.213644232991	1
0	3184	796.227865227932	2
0	3188	798.651098434293	1
0	3193	799.045042569268	0
0	3201	800.265310202017	1
0	3202	800.864670276738	0
0	3230	806.98723128846	1
0	3231	807.414848697248	0
0	3262	815.663014820433	1
0	3264	815.681118151649	2
0	3265	816.020715423253	1
0	3271	819.123291149654	2
0	3273	820.069761761278	3
0	3276	820.646734835507	2
0	3281	822.843859798014	1
0	3286	824.860525258342	0
0	3290	824.902374901204	1
0	3294	825.221969899294	2
0	3295	825.997948082279	1
0	3301	827.791545694769	2
0	3302	827.98985721949	1
0	3306	829.247327736093	2
0	3308	831.367257483552	3
0	3310	831.418046663744	4
0	3318	833.382180657594	5
0	3320	833.634853465507	6
0	3322	833.755757771656	7
0	3323	834.17910809657	6
0	3328	834.359527224715	5
0	3333	834.649300819012	4
0	3339	835.377199947453	5
0	3342	839.396137589443	4
0	3347	839.637005415287	3
0	3353	840.528889453336	4
0	3354	841.970350050454	3
0	3360	842.955838948056	2
0	3365	843.682518860183	1
0	3374	847.044665398104	0
0	3391	849.953051526262	1
0	3393	850.218032893047	0
0	3399	851.095971145275	1
0	3402	851.633161339083	0
0	3409	851.785834539273	1
0	3412	852.57960646625	0
0	3418	852.587179589384	1
0	3420	853.717793188122	2
0	3422	854.327363490645	1
0	3429	855.095908400064	0
0	3436	855.581863207898	1
0	3438	855.939105488191	0
0	3452	858.094588263595	1
0	3453	858.122515176084	0
0	3469	859.758201698963	1
0	3472	862.312739383042	0
0	3481	864.101232963971	1
0	3487	864.546034027535	2
0	3492	868.687155004444	1
0	3497	869.47872791515	0
0	3503	870.195882580941	1
0	3506	870.592508601166	0
0	3526	875.32560459728	1
0	3529	875.774418068982	0
0	3535	875.815893221206	1
0	3536	876.14026315094	0
0	3540	876.637636708531	1
0	3548	880.176249207583	2
0	3551	880.708998023691	1
0	3559	883.834969170138	2
0	3560	885.256359193466	1
0	3570	887.368455647556	0
0	3577	888.148752972615	1
0	3578	889.134018383825	0
0	3596	892.054507382943	1
0	3598	892.231220914919	2
0	3601	892.525572421927	3
0	3602	892.549376872266	2
0	3608	893.141877056846	3
0	3609	893.733687370696	2
0	3613	896.401145996827	3
0	3618	900.196937366539	2
0	3622	900.390162823404	3
0	3626	902.772638104021	4
0	3628	903.126320877714	3
0	3634	906.42061979883	4
0	3642	908.890869625359	5
0	3643	911.776619240119	4
0	3649	913.039717596296	3
0	3659	915.064102361513	2
0	3667	916.755207629069	1
0	3673	917.466957827661	0
0	3685	918.730777357572	1
0	3686	918.778847506313	0
0	3697	918.944111122081	1
0	3698	919.092970926612	0
0	3705	919.565225978065	1
0	3706	919.6805584297	0
0	3713	920.428508701072	1
0	3714	920.971851722721	0
0	3731	923.743403519874	1
0	3734	924.372719952429	0
0	3760	931.961086889828	1
0	3762	932.810978750911	2
0	3763	933.093475144428	1
0	3769	933.278545300149	2
0	3770	933.563908598285	1
0	3778	934.836364497836	0
0	3794	937.479561140105	1
0	3797	937.928185346067	2
0	3803	939.424802455202	1
0	3811	940.600071115256	0
0	3830	942.512156774876	1
0	3831	942.514596140489	0
0	3848	945.6839088028	1
0	3852	947.985754692398	2
0	3855	948.947258134315	1
0	3861	949.640031145189	0
0	3869	953.668384939749	1
0	3870	953.782717866084	0
0	3904	959.944250035061	1
0	3910	962.195740075313	0
0	3921	963.113793826785	1
0	3924	964.827037042272	0
0	3933	966.448261770729	1
0	3934	967.215232859471	0
0	3946	968.533926554663	1
0	3951	974.448840983684	0
0	3968	977.123374315292	1
0	3969	978.043745123255	0
0	3990	986.857330905398	1
0	3992	988.16424944423	0
0	4003	988.73229024498	1
0	4006	989.919556146177	2
0	4007	990.742208747277	1
0	4015	993.075791777656	0
0	4027	995.793871748234	1
0	4030	996.022590629049	0
0	4077	1010.738590681909	1
0	4078	1010.90517954497	0
0	4106	1021.181773545248	1
0	4110	1023.860305016572	0
0	4128	1026.867652636339	1
0	4129	1026.903300460074	0
0	4156	1031.050774545087	1
0	4160	1031.977739055225	0
0	4188	1037.576819932533	1
0	4190	1038.921181065256	2
0	4191	1039.139995485262	1
0	4199	1040.344987794365	2
0	4200	1041.777541959088	1
0	4209	1044.700273486217	0
0	4231	1058.869766038304	1
0	4235	1060.301899828395	2
0	4241	1063.851223142048	3
0	4242	1066.313867578999	2
0	4247	1066.472128245952	1
0	4252	1066.833760933815	0
0	4263	1068.34360434399	1
0	4266	1069.355743246904	0
0	4304	1079.115342023401	1
0	4305	1079.741398058119	0
0	4328	1085.3234190508	1
0	4332	1087.0282567007	2
0	4335	1089.158322716171	1
0	4340	1089.832491276875	0
0	4356	1091.901219173708	1
0	4357	1091.938886546139	0
0	4370	1094.35522701016	1
0	4371	1094.826313139499	0
0	4377	1094.891200591079	1
0	4379	1095.426354596751	0
0	4397	1101.448190462658	1
0	4399	1101.680260342221	2
0	4401	1102.144980351025	3
0	4404	1102.87421923655	2
0	4409	1103.044131956577	1
0	4418	1104.350254076806	2
0	4419	1104.374231400546	1
0	4425	1104.408601939454	2
0	4426	1105.466716295175	1
0	4431	1106.075197379554	0
0	4450	1113.635252600582	1
0	4459	1117.48449263743	2
0	4460	1118.598950697996	1
0	4466	1119.574484622838	0
0	4472	1119.882029476031	1
0	4473	1120.241188584785	0
0	4490	1123.284904980149	1
0	4492	1124.551253467741	2
0	4494	1125.111357294952	3
0	4495	1125.46260440238	2
0	4501	1126.039396798734	1
0	4506	1126.111158054953	0
0	4512	1126.249278785439	1
0	4515	1126.953537194648	0
0	4522	1129.02297225332	1
0	4524	1129.416075046107	0
0	4537	1131.40205745385	1
0	4538	1131.531052527772	0
0	4546	1134.07594948623	1
0	4547	1134.987263642533	0
0	4585	1143.094239347767	1
0	4588	1145.586673424741	0
0	4601	1147.000978540517	1
0	4602	1147.411741446834	0
0	4608	1147.819124785013	1
0	4611	1148.630661262804	0
0	4639	1155.338006460722	1
0	4642	1155.848906489104	2
0	4644	1156.431296176077	3
0	4645	1156.564896050945	2
0	4650	1156.60850080459	1
0	4656	1157.024697665652	0
0	4735	1187.338464802792	1
0	4738	1187.548995765658	0
0	4751	1188.537083511743	1
0	4756	1189.729568246684	0
0	4777	1196.282423151644	1
0	4779	1196.868303759904	2
0	4780	1198.006551396835	1
0	4785	1198.523398036622	0
0	4856	1220.753078705127	1
0	4860	1224.010750553243	0
0	4881	1226.595681650965	1
0	4884	1227.713798030472	0
0	4891	1227.940838304349	1
0	4892	1229.111141628385	0
0	4939	1243.009226779412	1
0	4940	1245.679092051686	0
0	4955	1248.256775766989	1
0	4963	1251.155613628001	2
0	4964	1252.32370523346	1
0	4970	1253.296370873117	0
0	4977	1253.711342107813	1
0	4978	1253.727492284795	0
0	4989	1254.193429800448	1
0	4994	1255.646877143004	2
0	4995	1256.948589434079	1
0	5003	1258.041001041689	0
0	5036	1266.008830011999	1
0	5038	1266.486890741097	2
0	5039	1266.632626574634	1
0	5045	1267.352616365847	0
0	5119	1290.974093933106	1
0	5122	1291.741152802476	0
0	5140	1294.325887523509	1
0	5142	1295.097236170856	2
0	5146	1298.375843879897	1
0	5152	1299.271307134838	0
0	5207	1321.633642310507	1
0	5209	1322.900288687778	0
0	5222	1325.341541778541	1
0	5223	1325.846798491571	0
0	5256	1338.331261257446	1
0	5257	1338.398657691661	0
0	5263	1338.867260526086	1
0	5264	1339.349749582125	0
0	5293	1344.001858358354	1
0	5294	1344.213118538745	0
0	5302	1344.296288661669	1
0	5310	1345.741832643672	0
0	5338	1353.940118145767	1
0	5339	1354.977171778632	0
0	5349	1357.261417051078	1
0	5352	1357.660482660716	0
0	5371	1361.886024731426	1
0	5373	1362.932266009934	2
0	5375	1363.190099630751	3
0	5376	1363.444039993789	2
0	5381	1363.452571913932	1
0	5387	1364.8449595657	0
0	5399	1365.668377153936	1
0	5400	1366.042268027477	0
0	5410	1367.18098245339	1
0	5412	1367.418379477829	2
0	5416	1369.156846552294	1
0	5421	1369.861181194448	0
0	5435	1371.849220606224	1
0	5440	1374.37379785181	0
0	5444	1374.88364359628	1
0	5447	1375.47133374577	0
0	5451	1376.104023736494	1
0	5454	1376.756398088562	0
0	5466	1378.39229842966	1
0	5467	1378.496803340189	0
0	5500	1392.327482368017	1
0	5501	1393.086962693979	0
0	5531	1396.999870419359	1
0	5532	1398.391004780026	0
0	5545	1402.111052532709	1
0	5547	1402.564831202431	0
0	5553	1403.082780935163	1
0	5554	1403.260802899211	0
0	5560	1404.017038947867	1
0	5565	1408.392137024693	0
0	5588	1412.493957819062	1
0	5591	1413.125950271251	0
0	5617	1418.891079163599	1
0	5619	1419.602129940141	2
0	5622	1421.410663082101	1
0	5628	1422.433639184629	0
0	5639	1424.069102369688	1
0	5641	1424.860345722188	2
0	5649	1428.417129481327	3
0	5652	1429.091037486891	2
0	5658	1430.863900282041	3
0	5660	1431.248077728804	4
0	5663	1433.59630020644	3
0	5668	1433.630024539448	2
0	5674	1433.771306313503	3
0	5676	1434.807419963772	2
0	5683	1437.333203354752	3
0	5684	1437.667169605978	2
0	5689	1437.774281136932	1
0	5697	1438.598791978274	0
0	5729	1444.505764228321	1
0	5734	1445.793348039443	2
0	5735	1446.461145736605	1
0	5740	1446.552757396222	0
0	5746	1447.049322294342	1
0	5747	1447.379974073821	0
0	5751	1448.662984627294	1
0	5753	1449.23183845154	2
0	5757	1451.119461231285	3
0	5758	1451.488925366755	2
0	5763	1452.309679644371	1
0	5771	1453.894045191396	0
0	5786	1456.219904279827	1
0	5787	1456.737327414103	0
0	5819	1463.709231637845	1
0	5822	1465.213648288377	0
0	5834	1467.787245701071	1
0	5840	1469.126194311152	0
0	5857	1473.181220357859	1
0	5860	1474.824750764571	0
0	5871	1476.173323702031	1
0	5873	1476.529775525272	2
0	5876	1478.121391483259	1
0	5884	1479.197423075125	0
0	5903	1481.44106022464	1
0	5904	1481.798963322988	0
0	5916	1484.073457251928	1
0	5919	1486.207928620521	0
0	5930	1487.088456933942	1
0	5931	1487.336937231471	0
0	5953	1493.020375415115	1
0	5957	1493.732337897379	2
0	5961	1494.50990310611	3
0	5962	1494.792313278597	2
0	5968	1495.674421001001	3
0	5969	1496.121295924195	2
0	5974	1496.497440540566	1
0	5978	1498.078759083357	2
0	5981	1500.726796293673	1
0	5987	1501.224031362689	2
0	5988	1501.250794441084	1
0	5992	1501.335462405276	2
0	5997	1502.41841665312	1
0	6006	1506.593876890682	0
0	6013	1507.610254895775	1
0	6014	1507.976563831737	0
0	6038	1510.972040714976	1
0	6039	1511.232507226432	0
0	6051	1518.516406740565	1
0	6058	1520.890520888022	2
0	6060	1521.686844960922	3
0	6061	1521.926421293005	2
0	6066	1521.930045742501	1
0	6071	1522.044475802676	0
0	6086	1525.195128719534	1
0	6087	1525.360955585111	0
0	6108	1530.834848218771	1
0	6110	1532.600889394305	0
0	6179	1565.005735268154	1
0	6181	1565.599208881922	2
0	6182	1566.479014259697	1
0	6189	1567.077194385386	0
0	6203	1573.821096531727	1
0	6204	1574.127171682482	0
0	6232	1579.765360202392	1
0	6234	1579.925838591212	0
0	6275	1596.066874315213	1
0	6279	1597.881428241229	0
0	6293	1601.249285052749	1
0	6294	1604.763676574479	0
0	6300	1605.32701165911	1
0	6301	1606.182144961647	0
0	6322	1612.417305545947	1
0	6330	1614.620103817121	2
0	6331	1614.754643878412	1
0	6336	1615.504565423979	0
0	6353	1619.434863908677	1
0	6354	1619.635221884236	0
0	6363	1620.667122870806	1
0	6365	1621.236015279422	2
0	6369	1622.496559372678	1
0	6376	1623.895699703835	2
0	6379	1626.205230296024	1
0	6384	1628.416868085388	0
0	6390	1628.670777942747	1
0	6391	1628.708094073448	0
0	6402	1629.815267933051	1
0	6403	1630.349676451805	0
0	6415	1631.816425039348	1
0	6416	1632.769783797738	0
0	6427	1633.556508269237	1
0	6431	1634.862902385044	0
0	6437	1635.54070681383	1
0	6439	1636.071531147125	0
0	6472	1646.046132182247	1
0	6473	1647.024495847877	0
0	6552	1667.203983690072	1
0	6554	1669.954984637309	2
0	6555	1670.8087486087	1
0	6561	1671.733127716906	0
0	6615	1685.578262599033	1
0	6618	1685.900559037181	2
0	6621	1687.950233343541	3
0	6624	1688.505607527649	2
0	6629	1689.429360803738	1
0	6642	1693.296967310851	2
0	6644	1694.089213190389	3
0	6645	1694.145801677806	2
0	6654	1696.428031796361	1
0	6660	1696.682484900974	2
0	6662	1696.691655926415	3
0	6663	1697.065575966142	2
0	6668	1697.077086960248	1
0	6676	1698.718169355827	2
0	6678	1699.886385485791	3
0	6680	1700.87289434229	4
0	6682	1701.621826207163	5
0	6684	1701.750774327614	6
0	6693	1703.51340123722	5
0	6699	1704.406143984839	4
0	6704	1705.432107406142	3
0	6709	1707.229892923813	2
0	6715	1708.153477589728	3
0	6718	1709.894873536865	2
0	6724	1710.198334533577	3
0	6726	1710.680801286687	4
0	6730	1713.278728336489	3
0	6735	1713.638412824508	2
0	6741	1715.153508330594	1
0	6746	1716.355796026541	0
0	6750	1716.767286033184	1
0	6753	1718.220120605888	0
0	6775	1721.262374928782	1
0	6779	1722.10981294948	2
0	6783	1723.970830205948	3
0	6784	1725.006975429172	2
0	6789	1725.05996873521	1
0	6794	1725.442923102614	0
0	6810	1730.825556703047	1
0	6817	1734.989516395866	0
0	6824	1737.714022290045	1
0	6825	1739.909041343584	0
0	6832	1741.168608922863	1
0	6833	1742.047489256202	0
0	6844	1743.536169564005	1
0	6847	1744.229132903723	0
0	6864	1745.926049859607	1
0	6865	1746.52011017899	0
0	6871	1747.19416053784	1
0	6874	1747.669574877592	2
0	6876	1748.025395928994	3
0	6878	1748.372382093189	4
0	6879	1749.189075661606	3
0	6885	1750.731788521555	2
0	6892	1751.40935805641	3
0	6893	1751.886176656324	2
0	6901	1754.022693104363	3
0	6903	1754.457138984688	2
0	6908	1756.909763392507	1
0	6914	1757.290527628264	2
0	6915	1757.450036461324	1
0	6920	1758.350391224231	0
0	6924	1758.674545816781	1
0	6926	1759.257567375066	2
0	6928	1759.508089816203	3
0	6935	1761.897929916601	2
0	6940	1762.162828522339	1
0	6946	1762.480577613569	0
0	6954	1763.680795392053	1
0	6956	1764.757737954354	2
0	6957	1764.980597667547	1
0	6962	1766.607506985721	0
0	6986	1768.807347427366	1
0	6992	1770.600480393806	2
0	6994	1770.848027887234	3
0	6995	1770.88274400523	2
0	7001	1771.027236622852	3
0	7003	1771.244641088724	4
0	7008	1775.596399428758	3
0	7017	1777.947911495708	4
0	7019	1778.074094293308	5
0	7020	1778.262830169763	4
0	7025	1778.550046747464	3
0	7030	1779.030555918775	2
0	7037	1780.084115405076	1
0	7045	1783.687281287685	0
0	7058	1784.667412882628	1
0	7059	1784.982733262446	0
0	7092	1792.347407832021	1
0	7094	1793.55457601582	2
0	7095	1794.276868498095	1
0	7102	1796.221448911129	0
0	7117	1798.023035244021	1
0	7120	1799.861871395916	0
0	7127	1800.546237937834	1
0	7130	1801.332335657646	0
0	7148	1808.722339807816	1
0	7149	1809.376152248055	0
0	7158	1810.499010981355	1
0	7162	1812.957120427612	2
0	7164	1813.413898179634	3
0	7166	1814.606579779987	2
0	7171	1815.220408905125	1
0	7176	1815.326416122299	0
0	7273	1843.027451380965	1
0	7275	1843.112980388155	2
0	7277	1843.941876660857	3
0	7278	1847.384209325386	2
0	7283	1847.530728057182	1
0	7289	1847.710792008047	0
0	7335	1858.271834736315	1
0	7337	1859.260918707336	0
0	7347	1862.059103476015	1
0	7349	1862.254252111914	0
0	7377	1875.615640450005	1
0	7378	1876.505957783406	0
0	7409	1885.075349254553	1
0	7410	1886.007294993529	0
0	7432	1892.734729777872	1
0	7433	1892.823223122961	0
0	7463	1901.339026952935	1
0	7464	1902.038826660546	0
0	7479	1905.020947851979	1
0	7485	1907.543853078217	2
0	7488	1908.916945931675	1
0	7493	1909.046305573785	0
0	7516	1921.71965541296	1
0	7518	1923.085679944363	2
0	7521	1923.879195213213	1
0	7526	1924.300820626813	0
0	7550	1940.523834663233	1
0	7552	1940.756585507285	2
0	7554	1942.544425814231	1
0	7560	1942.746934598354	2
0	7561	1942.844843330766	1
0	7567	1945.608851169824	0
0	7653	1968.77196430458	1
0	7655	1969.598227200822	2
0	7658	1969.768724534062	3
0	7660	1969.978747492609	4
0	7661	1970.096755411267	3
0	7667	1970.626795653434	4
0	7669	1970.80177525588	5
0	7671	1971.610533157196	4
0	7678	1972.40789779081	5
0	7681	1972.806363187799	4
0	7686	1973.587269020869	3
0	7691	1976.839403573754	2
0	7695	1977.587347546738	3
0	7701	1978.264378726842	4
0	7703	1978.331978074859	5
0	7706	1981.873149504524	4
0	7711	1987.330368878462	3
0	7723	1988.351810468163	4
0	7725	1988.500158656799	5
0	7726	1988.650269381211	4
0	7731	1988.693492028685	3
0	7740	1989.265055288537	2
0	7746	1989.92800134816	3
0	7747	1990.788678254866	2
0	7752	1991.091623067402	1
0	7756	1991.26302365384	2
0	7760	1992.100753900576	3
0	7762	1992.421046995831	4
0	7766	1995.702684148288	5
0	7768	1995.734382696944	6
0	7769	1995.972889485532	5
0	7773	1997.13449602018	6
0	7775	1997.153237443751	7
0	7779	1999.443859247318	6
0	7787	2000.48930210045	5
0	7793	2001.275029644861	4
0	7798	2001.524977854502	3
0	7802	2001.603832050017	4
0	7805	2002.793592790776	3
0	7811	2004.881733628155	4
0	7813	2006.259819494882	5
0	7816	2007.121910436854	4
0	7823	2008.105024553805	3
0	7830	2008.765902454044	4
0	7833	2009.386799102726	3
0	7838	2009.68280922938	2
0	7844	2009.84886499255	3
0	7847	2013.703343959905	2
0	7853	2014.724542432876	1
0	7859	2014.978626225474	0
0	7872	2018.014797756244	1
0	7873	2018.416628989408	0
0	7889	2019.634430363988	1
0	7891	2020.263417387599	2
0	7894	2020.610688442059	3
0	7895	2021.074064026643	2
0	7902	2021.759615956387	1
0	7908	2023.551999750481	0
0	7929	2030.634300684089	1
0	7930	2030.98636032144	0
0	7956	2037.803173475832	1
0	7958	2038.45161505845	2
0	7961	2039.820750475653	1
0	7967	2040.228348589691	2
0	7968	2041.074273217682	1
0	7973	2042.020644377923	0
0	7977	2042.976032987694	1
0	7979	2043.214567144223	2
0	7982	2044.458513917292	1
0	7988	2045.771463783206	2
0	7994	2046.835376625353	1
0	7999	2047.130924789872	0
0	8016	2049.279718776313	1
0	8025	2052.955916853729	0
0	8034	2054.571133945085	1
0	8036	2055.558190555145	2
0	8038	2057.442083910073	3
0	8039	2057.901721932009	2
0	8044	2058.272316718878	1
0	8048	2058.571423409462	2
0	8050	2058.990632905976	3
0	8055	2060.47776957019	2
0	8064	2061.576479517913	3
0	8067	2062.752580595397	2
0	8073	2063.125867277002	3
0	8075	2063.987872549466	4
0	8076	2064.533075790228	3
0	8082	2065.621050450182	4
0	8083	2065.922749325362	3
0	8090	2068.578335722963	2
0	8097	2069.604257809282	3
0	8098	2069.993804889179	2
0	8104	2071.43932692751	3
0	8105	2072.201870917148	2
0	8110	2074.442722140941	1
0	8118	2077.731002186383	0
0	8129	2078.250303445003	1
0	8133	2079.305358336484	2
0	8135	2079.761882299341	3
0	8138	2079.996373565679	2
0	8144	2080.00038147882	3
0	8145	2080.388416398803	2
0	8154	2083.42803261438	1
0	8160	2084.805824801983	2
0	8161	2085.094455143836	1
0	8166	2086.614934079701	0
0	8174	2087.198152398715	1
0	8176	2087.60499385556	2
0	8177	2088.132245025286	1
0	8182	2090.550742783732	0
0	8186	2091.388668651113	1
0	8189	2091.568305907402	0
0	8200	2094.173709126198	1
0	8203	2094.536517514468	2
0	8205	2095.297096292563	3
0	8206	2096.219669656459	2
0	8214	2097.042448517055	1
0	8219	2097.451579322329	0
0	8232	2100.570162845912	1
0	8234	2101.314689365126	0
0	8257	2108.253888289638	1
0	8258	2108.384772268986	0
0	8281	2117.84155557599	1
0	8283	2118.893312068449	2
0	8289	2121.802905538284	1
0	8295	2122.385091484069	0
0	8301	2122.479333761585	1
0	8305	2124.28648475663	0
0	8312	2125.521046436453	1
0	8313	2125.578405069885	0
0	8335	2133.618639053751	1
0	8338	2137.4358727096	0
0	8353	2141.689324840683	1
0	8355	2143.358754062097	2
0	8358	2144.074600133796	1
0	8364	2145.131814471004	0
0	8371	2145.559283450593	1
0	8372	2146.613482637936	0
0	8389	2152.332568567052	1
0	8390	2153.001068349073	0
0	8404	2155.904774958953	1
0	8405	2156.068453104558	0
0	8436	2161.633551457427	1
0	8437	2162.168922957093	0
0	8492	2175.138529823397	1
0	8493	2175.695548080681	0
0	8525	2186.186466125314	1
0	8530	2188.384415647644	2
0	8531	2189.83158254303	1
0	8536	2190.777094759564	0
0	8547	2193.695178652908	1
0	8552	2194.912546051283	0
0	8558	2195.747566561391	1
0	8559	2195.894005726015	0
0	8591	2205.666976213776	1
0	8593	2206.122544112739	0
0	8599	2206.396866547829	1
0	8601	2206.752317854205	0
0	8615	2211.910248258664	1
0	8617	2211.946995034658	2
0	8618	2212.30957193739	1
0	8624	2212.507759311046	0
0	8680	2223.857889267003	1
0	8681	2224.215488011897	0
0	8694	2226.850177622556	1
0	8698	2230.632577742703	0
0	8715	2233.214876466276	1
0	8718	2233.727360668611	0
0	8729	2235.428808374028	1
0	8732	2237.657202412867	0
0	8747	2241.161954722279	1
0	8748	2241.168591120329	0
0	8752	2241.505652389405	1
0	8756	2249.136995124164	2
0	8758	2250.398587967477	3
0	8762	2251.891253692439	4
0	8764	2251.903611126091	5
0	8766	2252.132643543825	6
0	8771	2256.690043101284	5
0	8776	2257.294626272364	4
0	8786	2261.837635007895	3
0	8793	2262.532071237094	2
0	8800	2263.722198093668	1
0	8807	2265.217253501089	0
0	8818	2265.512862008455	1
0	8819	2265.685596856304	0
0	8836	2266.809353027058	1
0	8839	2268.63007216169	0
0	8848	2268.93963839548	1
0	8853	2269.671676430459	2
0	8854	2269.98304124019	1
0	8861	2270.829922718028	2
0	8862	2271.130589634006	1
0	8867	2271.464155249921	0
0	8871	2272.083161513398	1
0	8876	2274.278680196781	2
0	8877	2274.563853007205	1
0	8882	2275.238224137378	0
0	8907	2278.872535001545	1
0	8908	2280.144169472193	0
0	8932	2285.200862060209	1
0	8935	2286.141590367083	0
0	8939	2287.001591079514	1
0	8942	2288.904341246542	0
0	8967	2292.89479497293	1
0	8973	2299.516059189929	0
0	8984	2301.419615826035	1
0	8985	2301.419788136866	0
0	8991	2302.032600104273	1
0	8994	2302.334589655043	0
0	9005	2304.039804799278	1
0	9011	2305.679388352865	0
0	9036	2312.289908864741	1
0	9040	2315.510230355585	0
0	9081	2323.322359017771	1
0	9083	2323.81775106391	2
0	9085	2324.983033302115	3
0	9087	2325.005763981906	4
0	9088	2326.496384822109	3
0	9093	2326.590420800201	2
0	9099	2326.986968843985	3
0	9100	2327.254288819898	2
0	9105	2329.057979467835	1
0	9114	2330.760949261383	0
0	9136	2336.712533909569	1
0	9137	2338.290991266751	0
0	9154	2340.704220875313	1
0	9157	2341.354102570924	0
0	9167	2343.392555944892	1
0	9170	2344.942498265881	0
0	9186	2346.433932892428	1
0	9188	2347.324044892969	0
0	9205	2357.838585993976	1
0	9209	2358.21763792472	2
0	9212	2358.57569941051	1
0	9217	2358.832195486628	0
0	9249	2368.152708776139	1
0	9250	2368.211788810872	0
0	9271	2374.127093687495	1
0	9272	2374.28287035331	0
0	9278	2374.410620262365	1
0	9283	2375.902722960692	2
0	9284	2375.918050302349	1
0	9290	2377.275437989174	0
0	9312	2381.963092130173	1
0	9314	2382.07148032123	2
0	9315	2383.618975890827	1
0	9322	2384.39541132831	2
0	9324	2384.911051033661	1
0	9330	2385.540792020735	0
0	9341	2386.010579053043	1
0	9342	2386.468949175135	0
0	9348	2386.556884101052	1
0	9351	2387.173776279225	0
0	9362	2391.620225057306	1
0	9364	2391.644764683219	2
0	9370	2395.198364079075	3
0	9375	2397.206839925897	2
0	9382	2398.844043164605	3
0	9383	2398.913052619289	2
0	9389	2398.965266498952	3
0	9390	2399.004487645442	2
0	9396	2399.16726981738	1
0	9401	2402.121258996076	0
0	9414	2404.203862336309	1
0	9415	2404.967763609373	0
0	9427	2407.329983664337	1
0	9430	2409.357157561249	0
0	9447	2411.804132336102	1
0	9451	2412.389704941861	2
0	9455	2413.796403120606	3
0	9456	2413.906501186088	2
0	9463	2414.892751525024	1
0	9471	2414.967884700843	2
0	9472	2415.090944384165	1
0	9480	2418.462557110787	0
0	9493	2420.597682801208	1
0	9494	2421.673228242865	0
0	9515	2426.764855810336	1
0	9519	2428.184109997643	2
0	9520	2428.394176042452	1
0	9526	2429.496578173941	2
0	9529	2429.625667647246	3
0	9532	2429.956573583049	2
0	9539	2431.134148775465	1
0	9544	2431.840372204177	0
0	9560	2436.056605447095	1
0	9561	2436.497518612576	0
0	9587	2445.081687868875	1
0	9590	2448.281471146181	0
0	9603	2449.388492226287	1
0	9608	2450.543094953834	2
0	9611	2452.928641736073	1
0	9616	2454.431215963916	0
0	9629	2456.582764352274	1
0	9630	2456.761544158364	0
0	9658	2460.851114801489	1
0	9662	2465.540641654122	0
0	9672	2466.87866011647	1
0	9677	2467.622474578234	0
0	9687	2475.027170076948	1
0	9690	2476.209740753309	0
0	9701	2477.046447359804	1
0	9702	2477.125672949087	0
0	9708	2477.502344091052	1
0	9711	2478.829768643719	2
0	9713	2478.922594320858	3
0	9715	2479.197370888185	2
0	9722	2481.259653284871	1
0	9728	2482.558335361874	0
0	9760	2488.435337964461	1
0	9765	2488.890636934957	0
0	9781	2490.114825212319	1
0	9783	2492.10260997419	0
0	9797	2492.928178952338	1
0	9798	2493.104443838697	0
0	9838	2503.030962542194	1
0	9840	2503.322467181495	2
0	9843	2505.217921068524	1
0	9848	2505.308070925486	0
0	9901	2517.928560832381	1
0	9902	2518.263428478952	0
0	10005	2545.36411914174	1
0	10007	2546.991855219358	0
0	10021	2555.785745603763	1
0	10025	2558.354685705475	2
0	10026	2559.479907686712	1
0	10031	2559.80045108412	0
0	10037	2560.254770323002	1
0	10038	2560.286337288022	0
0	10042	2560.414419451875	1
0	10044	2563.157051358431	2
0	10047	2564.255250371627	1
0	10051	2564.31024168642	2
0	10054	2566.724164122426	1
0	10058	2567.713585711011	2
0	10060	2568.553335526381	3
0	10062	2568.730273819989	4
0	10065	2569.387425009455	3
0	10075	2571.393085732355	2
0	10080	2571.47149550838	1
0	10086	2572.385541795853	2
0	10087	2574.554897819584	1
0	10091	2575.03417173376	2
0	10096	2576.951712623749	1
0	10100	2577.615844723991	2
0	10103	2579.597332411587	1
0	10108	2580.537750630082	0
0	10120	2581.939295810624	1
0	10123	2584.376030708959	0
0	10163	2591.086389059262	1
0	10165	2592.393754015894	0
0	10239	2608.625698494077	1
0	10244	2610.587396253663	0
0	10273	2620.57925709885	1
0	10274	2620.772912596395	0
0	10291	2623.715466193591	1
0	10295	2624.555047950719	2
0	10296	2625.200164169945	1
0	10301	2626.263058853858	0
0	10308	2627.192869668008	1
0	10310	2627.21237804025	2
0	10311	2627.381964384493	1
0	10316	2627.662655245781	0
0	10344	2631.286285617743	1
0	10345	2632.433341751817	0
0	10408	2651.744070664435	1
0	10410	2652.932991925948	0
0	10424	2654.237959862859	1
0	10425	2655.33061586794	0
0	10433	2656.863302056414	1
0	10435	2656.937214282498	0
0	10453	2660.086475685941	1
0	10455	2660.343916697441	2
0	10457	2660.626928874138	1
0	10464	2662.514211307547	0
0	10468	2663.314375449991	1
0	10470	2663.333788505787	2
0	10472	2663.382759604175	3
0	10476	2664.259161219549	2
0	10482	2664.821957756196	3
0	10483	2665.066172652408	2
0	10491	2668.755467338723	3
0	10492	2669.609999173074	2
0	10501	2671.1746116597	3
0	10503	2672.130548517672	4
0	10504	2672.181760458261	3
0	10510	2672.805789206835	4
0	10512	2673.35995248958	3
0	10517	2673.378967521215	2
0	10528	2676.917439756959	1
0	10533	2677.540122530641	0
0	10569	2683.255036803097	1
0	10571	2683.597439173588	2
0	10577	2685.302090915537	3
0	10579	2685.710303029506	2
0	10584	2686.203480754547	1
0	10589	2686.316473801697	0
0	10610	2691.002200056757	1
0	10613	2691.603104498695	0
0	10619	2691.745409243413	1
0	10620	2692.029004947783	0
0	10631	2693.229575901908	1
0	10634	2693.885560607194	0
0	10654	2699.973075908446	1
0	10656	2701.663245891532	2
0	10658	2702.914481442524	3
0	10660	2704.338585742348	4
0	10661	2704.511638351476	3
0	10666	2705.079072728273	2
0	10671	2705.126564189675	1
0	10679	2709.744965317584	0
0	10718	2720.245333310839	1
0	10719	2721.961493854584	0
0	10726	2725.463240473932	1
0	10727	2725.762804593924	0
0	10733	2726.521877266804	1
0	10734	2726.529527044158	0
0	10747	2728.9289449661	1
0	10748	2729.240366971331	0
0	10769	2736.640132593165	1
0	10774	2740.814877874127	2
0	10775	2741.354608593892	1
0	10781	2741.555252520963	2
0	10787	2745.609148944594	1
0	10793	2746.244184485673	2
0	10795	2746.750337697138	1
0	10802	2747.706217334328	0
0	10814	2750.866199986068	1
0	10815	2755.833893061236	0
0	10851	2764.840505521135	1
0	10855	2766.629695258081	2
0	10862	2769.645886088373	1
0	10867	2769.909460779502	0
0	10881	2771.19710205213	1
0	10883	2771.598599088838	2
0	10887	2774.55640173043	1
0	10893	2774.992899491463	2
0	10894	2775.226704775345	1
0	10900	2775.728587374451	2
0	10902	2776.283590620823	3
0	10904	2776.502655696978	2
0	10909	2778.680087481922	1
0	10916	2781.18455007166	0
0	10930	2782.810834285198	1
0	10931	2783.561196031512	0
0	10948	2785.63687693787	1
0	10949	2786.041097017197	0
0	10957	2786.813200150536	1
0	10958	2787.317676119105	0
0	11013	2798.354960506023	1
0	11017	2799.340343039681	2
0	11018	2800.448446884847	1
0	11024	2800.978928353235	2
0	11028	2802.755936502623	3
0	11029	2802.839878621845	2
0	11036	2803.651097062822	3
0	11040	2804.358514198469	2
0	11046	2805.269783132127	1
0	11052	2807.20480057653	0
0	11064	2811.071109434447	1
0	11065	2811.821114227864	0
0	11110	2826.845605459714	1
0	11111	2827.699958579316	0
0	11119	2829.63686943576	1
0	11123	2831.258030194949	0
0	11149	2841.373310667204	1
0	11151	2842.934781179858	2
0	11152	2843.382028795299	1
0	11157	2843.747340194328	0
0	11178	2846.770606091183	1
0	11185	2848.373572454531	0
0	11197	2850.692748050668	1
0	11202	2853.682072171881	0
0	11225	2857.071045657417	1
0	11227	2857.912339801128	0
0	11234	2858.25464767076	1
0	11235	2858.983526758883	0
0	11245	2860.028186574931	1
0	11246	2860.620872924452	0
0	11253	2862.383116961154	1
0	11254	2862.389738280962	0
0	11260	2862.430651699071	1
0	11261	2862.485653105247	0
0	11293	2865.032562735791	1
0	11296	2866.713403289989	0
0	11300	2868.189654662856	1
0	11308	2869.967596963551	2
0	11311	2871.12714553992	3
0	11315	2872.421582647599	4
0	11316	2873.588518828362	3
0	11321	2873.858951287469	2
0	11327	2874.41104127473	3
0	11330	2876.980377965834	2
0	11337	2877.979021064175	3
0	11338	2878.201184026406	2
0	11343	2878.71956013137	1
0	11348	2878.749731795041	0
0	11352	2878.753393973634	1
0	11355	2880.814656413521	0
0	11399	2891.218896535557	1
0	11400	2891.422190425188	0
0	11409	2892.659593598927	1
0	11412	2894.529642373935	0
0	11436	2900.036299068783	1
0	11438	2900.25077194988	2
0	11440	2901.845566795882	1
0	11447	2903.171638509242	0
0	11469	2908.966172315453	1
0	11471	2909.292390281339	2
0	11472	2909.906795193179	1
0	11477	2909.965780214962	0
0	11494	2914.547901029064	1
0	11496	2915.771566412273	2
0	11497	2915.908143925453	1
0	11505	2916.795427578614	2
0	11507	2916.942934737202	3
0	11508	2917.557750663086	2
0	11513	2917.671988209073	1
0	11519	2918.338667972441	2
0	11520	2919.153749423487	1
0	11525	2919.912090500084	0
0	11537	2921.95253854356	1
0	11539	2922.107609180889	2
0	11540	2922.359523154131	1
0	11545	2922.623062212691	0
0	11549	2923.534806690862	1
0	11551	2924.404274372774	2
0	11555	2924.785182826841	3
0	11557	2925.331020373555	2
0	11561	2925.644531475374	3
0	11564	2926.23239534278	2
0	11572	2928.672878455038	3
0	11576	2930.397653377342	2
0	11581	2930.613827389243	1
0	11587	2930.614047468201	2
0	11589	2931.385238949556	1
0	11594	2931.431375538922	0
0	11628	2938.140518706691	1
0	11629	2939.294465682929	0
0	11636	2940.527110023259	1
0	11638	2940.590153742996	2
0	11640	2941.351105522895	1
0	11646	2941.75369922992	0
0	11668	2952.346630311831	1
0	11669	2952.902314540385	0
0	11680	2954.869126091828	1
0	11683	2955.414776872906	0
0	11690	2956.036009633213	1
0	11692	2956.192195124921	2
0	11694	2956.285017818709	3
0	11698	2958.094342377831	2
0	11704	2958.650839381206	1
0	11711	2959.497624512272	0
0	11724	2960.710305925215	1
0	11726	2960.933971679937	2
0	11727	2961.04288765715	1
0	11732	2961.090188806508	0
0	11745	2963.016705874827	1
0	11748	2963.399393830935	0
0	11754	2963.664317466165	1
0	11756	2964.377793895368	2
0	11758	2965.541211939996	1
0	11763	2966.693954871023	0
0	11803	2978.900468238925	1
0	11804	2980.212571889643	0
0	11829	2986.100738226283	1
0	11830	2987.626104034072	0
0	11836	2987.654894690254	1
0	11838	2988.252033739054	0
0	11849	2989.956083638894	1
0	11850	2991.441843479438	0
0	11858	2992.391937121834	1
0	11860	2992.576884882194	2
0	11861	2992.603302064502	1
0	11870	2996.360220493888	2
0	11871	2997.946381895586	1
0	11881	3000.371496429394	2
0	11884	3001.622299882978	1
0	11889	3001.722723714637	0
0	11896	3002.26311289056	1
0	11898	3002.296247404833	2
0	11900	3002.982407752423	1
0	11905	3003.687696600212	0
0	11927	3004.820979897229	1
0	11930	3007.024424184179	0
0	11936	3007.976106707096	1
0	11939	3008.666603775099	2
0	11940	3008.835504726523	1
0	11947	3009.571166673161	2
0	11949	3009.860466162273	3
0	11950	3010.563629261105	2
0	11956	3011.185472535003	1
0	11960	3011.468837800488	2
0	11963	3011.720456816115	1
0	11967	3012.504547040867	2
0	11969	3013.719654494721	3
0	11977	3017.357525723609	4
0	11979	3017.91804226359	5
0	11980	3018.384148383084	4
0	11986	3018.789368152607	5
0	11987	3018.933475525317	4
0	11994	3020.176819892051	3
0	12002	3022.661529519824	2
0	12012	3023.670238984137	3
0	12015	3025.857556943997	2
0	12020	3027.069598443686	1
0	12025	3027.48872083482	0
0	12029	3027.990947189092	1
0	12031	3028.206145555748	2
0	12035	3029.821738635025	3
0	12036	3031.571052712916	2
0	12043	3032.440163059763	1
0	12051	3034.357839873628	0
0	12057	3034.600643273782	1
0	12058	3034.651327741177	0
0	12065	3035.067339562017	1
0	12068	3035.921925511356	0
0	12082	3038.639070891497	1
0	12085	3039.900623016787	0
0	12111	3045.872969340388	1
0	12115	3047.434667591543	2
0	12116	3048.159437565617	1
0	12121	3048.447432677942	0
0	12142	3053.646750296396	1
0	12143	3055.19114592545	0
0	12154	3055.979897305208	1
0	12157	3056.893921242018	0
0	12164	3058.905193251308	1
0	12167	3059.16149198793	2
0	12169	3059.412951174223	3
0	12170	3060.46482251382	2
0	12176	3060.77943196121	3
0	12178	3060.921811752124	4
0	12181	3062.368851803011	5
0	12183	3062.908360968324	6
0	12184	3063.411730468342	5
0	12190	3064.176909574248	6
0	12192	3064.524972903707	7
0	12194	3067.110254096751	6
0	12200	3069.002318003061	7
0	12201	3069.087843563873	6
0	12206	3070.02320722895	5
0	12214	3073.51168061423	6
0	12223	3079.150339479213	5
0	12228	3080.602168218277	4
0	12234	3082.136810396788	3
0	12239	3082.22886200817	2
0	12245	3084.161902475039	1
0	12251	3084.442968056995	2
0	12252	3084.563209997819	1
0	12257	3085.574566517944	0
0	12265	3089.941136150011	1
0	12266	3089.986593590147	0
0	12288	3096.883693263906	1
0	12289	3097.140027860861	0
0	12298	3098.772728946759	1
0	12302	3100.331377927827	0
0	12326	3104.114991375919	1
0	12327	3104.51574995254	0
0	12359	3116.060054777775	1
0	12363	3116.560881537038	2
0	12365	3119.033685237251	1
0	12372	3119.609187370391	2
0	12375	3120.217241281778	1
0	12381	3120.667835068839	0
0	12397	3126.116045960118	1
0	12399	3126.980520505962	2
0	12400	3127.180923710786	1
0	12405	3127.30643725075	0
0	12416	3128.180916348912	1
0	12422	3131.203951634246	0
0	12426	3131.460177330972	1
0	12434	3136.531563048666	0
0	12453	3140.289426510585	1
0	12456	3143.068151672939	0
0	12468	3144.419752925354	1
0	12471	3144.575121342768	0
0	12486	3147.462834374165	1
0	12487	3147.798004995104	0
0	12494	3148.455497617584	1
0	12495	3148.652229703279	0
0	12516	3151.563663554765	1
0	12518	3152.073690301085	2
0	12520	3152.175092399454	3
0	12527	3153.019300179515	2
0	12532	3153.185069225999	1
0	12538	3156.102832161237	0
0	12560	3162.391432439355	1
0	12561	3163.9343769325	0
0	12567	3165.559299519659	1
0	12568	3165.745871150052	0
0	12595	3167.932613604679	1
0	12600	3169.471126992243	2
0	12603	3170.011072864541	1
0	12608	3170.279699980903	0
0	12616	3172.221170208302	1
0	12618	3172.376312419578	2
0	12621	3173.288460279869	1
0	12627	3175.335551531243	0
0	12633	3175.363393787813	1
0	12640	3176.382906677648	2
0	12641	3176.506383175728	1
0	12646	3176.509926051224	0
0	12652	3177.07302489755	1
0	12658	3177.700745138412	0
0	12680	3182.684719156069	1
0	12681	3182.951958106331	0
0	12696	3184.9177772516	1
0	12698	3185.269944010526	2
0	12701	3188.803185981625	1
0	12709	3192.943035309181	0
0	12715	3193.69726882519	1
0	12718	3196.83877894634	0
0	12741	3199.597345673095	1
0	12742	3199.647158182418	0
0	12748	3199.913563541937	1
0	12752	3201.062463164971	0
0	12759	3201.722830510533	1
0	12760	3203.176985593961	0
0	12766	3203.21604961608	1
0	12767	3203.337000690044	0
0	12771	3203.586988407516	1
0	12775	3204.351216717903	2
0	12779	3204.840414569793	1
0	12784	3205.569143276507	0
0	12790	3206.880331960498	1
0	12792	3207.513146720135	0
0	12812	3211.920486512087	1
0	12818	3216.55826616171	2
0	12822	3217.89016953748	3
0	12823	3218.367674955841	2
0	12830	3219.240940826204	3
0	12837	3221.951109638604	4
0	12839	3222.223357806675	5
0	12840	3224.339230709483	4
0	12845	3225.529423827744	3
0	12851	3226.062323824212	4
0	12852	3227.064222571033	3
0	12859	3227.873301694058	4
0	12862	3228.339115113857	5
0	12863	3228.368374639934	4
0	12870	3228.62243876514	3
0	12876	3229.070713695143	2
0	12883	3231.33923911669	1
0	12888	3235.247652668914	0
0	12905	3238.138588495983	1
0	12906	3238.677498186277	0
0	12926	3244.117241022719	1
0	12927	3244.887217764793	0
0	12956	3254.780523315387	1
0	12960	3256.746128635587	0
0	12972	3257.701745003398	1
0	12973	3257.76859519673	0
0	12989	3261.774043077178	1
0	12991	3262.492671705709	2
0	12997	3266.023228530033	1
0	13006	3269.082876776379	0
0	13012	3269.179932570407	1
0	13014	3269.499636143237	0
0	13031	3271.871576761491	1
0	13032	3272.275082088351	0
0	13041	3274.046360003085	1
0	13043	3274.65738171345	2
0	13050	3277.132928509685	3
0	13052	3277.72234661094	4
0	13053	3277.723196829387	3
0	13062	3280.241929944487	2
0	13067	3280.307888146504	1
0	13072	3280.921546245923	0
0	13087	3283.832335733634	1
0	13088	3283.860188861349	0
0	13094	3284.371954290031	1
0	13096	3284.934623271677	2
0	13098	3287.35274104981	1
0	13104	3287.555418988361	2
0	13105	3287.701711774679	1
0	13116	3293.920509069052	0
0	13138	3301.04711058299	1
0	13141	3301.452836581709	0
0	13162	3303.978365420856	1
0	13163	3304.787516348067	0
0	13185	3308.283860875371	1
0	13186	3309.957493422508	0
0	13203	3312.152049826698	1
0	13204	3312.606818802719	0
0	13222	3318.282462050132	1
0	13223	3319.78547824349	0
0	13237	3321.670276160308	1
0	13238	3321.825806001829	0
0	13251	3323.637640391722	1
0	13252	3324.084507809066	0
0	13260	3326.431522197442	1
0	13262	3326.497806216775	2
0	13265	3327.939535313944	1
0	13270	3328.428774562808	0
0	13278	3330.42481445863	1
0	13281	3331.712739004014	0
0	13299	3334.288121453293	1
0	13301	3334.640375792127	2
0	13304	3335.004581288735	1
0	13311	3335.374681549724	0
0	13334	3339.405965635243	1
0	13335	3339.763215863334	0
0	13359	3342.566903766907	1
0	13363	3344.163603935806	2
0	13364	3345.349428117604	1
0	13371	3346.080405218686	2
0	13372	3346.601270870381	1
0	13377	3346.853150007377	0
0	13387	3347.493197977091	1
0	13396	3351.001009212828	0
0	13405	3353.73429432466	1
0	13407	3354.569587631266	2
0	13412	3360.415453502108	1
0	13416	3360.600065252615	2
0	13421	3362.43204148403	1
0	13427	3363.823004215465	0
0	13465	3380.332336782696	1
0	13471	3383.155506875268	2
0	13472	3383.380554805721	1
0	13478	3385.645447163122	0
0	13500	3392.910864214211	1
0	13502	3393.203760333859	2
0	13509	3396.292316168795	1
0	13515	3396.379206986163	2
0	13517	3396.601985473165	1
0	13522	3396.715740434677	0
0	13552	3403.283469266542	1
0	13556	3404.646472531486	0
0	13573	3405.946164133683	1
0	13574	3408.223043499072	0
0	13600	3414.448318690189	1
0	13601	3417.371439414742	0
0	13612	3420.536354416858	1
0	13616	3421.306916174484	2
0	13617	3421.680906715102	1
0	13622	3421.73936906857	0
0	13638	3422.455260854637	1
0	13639	3423.700931095469	0
0	13648	3426.048188525966	1
0	13649	3426.354480907759	0
0	13665	3428.991804677139	1
0	13668	3429.782354545636	0
0	13678	3433.393777893326	1
0	13680	3433.400618483894	2
0	13682	3433.80901001881	3
0	13685	3434.41026060917	2
0	13690	3434.509544758036	1
0	13702	3437.191788334059	2
0	13703	3437.30152995491	1
0	13708	3437.559683944819	0
0	13751	3445.824379823469	1
0	13752	3446.216403546456	0
0	13758	3446.259589305312	1
0	13760	3448.353418668825	0
0	13781	3452.456767057585	1
0	13783	3453.131963870915	0
0	13803	3455.028075149833	1
0	13805	3455.36686982312	0
0	13811	3455.47769574467	1
0	13812	3455.684226958555	0
0	13818	3455.87946810343	1
0	13822	3457.724894607084	0
0	13860	3468.684844124548	1
0	13864	3470.822991361707	2
0	13865	3470.964672974036	1
0	13872	3472.36043431552	2
0	13873	3473.888320173919	1
0	13878	3474.71769353512	0
0	13884	3474.815433398087	1
0	13885	3474.843832665382	0
0	13907	3479.540339908934	1
0	13909	3480.273687361124	2
0	13910	3480.274199528484	1
0	13916	3482.224125529481	0
0	13927	3484.106769104312	1
0	13933	3484.777695774476	0
0	13946	3486.484122427029	1
0	13948	3486.777215698782	2
0	13949	3487.031621569848	1
0	13956	3488.440712279368	0
0	13964	3489.372742430487	1
0	13966	3490.266682781177	0
0	13978	3491.514244198311	1
0	13979	3491.759850301842	0
0	13988	3493.133879315653	1
0	13992	3493.934834879287	2
0	13994	3494.290145214238	1
0	14000	3495.374954726408	0
0	14033	3499.784933384601	1
0	14039	3502.179407734012	0
0	14047	3503.553774357465	1
0	14048	3503.659973914956	0
0	14067	3506.507355410314	1
0	14070	3508.841600681494	0
0	14076	3508.981265739574	1
0	14078	3509.433469974279	2
0	14083	3512.433814387641	1
0	14089	3513.648084976859	2
0	14090	3513.776310557858	1
0	14097	3515.113957058087	0
0	14115	3517.848290841665	1
0	14117	3519.331498773165	0
0	14124	3521.418877428007	1
0	14125	3522.308054679916	0
0	14138	3524.607632020376	1
0	14139	3524.845017570347	0
0	14151	3525.925998649287	1
0	14152	3526.22807331765	0
0	14204	3537.35587500344	1
0	14206	3538.372583146513	2
0	14207	3539.43074412198	1
0	14213	3539.525213273395	2
0	14215	3540.404965324293	1
0	14220	3540.493008460886	0
0	14230	3540.790652820738	1
0	14231	3541.79685269635	0
0	14240	3543.948573411288	1
0	14242	3545.493446371838	2
0	14247	3548.134540198873	1
0	14252	3548.518953712733	0
0	14273	3552.964235212785	1
0	14275	3553.094722147319	2
0	14278	3554.073107644879	1
0	14284	3555.932986721536	0
0	14307	3558.79527928417	1
0	14309	3558.957861431893	2
0	14311	3559.127273281173	3
0	14313	3560.066248076044	4
0	14317	3561.609883020141	3
0	14322	3562.923308802344	2
0	14328	3563.428126358286	3
0	14329	3563.734868384429	2
0	14334	3564.883239589835	1
0	14341	3568.173693336434	2
0	14342	3568.778816730166	1
0	14347	3568.847121231326	0
0	14351	3569.367096068617	1
0	14354	3569.883981029303	0
0	14362	3572.145272440261	1
0	14363	3572.832676690468	0
0	14383	3575.869850770295	1
0	14386	3576.892308320416	0
0	14404	3579.846050951104	1
0	14406	3579.906418339688	2
0	14407	3580.223829631742	1
0	14412	3581.793976527577	0
0	14418	3581.866621207152	1
0	14419	3581.923396563408	0
0	14423	3582.357763309267	1
0	14428	3583.886527735019	2
0	14429	3584.677136194129	1
0	14433	3584.774847532599	2
0	14441	3587.367620433837	3
0	14443	3588.492664252225	4
0	14445	3588.498953506772	5
0	14446	3588.546480797876	4
0	14451	3588.553652022328	3
0	14458	3589.396601245427	4
0	14461	3591.147819730333	3
0	14468	3591.379584012451	2
0	14474	3592.703650911293	1
0	14479	3593.074075197316	0
0	14491	3596.753126827046	1
0	14493	3597.004824746172	0
0	14499	3597.208580231902	1
0	14500	3597.495121025002	0
0	14577	3617.742480967055	1
0	14578	3619.281548200845	0
0	14584	3620.242529436876	1
0	14586	3621.128152721237	0
0	14617	3633.423233096404	1
0	14618	3633.654484803114	0
0	14624	3635.04586436767	1
0	14626	3636.045411298614	0
0	14687	3656.714326336154	1
0	14690	3657.160295289337	0
0	14730	3669.421106413947	1
0	14734	3670.604528381688	0
0	14740	3670.672096652917	1
0	14743	3671.912307288671	2
0	14747	3673.110901169126	1
0	14756	3675.621809976761	0
0	14769	3677.259087177621	1
0	14771	3677.481386206703	2
0	14773	3677.999627368125	3
0	14777	3679.795030739542	4
0	14781	3680.378709838091	5
0	14782	3680.407722280559	4
0	14787	3680.601818993199	3
0	14792	3680.626198700352	2
0	14796	3680.635721606572	3
0	14801	3681.285864092409	2
0	14809	3683.151430603367	1
0	14815	3683.384518742844	0
0	14822	3684.849636265009	1
0	14823	3685.804778385082	0
0	14831	3686.631777515568	1
0	14832	3686.84523418793	0
0	14889	3701.634817074395	1
0	14891	3702.241678821839	2
0	14893	3702.697400015968	3
0	14895	3702.706163099016	4
0	14896	3704.26206230836	3
0	14901	3705.020370401399	2
0	14913	3706.605567100663	3
0	14914	3707.185088926731	2
0	14921	3707.90271309239	3
0	14924	3708.446117303821	4
0	14925	3709.186653414395	3
0	14932	3709.571460469235	4
0	14933	3709.752370117444	3
0	14941	3710.283842443386	2
0	14946	3710.344549821313	1
0	14952	3710.742400686569	2
0	14953	3710.769937046834	1
0	14961	3712.024701954163	2
0	14962	3713.069932598492	1
0	14967	3715.078808169792	0
0	15047	3737.984650696085	1
0	15054	3738.748324053476	0
0	15060	3739.290917400689	1
0	15062	3739.423831217185	2
0	15063	3739.569852207263	1
0	15069	3740.509804982974	2
0	15071	3740.845339940285	3
0	15072	3741.056800004004	2
0	15076	3742.619962816287	3
0	15078	3742.691057498618	4
0	15087	3743.666680476916	5
0	15089	3743.972943756962	6
0	15092	3746.484311705855	5
0	15099	3747.045396956498	6
0	15101	3747.307024654777	7
0	15103	3747.435605380108	8
0	15104	3747.845572152929	7
0	15112	3750.437859659848	8
0	15113	3750.66485462639	7
0	15118	3751.02915935408	6
0	15123	3751.645237688403	5
0	15129	3753.048327260532	4
0	15135	3753.08634983218	5
0	15138	3759.44737371005	4
0	15142	3759.679588409066	5
0	15144	3762.099832228066	6
0	15147	3762.433633266386	5
0	15152	3763.506003083075	4
0	15157	3765.54643855349	3
0	15163	3768.137340402587	4
0	15164	3768.661299679693	3
0	15171	3772.51505327657	4
0	15172	3772.993771014882	3
0	15178	3775.455570513949	2
0	15183	3775.973437688919	1
0	15189	3777.089148908939	2
0	15191	3777.438103024774	1
0	15196	3777.583478602178	0
0	15226	3782.235437825245	1
0	15228	3782.63855135559	2
0	15230	3785.577381645932	3
0	15233	3787.061393764507	2
0	15239	3788.445049042118	1
0	15246	3788.671779158963	2
0	15247	3788.802683514818	1
0	15254	3789.319928795511	2
0	15257	3791.212913499494	1
0	15262	3791.983187468095	0
0	15293	3796.38736690326	1
0	15296	3797.573284152789	0
0	15328	3807.214441985266	1
0	15329	3807.562426278137	0
0	15335	3807.635639376315	1
0	15338	3808.475057792474	2
0	15340	3808.677380789166	3
0	15342	3809.620447871069	4
0	15343	3810.056508676079	3
0	15351	3811.182326082862	4
0	15352	3811.230719477053	3
0	15357	3811.343745292918	2
0	15362	3812.545400144878	1
0	15370	3814.522592691776	2
0	15371	3814.594162904657	1
0	15379	3816.839287839982	2
0	15384	3820.17348834174	1
0	15391	3821.87623339009	0
0	15397	3821.958890333874	1
0	15400	3822.997304436849	0
0	15415	3824.018326700455	1
0	15417	3824.030392816692	2
0	15419	3825.360665528575	3
0	15421	3825.732485733844	4
0	15423	3826.519840346369	5
0	15427	3830.330956622973	6
0	15429	3830.64019220685	7
0	15431	3831.205141969478	8
0	15434	3831.846831375539	7
0	15439	3831.848144578701	6
0	15447	3834.423326693238	5
0	15453	3835.382099454629	6
0	15456	3836.397140194392	7
0	15460	3838.214592016002	6
0	15466	3838.331941802545	7
0	15467	3839.04955904483	6
0	15472	3839.129145126403	5
0	15477	3839.488598606796	4
0	15486	3841.542242808392	5
0	15487	3842.224870775086	4
0	15494	3843.05805234991	5
0	15496	3844.177594455743	6
0	15498	3844.198120955043	7
0	15501	3845.052205329245	8
0	15502	3845.358767834292	7
0	15507	3846.395595053744	6
0	15513	3846.959662589884	5
0	15519	3847.331493428697	6
0	15521	3847.362182805265	7
0	15522	3847.671909053532	6
0	15529	3850.003455427575	5
0	15534	3850.766170837081	4
0	15539	3851.885688258494	3
0	15544	3852.888001307884	2
0	15549	3854.345852072601	1
0	15554	3855.25794377349	0
0	15574	3859.009264239164	1
0	15576	3859.069774876805	2
0	15579	3861.351496165432	3
0	15580	3861.468470034292	2
0	15586	3861.805455454132	1
0	15591	3863.077288994092	0
0	15598	3864.433342486765	1
0	15600	3867.368536501259	0
0	15630	3873.632942999025	1
0	15631	3875.308630070608	0
0	15665	3885.846734111241	1
0	15669	3887.004337583346	2
0	15670	3887.413938388454	1
0	15676	3888.823475523075	0
0	15692	3892.430198474447	1
0	15694	3894.410980539845	0
0	15700	3894.714959495782	1
0	15702	3895.424195302507	2
0	15704	3896.050472641762	3
0	15705	3896.442075229215	2
0	15710	3897.061755892436	1
0	15717	3899.25853422231	0
0	15723	3900.597530918703	1
0	15725	3901.890738109999	2
0	15727	3902.047677702954	3
0	15731	3902.79593774506	4
0	15732	3903.089790079645	3
0	15737	3905.859433989064	2
0	15741	3905.944290918203	3
0	15746	3907.339081918518	2
0	15754	3909.469893244917	1
0	15762	3909.948424362338	2
0	15764	3910.253233236255	3
0	15766	3910.420799825872	2
0	15771	3910.494330122809	1
0	15784	3914.381308914163	2
0	15785	3914.425204556491	1
0	15791	3916.266616674339	2
0	15792	3916.508589091709	1
0	15796	3917.947209718257	2
0	15798	3917.962378468285	3
0	15803	3919.140830091543	2
0	15808	3919.314439463025	1
0	15813	3922.521924964427	0
0	15827	3925.12104796466	1
0	15829	3926.739708787983	0
0	15864	3937.15695268966	1
0	15865	3938.714827663849	0
0	15871	3938.816145321682	1
0	15873	3940.492443135907	0
0	15879	3940.949190620364	1
0	15880	3941.109607637432	0
0	15888	3942.653720858011	1
0	15889	3942.895481416856	0
0	15903	3945.739595221863	1
0	15906	3946.859868871071	0
0	15914	3948.281607994891	1
0	15915	3948.71585244903	0
0	15958	3959.177718709364	1
0	15959	3959.518959618659	0
0	16002	3973.983755074716	1
0	16004	3974.149615124496	2
0	16006	3975.038150603404	3
0	16008	3976.235231260327	4
0	16009	3976.782089142461	3
0	16018	3977.812460363866	4
0	16020	3978.480250837756	5
0	16021	3980.317537623495	4
0	16026	3980.335337088199	3
0	16035	3982.671578780179	4
0	16036	3982.751756246186	3
0	16041	3982.92968571514	2
0	16045	3986.028321503036	3
0	16048	3986.434082139786	2
0	16057	3988.422359798012	3
0	16058	3990.102713283071	2
0	16064	3991.81506536651	1
0	16071	3992.850621158276	2
0	16072	3992.9804706378	1
0	16078	3993.604249944022	0
0	16084	3993.918725140877	1
0	16086	3994.289677366394	2
0	16087	3994.638286446932	1
0	16095	3998.70600305191	2
0	16100	4000.271246694385	1
0	16106	4001.157901078924	0
0	16112	4001.246957664149	1
0	16113	4001.399964730368	0
0	16139	4004.456979558379	1
0	16143	4005.420408020949	2
0	16145	4005.79953913234	3
0	16147	4005.916144343943	4
0	16151	4007.279596837913	3
0	16156	4007.548004308659	2
0	16163	4007.95506353602	1
0	16170	4011.335704087936	0
0	16202	4020.889159335863	1
0	16203	4021.975939866731	0
0	16216	4023.996773430233	1
0	16217	4024.815377062266	0
0	16236	4031.657803542107	1
0	16238	4032.496194892186	2
0	16239	4032.838437210154	1
0	16244	4033.111998565975	0
0	16253	4034.926139117662	1
0	16255	4037.829164915717	2
0	16261	4039.20266333617	1
0	16266	4039.267293190272	0
0	16287	4045.673122621408	1
0	16295	4046.710091413938	2
0	16297	4047.61570912637	3
0	16298	4048.192514305127	2
0	16304	4049.561428538242	1
0	16309	4049.692842469388	0
0	16320	4051.632195936862	1
0	16321	4051.923198859795	0
0	16332	4052.712467854348	1
0	16333	4052.93126249765	0
0	16343	4056.361685196409	1
0	16347	4057.54407233645	2
0	16350	4058.173659619412	1
0	16361	4061.427411708048	2
0	16363	4061.973363340285	3
0	16364	4062.863938456319	2
0	16371	4064.370156212128	1
0	16375	4068.141257262838	2
0	16378	4068.923174006171	1
0	16388	4069.979322596803	2
0	16389	4070.503564507965	1
0	16397	4073.119275912132	2
0	16399	4073.584826652386	3
0	16400	4073.785519866348	2
0	16405	4074.157449920898	1
0	16410	4074.365801631735	0
0	16444	4083.835444284287	1
0	16446	4083.943115072608	2
0	16448	4084.006171911861	3
0	16450	4085.159647152548	4
0	16452	4085.171814283233	5
0	16456	4087.344238450219	6
0	16457	4087.514093701132	5
0	16464	4088.388824117782	4
0	16469	4088.550914862789	3
0	16474	4089.334963869607	2
0	16481	4091.04805548618	3
0	16482	4091.243492801629	2
0	16486	4092.566479884917	3
0	16489	4095.046053944031	2
0	16498	4097.946879039819	1
0	16503	4099.870190828747	0
0	16507	4099.896547994224	1
0	16512	4100.610683761928	0
0	16516	4100.856697185055	1
0	16519	4101.904436040324	0
0	16532	4106.012211524658	1
0	16533	4106.733866406263	0
0	16554	4109.422364246311	1
0	16556	4110.353657889943	2
0	16557	4110.801912369667	1
0	16562	4110.851987914265	0
0	16577	4114.244075352155	1
0	16579	4114.331041546944	2
0	16584	4115.135949049029	3
0	16585	4118.92926640102	2
0	16592	4119.535441918463	3
0	16594	4120.206712466873	2
0	16599	4120.681840695733	1
0	16606	4121.926214278532	0
0	16619	4122.925954963412	1
0	16621	4124.040404788109	0
0	16647	4127.729911113551	1
0	16649	4128.434311325051	2
0	16650	4129.049706400074	1
0	16657	4129.790480081579	2
0	16658	4129.891196424496	1
0	16665	4130.656480918908	0
0	16695	4135.348833681773	1
0	16697	4136.74992124282	2
0	16699	4138.060235475663	3
0	16700	4138.581620989644	2
0	16705	4139.938560548322	1
0	16710	4140.128535025761	0
0	16718	4143.550376443229	1
0	16719	4143.627491572085	0
0	16736	4145.173572926657	1
0	16740	4146.832746887415	0
0	16754	4149.317891437398	1
0	16757	4151.821522704089	0
0	16761	4154.103210426956	1
0	16763	4154.380693267922	2
0	16766	4157.490782488036	1
0	16771	4160.849948396475	0
0	16777	4163.249243779518	1
0	16778	4163.573756319979	0
0	16791	4166.523846121614	1
0	16792	4167.083237248891	0
0	16814	4176.876188757368	1
0	16815	4177.041655639816	0
0	16828	4179.260098530325	1
0	16829	4179.637489413122	0
0	16906	4213.192658295625	1
0	16908	4215.059589942031	0
0	16914	4215.59721671444	1
0	16915	4215.7225774765	0
0	16926	4217.94751268821	1
0	16930	4218.198247639551	2
0	16931	4218.219591764928	1
0	16937	4219.563028571012	2
0	16938	4219.881646560822	1
0	16943	4221.611536094085	0
0	16967	4228.257500488618	1
0	16969	4228.435895670871	2
0	16971	4229.549352160037	3
0	16973	4230.091355172988	4
0	16974	4231.117078223757	3
0	16979	4231.268523632912	2
0	16984	4231.814260061814	1
0	16992	4233.738428741508	2
0	16993	4233.828233303111	1
0	17001	4237.215679381361	0
0	17022	4239.993914479157	1
0	17025	4240.347386672953	0
0	17039	4242.196619846589	1
0	17041	4244.483910814214	0
0	17052	4245.808418137192	1
0	17054	4246.303114893296	0
0	17087	4254.045729757914	1
0	17088	4256.460788027092	0
0	17121	4269.755901801501	1
0	17124	4274.855528724799	0
0	17172	4291.291453829668	1
0	17175	4292.417242144414	0
0	17193	4293.354366173992	1
0	17194	4293.482560612169	0
0	17211	4297.254478386176	1
0	17218	4300.026250871876	0
0	17228	4301.840558117535	1
0	17230	4302.281929304883	2
0	17232	4302.847164232067	3
0	17236	4303.221322353355	4
0	17237	4303.461116287672	3
0	17242	4303.528093109084	2
0	17247	4304.441402416731	1
0	17252	4305.647516598563	0
0	17273	4309.408729258403	1
0	17277	4310.790755641561	2
0	17278	4310.938267586537	1
0	17284	4311.20451380534	2
0	17286	4312.64759539981	1
0	17291	4312.772810166723	0
0	17301	4315.754610779703	1
0	17308	4318.980052783813	0
0	17340	4323.136370630976	1
0	17341	4324.409417422497	0
0	17349	4324.699822553996	1
0	17351	4325.192367180194	2
0	17353	4326.200469002885	3
0	17358	4328.057047726322	4
0	17359	4328.138367238847	3
0	17369	4328.929002049044	2
0	17375	4330.122793390365	3
0	17376	4330.174838699266	2
0	17382	4330.8875136384	3
0	17383	4331.066213966814	2
0	17389	4332.206674836203	3
0	17391	4333.201302585212	2
0	17396	4334.702302161852	1
0	17404	4337.295535539854	0
0	17411	4337.587475516935	1
0	17412	4337.692207258654	0
0	17423	4338.948447461651	1
0	17426	4341.646708050394	0
0	17438	4342.052640261934	1
0	17440	4342.082635594527	2
0	17443	4343.727172536654	1
0	17449	4343.7554486119	2
0	17451	4343.871965700469	3
0	17456	4345.119441186751	4
0	17458	4345.680847338134	3
0	17463	4346.173258390384	2
0	17468	4346.357238995684	1
0	17475	4347.138418711283	2
0	17477	4349.323366520052	1
0	17483	4349.378317940416	2
0	17484	4349.511975031974	1
0	17490	4349.934003327876	2
0	17491	4350.303797986101	1
0	17496	4350.558696288826	0
0	17511	4355.2879552567	1
0	17512	4355.735892807905	0
0	17518	4355.830475618859	1
0	17522	4356.233697061741	2
0	17525	4356.763191229321	3
0	17527	4357.320550786531	4
0	17528	4357.62579510532	3
0	17536	4358.649306767553	4
0	17539	4360.013537306498	5
0	17540	4360.203831703474	4
0	17549	4361.413403409109	3
0	17554	4362.055322308991	2
0	17564	4363.11617539308	1
0	17569	4365.073064404017	0
0	17573	4365.118370718236	1
0	17577	4365.460008978163	2
0	17578	4365.70574222993	1
0	17582	4365.789443449796	2
0	17586	4367.116554637951	3
0	17587	4367.477462101686	2
0	17592	4368.430844129522	1
0	17599	4372.146751857509	0
0	17605	4372.38110086901	1
0	17606	4372.512752110882	0
0	17618	4373.352867213293	1
0	17619	4375.375601730072	0
0	17637	4378.676804423059	1
0	17638	4378.682640862227	0
0	17651	4379.767303521165	1
0	17653	4379.896396592364	2
0	17654	4380.016509569267	1
0	17660	4380.602637764359	2
0	17664	4382.148238888535	3
0	17665	4382.454560554116	2
0	17672	4384.097080320952	1
0	17679	4384.878623189689	0
0	17720	4394.139920725215	1
0	17722	4394.559231667701	2
0	17723	4395.906861426478	1
0	17729	4397.048153404383	0
0	17738	4400.671839920833	1
0	17739	4400.769486820107	0
0	17754	4402.342777967229	1
0	17757	4404.550718031306	0
0	17768	4406.153904823476	1
0	17771	4408.562072194834	0
0	17777	4408.60602757744	1
0	17778	4409.004916368819	0
0	17785	4409.548209299946	1
0	17789	4411.640137347072	0
0	17800	4412.001162405113	1
0	17803	4413.442704302231	0
0	17819	4415.622644612102	1
0	17820	4416.89364252787	0
0	17829	4419.926298211687	1
0	17830	4420.712004615354	0
0	17842	4423.542848578021	1
0	17843	4423.903113391073	0
0	17849	4424.262354406926	1
0	17850	4424.352740055858	0
0	17856	4426.649602044568	1
0	17857	4427.4332907607	0
0	17861	4427.474569802403	1
0	17863	4431.065002982008	2
0	17867	4432.798419033166	3
0	17870	4433.827508476109	2
0	17874	4434.480146108836	3
0	17878	4434.708192996255	4
0	17879	4435.331373314329	3
0	17884	4438.030951580621	2
0	17888	4438.567079774179	3
0	17893	4440.428602236295	2
0	17901	4441.019784640632	1
0	17906	4442.051579668363	0
0	17912	4442.450763125904	1
0	17918	4444.511506997702	0
0	17930	4445.786652505606	1
0	17937	4449.347665872514	0
0	17964	4455.104299092534	1
0	17966	4455.385028030223	2
0	17971	4456.954856571649	1
0	17978	4457.485898709755	0
0	17994	4462.975446615732	1
0	18000	4465.096797239436	0
0	18013	4466.782690155397	1
0	18016	4467.055467345771	0
0	18022	4467.420144713047	1
0	18025	4468.455608297183	2
0	18026	4469.120228386226	1
0	18031	4469.708318286438	0
0	18081	4482.836328472159	1
0	18082	4483.195883828578	0
0	18091	4483.403911489924	1
0	18096	4484.895385093892	0
0	18103	4485.347489171872	1
0	18106	4486.038398157872	0
0	18117	4486.332440062976	1
0	18124	4489.871934543488	0
0	18135	4491.869018954943	1
0	18138	4492.942446105508	0
0	18160	4499.02596071004	1
0	18162	4499.247920206602	2
0	18164	4499.502129895688	1
0	18173	4501.519079114	2
0	18177	4502.886765205039	3
0	18178	4503.761016520341	2
0	18184	4505.229396156418	3
0	18187	4505.655352636349	2
0	18193	4506.797509386339	1
0	18199	4509.378019671876	0
0	18205	4509.754101555456	1
0	18206	4510.140434530581	0
0	18227	4514.351214879794	1
0	18234	4517.566818003493	0
0	18307	4544.657507691171	1
0	18309	4547.671197437562	0
0	18339	4561.951242533256	1
0	18342	4565.487422363943	0
0	18450	4601.208748067077	1
0	18453	4604.954318813788	0
0	18465	4610.692849920304	1
0	18467	4611.60250353597	2
0	18468	4613.839577584789	1
0	18474	4613.957472460219	2
0	18477	4614.682144540161	1
0	18483	4614.902325568637	2
0	18486	4615.002311787357	3
0	18489	4616.178729180198	2
0	18495	4616.417512829991	1
0	18501	4617.137256140903	2
0	18502	4617.956570140744	1
0	18510	4621.873498190932	0
0	18546	4631.269918655563	1
0	18547	4631.537632333736	0
0	18554	4632.484193972126	1
0	18557	4633.207030233441	0
0	18586	4643.674797776086	1
0	18587	4644.590065600153	0
0	18617	4649.962698181308	1
0	18618	4650.002901174261	0
0	18642	4654.504804492424	1
0	18648	4660.158431450838	2
0	18650	4661.746826684261	3
0	18651	4661.986266561096	2
0	18656	4662.553374668433	1
0	18662	4662.75589558207	2
0	18663	4663.152378003179	1
0	18669	4663.973222426778	2
0	18672	4666.500150927652	1
0	18680	4667.396087839595	2
0	18682	4667.688846945195	3
0	18687	4669.138817577121	2
0	18694	4670.668702488176	3
0	18695	4671.310991432488	2
0	18701	4671.86007927099	1
0	18708	4672.472731611173	2
0	18710	4673.695347514472	3
0	18711	4673.748391049851	2
0	18717	4675.815455943906	1
0	18723	4675.990195560876	2
0	18724	4676.256827708078	1
0	18731	4677.748478451373	0
0	18738	4678.311504798254	1
0	18739	4678.335474796447	0
0	18756	4681.483285802675	1
0	18757	4682.013428711271	0
0	18776	4684.123221118826	1
0	18778	4684.173300857318	2
0	18779	4684.728112650975	1
0	18792	4686.937195023472	2
0	18793	4688.879353735024	1
0	18800	4689.557988569954	2
0	18801	4689.781368548543	1
0	18807	4690.303665152576	0
0	18824	4693.369928052758	1
0	18828	4695.511331774894	2
0	18831	4696.049952668097	1
0	18838	4696.590327339743	0
0	18845	4697.229474389208	1
0	18848	4699.951472264815	2
0	18850	4703.578134622596	1
0	18857	4706.404484339109	2
0	18858	4706.629894166343	1
0	18864	4706.722623737684	2
0	18865	4707.802502493771	1
0	18872	4708.218128883034	2
0	18873	4708.334608727173	1
0	18879	4708.427054400977	2
0	18885	4710.657169523452	1
0	18894	4711.482015081343	0
0	18937	4722.330756254048	1
0	18940	4724.788729594648	0
0	18946	4725.907323491284	1
0	18948	4726.132007025068	0
0	18962	4729.517169242113	1
0	18963	4730.141035321339	0
0	18988	4737.069592163138	1
0	18989	4737.253240076502	0
0	18998	4739.483404959427	1
0	19002	4742.581573318856	0
0	19008	4742.585453767454	1
0	19009	4742.985922042438	0
0	19036	4748.665229127603	1
0	19038	4749.40768756258	2
0	19039	4749.518425288339	1
0	19044	4750.181087724065	0
0	19054	4750.666191082964	1
0	19059	4751.895088228691	0
0	19099	4758.817990073402	1
0	19101	4759.44561115801	2
0	19104	4759.978699878886	1
0	19113	4761.84528759079	2
0	19114	4762.193483048414	1
0	19121	4762.53868275348	2
0	19122	4764.503845859846	1
0	19132	4766.359283639236	2
0	19135	4766.672057293791	3
0	19136	4766.705501441769	2
0	19143	4767.470443633146	3
0	19146	4768.627335306789	2
0	19151	4769.443213466748	1
0	19156	4772.35417125897	0
0	19160	4773.179198918792	1
0	19164	4773.776030868905	2
0	19168	4775.580477556311	1
0	19173	4775.725364383489	0
0	19187	4778.187120026335	1
0	19191	4778.645216118421	2
0	19193	4781.348493495069	1
0	19201	4782.154637123787	2
0	19202	4782.692566619334	1
0	19206	4782.801938636093	2
0	19208	4782.830603532102	3
0	19212	4782.973060877129	4
0	19214	4783.005903556498	5
0	19215	4783.181551875795	4
0	19219	4784.295484041888	5
0	19222	4784.910017601584	4
0	19227	4786.842360394575	3
0	19233	4787.16235216446	4
0	19236	4788.034821516112	3
0	19242	4790.951863182738	2
0	19247	4791.534484791036	1
0	19251	4792.147268238677	2
0	19259	4794.062894709569	3
0	19263	4795.613450234334	2
0	19269	4796.18239637531	1
0	19275	4798.775247948774	2
0	19277	4799.326917696505	3
0	19282	4801.377514052968	2
0	19287	4801.715064226132	1
0	19291	4802.150932899886	2
0	19293	4802.599618037543	3
0	19295	4802.738946178657	4
0	19301	4805.62463206792	3
0	19308	4805.853294887255	4
0	19309	4806.164750298816	3
0	19314	4809.53845537085	2
0	19321	4810.085081690024	3
0	19324	4810.891261544309	2
0	19335	4813.80751200848	1
0	19347	4817.06489919247	0
0	19353	4818.617103428786	1
0	19355	4819.033302441604	2
0	19356	4820.0137515277	1
0	19361	4821.81704642747	0
0	19365	4821.93570944199	1
0	19371	4824.765635930211	2
0	19373	4825.305366297379	3
0	19374	4825.833486160353	2
0	19383	4827.698702556516	3
0	19384	4828.193775956521	2
0	19389	4829.171255786269	1
0	19394	4830.146934330521	0
0	19398	4830.176134229643	1
0	19403	4830.785216284659	0
0	19407	4832.096281738251	1
0	19415	4834.46649693843	2
0	19416	4834.627010577047	1
0	19420	4836.119151924298	2
0	19424	4837.139224016235	3
0	19426	4837.329285955946	4
0	19429	4837.862754666277	3
0	19434	4839.923956793174	2
0	19440	4842.465497482112	1
0	19446	4842.713908342592	2
0	19450	4844.954714481549	3
0	19451	4845.179141732535	2
0	19461	4846.001502690953	3
0	19462	4847.193970045453	2
0	19467	4847.78272923425	1
0	19472	4851.472804639951	0
0	19476	4852.266574774526	1
0	19480	4854.829932220677	0
0	19486	4855.280563866288	1
0	19487	4856.27475843308	0
0	19491	4857.181559721433	1
0	19494	4862.041996294686	0
0	19506	4863.306252586744	1
0	19508	4864.647901987053	0
0	19514	4864.69604726079	1
0	19516	4866.822963923438	0
0	19557	4873.844384288506	1
0	19562	4876.89008522739	0
0	19573	4880.548901050674	1
0	19574	4880.558405385816	0
0	19593	4883.126331634849	1
0	19594	4883.681132616899	0
0	19606	4884.340513242389	1
0	19608	4886.358328991249	0
0	19614	4886.40738883864	1
0	19616	4887.647862216402	2
0	19617	4887.708624939417	1
0	19628	4890.451743695094	2
0	19629	4892.076153594378	1
0	19636	4892.5962298344	0
0	19642	4894.593182639061	1
0	19643	4895.686998662414	0
0	19662	4900.530461752367	1
0	19663	4900.605638528033	0
0	19671	4902.905477526892	1
0	19673	4904.71409303923	2
0	19675	4908.164154315576	3
0	19676	4910.941670911538	2
0	19683	4911.50708071565	1
0	19689	4911.612770136302	2
0	19690	4911.838916789358	1
0	19695	4912.005312870539	0
0	19709	4912.909325079504	1
0	19711	4914.367430123212	0
0	19724	4915.517607810195	1
0	19725	4915.820143620138	0
0	19762	4920.986821813648	1
0	19765	4921.184619165233	0
0	19773	4921.465041466919	1
0	19775	4921.881789368165	2
0	19778	4922.657174574647	3
0	19779	4922.917006921519	2
0	19784	4923.153184880048	1
0	19789	4923.396711454121	0
0	19801	4925.276886429631	1
0	19803	4925.932317068978	0
0	19816	4930.306868256166	1
0	19818	4931.717156252869	0
0	19836	4934.282582070656	1
0	19841	4935.213665620378	0
0	19847	4935.278902600435	1
0	19849	4936.000615174756	0
0	19860	4938.168699079207	1
0	19862	4939.033327990983	2
0	19866	4939.629972447444	3
0	19870	4941.476831359645	2
0	19876	4941.561987227508	1
0	19887	4943.818234798206	0
0	19907	4948.871517352769	1
0	19910	4950.244516754515	0
0	19916	4950.293941696593	1
0	19917	4950.447019760029	0
0	19928	4952.499657591227	1
0	19931	4955.156258063246	0
0	19942	4956.395865227217	1
0	19945	4957.695482349773	0
0	19958	4958.30427120066	1
0	19959	4958.458781032327	0
0	19968	4958.892460613975	1
0	19973	4961.59973943776	0
0	19986	4962.95288410349	1
0	19992	4963.737933700833	0
0	20000	4964.962187905389	1
0	20001	4965.455314664427	0
0	20028	4969.881283800193	1
0	20030	4970.405341482159	2
0	20031	4971.284906812178	1
0	20036	4972.04622479561	0
0	20053	4977.540361138896	1
0	20055	4978.155670159216	0
0	20063	4978.850383344747	1
0	20064	4979.170816777787	0
0	20084	4981.321260005684	1
0	20087	4982.248300049218	0
0	20095	4983.608969452004	1
0	20097	4984.664700554847	0
0	20112	4987.247805222253	1
0	20113	4988.978177802405	0
0	20119	4989.084636968128	1
0	20121	4989.114557046945	2
0	20125	4990.47575949611	3
0	20127	4991.342435613065	4
0	20129	4991.989417853351	5
0	20130	4992.24093649891	4
0	20135	4992.786691494848	3
0	20139	4993.015589852827	4
0	20142	4993.226964073819	3
0	20146	4993.530976717043	4
0	20148	4994.08884002337	5
0	20150	4994.759480783404	6
0	20153	4995.684227192581	5
0	20157	4995.980719492251	6
0	20161	4999.555876539209	5
0	20166	4999.610419986535	4
0	20173	5000.103523400015	5
0	20175	5000.324574341435	6
0	20178	5001.368323696756	7
0	20179	5001.506000060837	6
0	20184	5001.681760675433	5
0	20190	5002.830092053547	6
0	20192	5003.189289002908	5
0	20197	5004.364954789823	4
0	20203	5006.875947393922	5
0	20206	5007.549862787378	4
0	20212	5008.363640329467	3
0	20221	5009.02247199551	4
0	20224	5011.195445721435	3
0	20230	5012.381482540089	2
0	20235	5013.815316944255	1
0	20242	5014.876475169437	0
0	20259	5015.965010376383	1
0	20261	5017.525330899161	0
0	20276	5019.319734561502	1
0	20280	5021.298726692108	2
0	20281	5021.775532492761	1
0	20290	5023.9689922206	2
0	20291	5024.402168627361	1
0	20297	5025.086810043947	0
0	20305	5025.798872964586	1
0	20307	5025.887509061102	2
0	20311	5027.867395234214	1
0	20316	5028.247341630956	0
0	20329	5029.591656184773	1
0	20330	5029.741108091968	0
0	20337	5031.07685103385	1
0	20338	5031.082980728524	0
0	20357	5033.941853936202	1
0	20358	5036.353221434744	0
0	20370	5036.601419876877	1
0	20371	5036.643558556475	0
0	20377	5036.657838831696	1
0	20380	5037.33135030893	0
0	20395	5040.662644140289	1
0	20399	5041.696928614979	2
0	20402	5042.502556107408	1
0	20407	5043.117219097752	0
0	20442	5051.344449085922	1
0	20444	5052.474492328188	2
0	20448	5055.275958857225	3
0	20449	5056.529161064704	2
0	20454	5056.757750189707	1
0	20459	5056.992901858212	0
0	20463	5057.25239950312	1
0	20466	5057.644652628688	0
0	20483	5061.265634241127	1
0	20487	5064.555323217086	2
0	20489	5064.63546382043	3
0	20492	5065.423971830762	2
0	20498	5065.658279293857	1
0	20506	5068.039119850107	0
0	20517	5069.079737415335	1
0	20519	5069.493789361047	2
0	20525	5071.870920022614	1
0	20532	5072.418119186454	2
0	20535	5073.257974218249	3
0	20537	5073.266020225272	4
0	20538	5073.317467029155	3
0	20543	5074.016937419896	2
0	20549	5074.373756990047	3
0	20551	5074.514065782813	4
0	20555	5075.744935912191	5
0	20559	5077.759759100638	4
0	20565	5079.563768639541	3
0	20573	5080.887251359564	4
0	20574	5081.079249325394	3
0	20580	5081.429772395304	2
0	20585	5081.71795461643	1
0	20589	5082.223000123444	2
0	20592	5083.99469748103	1
0	20596	5084.338740735067	2
0	20599	5085.15661726388	1
0	20606	5086.811065057457	2
0	20609	5087.933412773491	3
0	20613	5089.313391420993	4
0	20615	5089.86552142034	5
[...]
4	113721	27808.771627937741	41.131386557108
4	113726	27809.079781955374	38.155242131791
4	113733	27810.021056384333	34.025567593624
4	113748	27813.001386329459	35.401818453911
4	113771	27821.724843374169	39.948357783829
4	113781	27822.547466288649	37.312235382252
4	113788	27823.058915054624	37.07078409747
4	113800	27826.423745365594	37.315091033893
4	113817	27831.06439764161	24.85226968214
4	113829	27833.769611650137	18.654328654831
4	113836	27835.223186074123	12.408629184465
4	113855	27837.234122035103	11.921215172247
4	113863	27840.728435687073	14.847051254569
4	113889	27847.459472413484	20.217117428821
4	113896	27848.66257309334	12.616356144793
4	113903	27851.739883990385	10.257362884835
4	113921	27853.505053464781	11.606204017438
4	113935	27859.317399357752	13.280725210533
4	113993	27875.880876240173	28.092210955571
4	114125	27903.830131678654	48.086432003583
4	114178	27912.767208352219	49.838247373494
4	114187	27916.204822683583	41.205470295804
4	114198	27919.633327816236	32.276357825902
4	114238	27930.14111711969	40.767268707033
4	114332	27947.476240160781	51.572877573942
4	114413	27964.4785128555	68.431339313856
4	114433	27967.840874515172	67.580397548583
4	114441	27969.924374169533	68.936341904956
4	114452	27975.588751956548	74.045893043149
4	114472	27980.676003644034	77.53872000856
4	114492	27983.5286347215	79.837994658631
4	114508	27989.17456332769	84.023585948616
4	114525	27990.910090489673	78.96876104906
4	114530	27991.923484059916	77.774322343056
4	114541	27995.913934242871	81.439532855705
4	114571	28003.432265531767	75.333182922195
4	114576	28003.766673097291	72.987578379676
4	114581	28004.642122165634	68.172880530045
4	114588	28008.393985833595	70.741124594988
4	114599	28011.165467284375	73.052309248092
4	114612	28015.553687038368	74.939615092994
4	114681	28029.542910487968	84.502201546583
4	114690	28032.10317516123	86.04993133896
4	114701	28033.818919076931	85.052379011631
4	114713	28035.702228348834	86.704047158227
4	114738	28040.508206073806	90.628175523158
4	114746	28040.836315536964	86.488840414778
4	114757	28046.209300393897	86.403437486214
4	114766	28050.384749706518	84.474346693325
4	114788	28054.692814883553	85.172546489998
4	114797	28056.121659728775	80.654203844291
4	114813	28059.829362462673	76.024362763446
4	114829	28063.162341598269	68.693403874783
4	114848	28067.754033931937	71.352443945442
4	114871	28072.528195888233	60.82057907577
4	114883	28073.554979412028	54.376777007906
4	114890	28076.493697436486	56.946969134279
4	114896	28078.456393260086	57.565957176943
4	114906	28080.590839689681	59.584758489432
4	114928	28083.82709823233	60.562025465109
4	114933	28084.435284965683	52.920577890458
4	114942	28086.505889922065	51.995978167438
4	114959	28088.569231772566	48.418252200803
4	114968	28091.296277919591	50.483146353156
4	115010	28097.616666128924	56.509129816366
4	115024	28098.866607250912	56.673507145996
4	115072	28109.669359118539	62.356640589545
4	115084	28112.709926295595	57.292680358367
4	115101	28115.793433329471	59.039420128532
4	115111	28118.512863668842	55.600776332846
4	115118	28119.098265544932	54.910875538591
4	115131	28126.946176879838	62.42685316627
4	115243	28162.452810706939	95.227588528129
4	115256	28164.298396852954	94.819854448182
4	115266	28165.536719455028	92.783474353865
4	115277	28167.286553135251	91.034852028825
4	115294	28171.020899187114	90.293735882399
4	115299	28172.385908794388	89.596002145159
4	115306	28174.259036236359	82.527332326988
4	115325	28177.248455264388	82.695974470191
4	115421	28198.966813011546	102.55872027279
4	115429	28199.282441453368	99.395645955708
4	115450	28204.742938431316	103.64745655247
4	115468	28209.670119950795	104.18025594741
4	115479	28210.124083621588	100.3526205647
4	115486	28215.098325623448	100.71343832505
4	115497	28220.115454339787	105.60164429496
4	115506	28223.786340934547	108.93843147955
4	115523	28227.669501562951	110.61798743065
4	115549	28236.694328874683	118.78841346567
4	115557	28238.636002247437	119.72764420734
4	115571	28240.515507059622	120.43737405291
4	115576	28241.708226591745	118.00254072774
4	115583	28243.836024872667	112.77514914593
4	115588	28245.479529217632	109.24320492901
4	115593	28246.878660155409	110.21735619958
4	115600	28247.964700849461	94.659833262869
4	115612	28248.9937445375	94.69983014861
4	115621	28250.690294331644	95.339729795746
4	115631	28252.439356563407	93.743070273609
4	115640	28254.797668594968	88.571019818417
4	115658	28256.601932986377	89.147045242051
4	115665	28259.647528743394	91.526464144771
4	115677	28262.450326118639	93.34784073553
4	115685	28265.171183070709	85.217646293902
4	115692	28266.347659312822	84.906236573591
4	115705	28270.381220519704	86.514187358203
4	115716	28274.242990022365	88.67797603153
4	115733	28278.341186868213	91.873781481478
4	115749	28281.776973546316	88.305184387164
4	115771	28288.051534011933	89.669612770456
4	115776	28288.162252517578	83.600208035415
4	115781	28288.688956448832	82.210489903323
4	115789	28294.158859442834	73.922772785467
4	115809	28297.614559022222	68.082902870945
4	115820	28302.264992701559	69.396602294514
4	115843	28305.404925705208	65.317565279693
4	115851	28310.046448101894	67.673501327702
4	115858	28311.447156207285	60.938093969065
4	115883	28319.519631535172	54.355472778
4	115888	28320.674702690889	51.983926521267
4	115895	28321.27794914487	42.934998981522
4	115907	28326.052661877839	47.017149388389
4	115933	28332.159395087793	17.994704709125
4	115942	28333.835451043919	17.463470785799
4	116052	28367.345887432679	46.156267300493
4	116063	28369.413854090203	44.081721851916
4	116074	28369.895416751816	37.518985961598
4	116082	28371.384269519147	28.202830349971
4	116087	28372.017566475072	18.552447070132
4	116092	28373.898198366983	19.93188509762
4	116097	28376.404636175507	18.953478645441
4	116104	28377.169587362192	16.33914628169
4	116115	28378.067129892366	16.027901100634
4	116121	28379.400155417813	10.614257556768
4	116125	28381.850741085822	11.225971204218
4	116144	28386.046478606718	1.031371764887
4	116148	28389.295269900651	3.394827658613
4	116178	28398.538772988415	1.254751319569
4	116203	28406.702423694941	2.86344531438
4	116210	28407.906043458717	1.149124710187
4	116230	28410.670315667205	1.638280556029
4	116235	28411.431857011364	2.116074590079
4	116239	28412.602780737942	3.065689362336
4	116249	28414.364071149668	0.325619993458
4	116257	28418.122570856808	0.653804943859
4	116295	28435.457955754239	3.999778831836
4	116329	28440.160524144533	6.548857155579
4	116333	28440.22643356056	1.595768962137
4	116344	28449.093585239978	2.537520123957
4	116394	28468.263032097583	4.164672472995
4	116408	28474.016631080484	4.08397250028
4	116430	28479.023943528679	8.702363080984
4	116467	28484.496255080486	2.278818323535
4	116484	28492.202197543258	0.060451925053
4	116530	28498.280262483307	3.107277780188
4	116569	28509.125594535605	12.893919670085
4	116663	28531.076093169066	34.222218631517
4	116672	28531.708714256105	31.170796322181
4	116724	28543.032112461149	40.479804095856
4	116729	28544.224119339632	37.085489672393
4	116742	28547.425855501817	37.961785001298
4	116764	28549.593424635244	39.346698062667
4	116769	28550.638440234489	38.547962095287
4	116787	28558.391963942909	46.199449775804
4	116804	28560.883940895309	43.69330860484
4	116817	28563.037417684438	30.89997205829
4	116837	28566.558145667356	32.383192246936
4	116846	28567.88453024255	31.816542760844
4	116863	28573.292519353445	20.045231686506
4	116881	28579.91783749449	25.946052845834
4	116886	28580.885448206289	25.762220214492
4	116898	28583.190179236813	27.935260642617
4	116918	28588.366993584188	20.936971225447
4	116927	28593.101967279693	25.19614620507
4	116972	28602.780701521573	20.888176294397
4	116982	28603.715517617801	20.020391091295
4	117010	28606.85639051653	14.723275558122
4	117019	28612.73881307272	14.278177844435
4	117029	28613.975962839148	8.740319763573
4	117039	28617.743865834905	10.069834774836
4	117055	28622.203336612492	7.124430667655
4	117064	28623.680538491588	2.058133578922
4	117074	28623.965118161916	0.567652876647
4	117132	28636.179704175661	6.107388972495
4	117140	28638.827456546458	5.441809778708
4	117152	28640.388306484503	6.558657515304
4	117158	28643.575968061856	9.626437704778
4	117163	28643.636905318007	8.585320967723
4	117169	28644.84850222995	9.2127517526
4	117184	28646.629789206119	9.424541657073
4	117215	28652.244886481206	13.363362748468
4	117220	28653.705346695298	13.440633979438
4	117225	28653.906879647476	5.178360288384
4	117244	28663.985331914236	13.017091949025
4	117298	28673.274553326586	17.806609005102
4	117318	28675.309275342131	11.277198563529
4	117331	28682.007638278776	13.541651510553
4	117352	28687.138757184734	11.536587564234
4	117364	28689.558962236081	3.101107687181
4	117379	28694.336978732023	6.702573947561
4	117443	28710.376652038728	20.249887704685
4	117448	28710.659587725157	16.510628749843
4	117455	28713.078181381155	18.017008873466
4	117463	28715.355807637701	18.81868650727
4	117476	28717.255974249481	19.623063133979
4	117482	28719.829597027206	14.391292106985
4	117489	28721.238452896955	12.637506506964
4	117505	28724.060443976299	7.693149848379
4	117515	28725.597047498449	2.933337916931
4	117522	28727.924025988555	2.1243418924
4	117546	28737.288037922601	1.050817123867
4	117563	28747.626318955576	0.54592778163
4	117574	28754.443149116394	0.973869698574
4	117578	28754.882675237151	1.181173381414
4	117585	28760.943587693904	1.350028999059
4	117592	28762.54489944883	0.668553792188
4	117602	28767.094566290529	4.013990667262
4	117647	28778.352977786344	0.75987530569
4	117657	28781.818770170637	1.590260284487
4	117683	28787.214910226438	5.151181532489
4	117706	28789.113689504158	6.56799592898
4	117711	28790.369697488974	7.254682888027
4	117725	28795.553796263617	2.763877854732
4	117754	28800.858115082404	7.300610772292
4	117768	28801.965241143394	7.829623617591
4	117772	28802.070926726646	1.07118253189
4	117780	28806.3159870876	2.602397210818
4	117787	28810.505502832469	1.204933874784
4	117814	28820.762184060389	2.167799361623
4	117867	28830.967519576471	9.068586293105
4	117896	28838.421342837717	16.109584077493
4	117985	28861.039101248133	17.612274594299
4	117997	28866.823945008071	13.3859275799
4	118013	28869.501983613542	11.113929093864
4	118027	28871.461382396378	9.767110248797
4	118098	28890.123834962684	24.356171911688
4	118106	28893.033250765937	25.839485496525
4	118116	28895.127339497016	26.388464668162
4	118129	28898.661340935967	29.074506207911
4	118139	28899.830701287178	24.332813174645
4	118144	28901.786686914135	20.335106542937
4	118154	28903.75170505099	20.433370763388
4	118186	28909.282603947309	15.4500423559
4	118193	28910.28529169701	4.372841005828
4	118232	28922.065416850349	11.627123232397
4	118244	28925.230936844016	11.66419247192
4	118253	28929.783026080495	13.859448041676
4	118264	28930.528139692888	10.74565369403
4	118276	28934.662279022216	11.712992053978
4	118305	28939.478960070547	10.369669941667
4	118320	28943.059220974349	10.74044789585
4	118338	28944.580034576344	8.097597619235
4	118363	28958.160387161645	0.698881552336
4	118408	28967.73644611585	0.724456280531
4	118422	28970.232208898873	0.375495081535
4	118467	28979.934206825066	1.466070254965
4	118472	28980.480255450243	1.419414488877
4	118498	28991.00917168554	1.512729679997
4	118512	28997.166317286039	0.027337103043
4	118522	29000.3014142424	1.153900682328
4	118560	29008.68862786293	6.175357501027
4	118567	29010.589296780225	0.102479845722
4	118581	29014.80433920552	2.849308927516
4	118595	29015.539381891089	0.804189078811
4	118609	29022.612210924735	1.869821453984
4	118618	29023.707206892518	1.633084693632
4	118644	29028.07046866728	2.71596620287
4	118659	29034.042671266927	1.546780806377
4	118679	29042.368123840316	1.407542693631
4	118694	29048.527353473092	7.416422104316
4	118745	29062.134046349035	18.917941612697
4	118750	29062.503811384872	15.206142026395
4	118768	29078.567019652888	2.248298357736
4	118778	29080.172292261259	0.509978860552
4	118794	29083.436164618465	1.432911759131
4	118798	29084.012949386993	0.69435600123
4	118832	29090.820967754773	0.703678140192
4	118898	29104.029132807933	12.015314709502
4	118903	29104.524265561798	11.426760054202
4	118912	29109.573856544123	9.470857074203
4	118928	29110.676602181795	8.824857746133
4	118940	29111.479706436511	9.005393812948
4	118956	29115.318782594416	11.499514764678
4	118962	29116.683594515086	8.79025256377
4	118970	29118.540656252614	5.551773228323
4	118988	29123.932000705267	8.92769169269
4	118999	29125.639581465802	5.561271568181
4	119003	29126.036043358919	2.238565800084
4	119085	29150.683808220391	8.037971780909
4	119095	29153.274735179129	9.669892914539
4	119119	29161.38774753616	17.696637868748
4	119149	29164.712898963649	20.791745163876
4	119160	29165.388645779224	18.904296056054
4	119165	29165.642575951266	18.621957491083
4	119173	29167.793199326041	8.571719846047
4	119183	29169.653582856326	7.564417592436
4	119196	29171.977950557265	9.440353955436
4	119226	29175.266400199413	6.222808205914
4	119231	29175.340803406953	5.811488611458
4	119238	29178.581638566547	7.558476587227
4	119242	29178.928429163232	3.443320370521
4	119431	29226.132396798215	37.288121927952
4	119440	29228.192084925956	32.789040468266
4	119455	29232.439555901986	21.719413075932
4	119467	29233.889436163102	22.918875236977
4	119480	29237.326358945914	22.383683482849
4	119503	29249.118920027934	27.751810747638
4	119519	29252.286992936815	30.687279430742
4	119531	29254.927312270181	29.354840356368
4	119548	29257.230869450597	29.054455566902
4	119588	29268.371377792936	40.02590260641
4	119594	29269.246403354631	33.849153629768
4	119604	29270.31833450175	34.262850324429
4	119615	29274.175541236224	29.345081546885
4	119628	29278.722612860038	25.599138210176
4	119665	29284.384995945343	26.573411518011
4	119718	29299.707740685453	33.775406041727
4	119728	29301.743921066164	31.43389891308
4	119733	29302.556488184325	21.745923013568
4	119745	29306.706021434818	23.265619359684
4	119780	29311.923187705854	18.114767264035
4	119814	29316.703732575234	20.938490001638
4	119829	29322.396194080708	24.504239017136
4	119905	29341.029828425531	42.757936937208
4	119910	29341.598353393917	30.221851867993
4	119915	29343.683633030828	31.905762703023
4	119920	29345.540868025561	29.2615474584
4	119927	29347.451575626734	29.890624715126
4	119941	29351.727712964333	29.83072444299
4	119975	29359.214120331857	35.542786755775
4	120022	29372.364963772608	48.459489663461
4	120038	29375.855976031888	11.721201608946
4	120053	29377.552538367464	12.410039508838
4	120076	29381.625763253142	11.543567222556
4	120097	29389.05036861162	15.825455860726
4	120161	29397.22504252015	23.04390863313
4	120166	29398.199722163735	18.629269673807
4	120176	29401.944401512614	15.385124210834
4	120206	29406.180496490724	13.574119454426
4	120213	29407.55130529791	4.163162440305
4	120225	29408.794594836868	4.844187969951
4	120232	29415.156927969129	2.994872912386
4	120240	29417.732482111757	1.073016483202
4	120247	29420.513640959366	0.890920498353
4	120270	29425.366270847171	1.28455417723
4	120307	29436.653012980485	1.910014052794
4	120325	29441.213875004689	4.940318760258
4	120340	29445.536539949511	5.755202658371
4	120345	29446.229391298943	5.455731057825
4	120353	29449.730339759635	4.210774275524
4	120357	29451.002819071293	4.697320922993
4	120385	29458.205220290395	3.180479140445
4	120401	29460.18596981203	3.441041416117
4	120412	29463.9050277807	5.523161133911
4	120416	29464.092108802412	5.036483288884
4	120425	29465.691474541441	0.147838598953
4	120473	29479.611968697688	0.586517577068
4	120487	29487.862209571812	1.757019747096
4	120501	29495.127095649388	8.654655528789
4	120545	29503.202225407186	16.007785611304
4	120550	29503.617368541752	15.477288567237
4	120555	29503.907019418537	4.004875403927
4	120564	29507.253998055805	4.073446537772
4	120673	29526.592994093261	16.26416715151
4	120678	29526.670799461943	7.999128393041
4	120683	29528.213208034695	6.372240645092
4	120689	29529.151100122809	3.625548616316
4	120697	29529.445756568102	0.057452705289
4	120719	29536.964598869454	0.344273216518
4	120727	29541.529696866426	3.847506148066
4	120747	29548.953841271689	3.461425855428
4	120764	29553.612484899516	4.545430614292
4	120771	29555.086047148356	0.928880364578
4	120786	29562.958440851877	6.91894171292
4	120815	29567.657287976339	11.283558911809
4	120827	29568.024571568988	2.386499076227
4	120890	29584.80398978953	1.71510786352
4	121000	29617.300556680888	19.856419543776
4	121016	29619.262665908044	21.763671710761
4	121029	29620.237044046649	20.552034885943
4	121036	29622.878083740708	16.676811371583
4	121041	29624.350268723917	5.996489390693
4	121048	29626.977590394999	6.995490462504
4	121065	29631.121715820827	3.09190771441
4	121070	29632.222623071705	3.047122732896
4	121077	29633.401195556478	2.867024983204
4	121103	29640.799894372236	1.170686935503
4	121128	29648.486208661021	1.324017684669
4	121145	29649.851533129523	1.101134043986
4	121194	29661.303779202078	4.668121833568
4	121343	29697.143226269116	38.949542964518
4	121350	29697.877964866388	37.869987817541
4	121369	29702.553867048408	41.535490286258
4	121382	29703.384325807215	31.663060200554
4	121389	29704.258293514586	19.627753064737
4	121396	29705.535132030869	12.794455376053
4	121418	29709.336859370073	9.933223626007
4	121428	29712.612517444993	13.043381717553
4	121453	29716.234228697355	13.498388591792
4	121488	29720.736978690539	16.952733171022
4	121495	29724.230504178588	15.745869920868
4	121512	29727.151887448075	16.415829651927
4	121532	29734.076908597743	15.745713668276
4	121546	29739.561469867677	20.315385442055
4	121569	29745.65477832463	20.714352456214
4	121584	29751.931190395727	18.35045924267
4	121599	29755.739784514648	15.263004410524
4	121615	29757.894676799176	6.759875923818
4	121637	29764.811651501483	8.70628858492
4	121652	29767.533600643757	9.592472978198
4	121656	29767.929688035385	2.666918835164
4	121668	29772.939965060726	2.275610168133
4	121678	29774.008904879997	1.444068416846
4	121690	29780.353251471459	4.681142154378
4	121711	29785.801965115068	8.865410495561
4	121736	29789.984762143157	5.978632579004
4	121743	29790.977693878052	2.119169804312
4	121750	29793.55485894002	3.190612639227
4	121762	29794.765041330366	1.122629714968
4	121779	29807.022252050463	2.512195390548
4	121800	29814.649368924253	1.225506141988
4	121815	29816.456602067308	2.891359520196
4	121845	29820.439922700829	6.747279058031
4	121855	29826.62169556796	5.357335885549
4	121860	29828.932736749805	6.761687991304
4	121879	29836.179362288134	4.545272848378
4	121897	29837.452185529375	3.049265272455
4	121902	29840.543111619962	4.370440197177
4	121907	29844.792166908459	8.419302361607
4	121946	29852.306647170546	0.51620929929
4	121988	29858.285302168194	1.424167074667
4	122037	29867.454479007152	6.390888629565
4	122044	29869.474689836477	7.982042721711
4	122056	29871.785553657524	7.391024039967
4	122072	29879.471550313195	4.471857594332
4	122141	29894.292393985716	15.750141376355
4	122150	29896.625276671458	11.135436719332
4	122155	29896.745190861976	8.195774222293
4	122161	29898.376682022137	8.329412558182
4	122166	29899.551249116342	9.415213607919
4	122170	29899.985272599957	5.112087617304
4	122184	29904.174795920486	2.706662867719
4	122199	29906.104316448406	0.585181029923
4	122227	29914.483367771339	8.469422384342
4	122351	29944.895027828154	13.048869258662
4	122378	29949.241318276178	14.99041466634
4	122383	29949.355993603696	14.098071785588
4	122392	29950.435661395397	15.144144951115
4	122412	29951.964601398733	14.357901481116
4	122419	29953.52238358458	15.100665945186
4	122442	29957.922586342061	9.782353829056
4	122457	29960.553265540937	9.399013139819
4	122469	29963.24500268204	8.835205755371
4	122473	29964.849054465305	4.741606113025
4	122536	29980.738406017321	5.125732123599
4	122569	29987.044660764622	10.091648557912
4	122574	29987.275765581271	8.798411357632
4	122582	29991.90459482412	13.17400380869
4	122594	29993.722530028832	10.491840870573
4	122606	29996.333603016912	13.075763538556

