version 2
run Second-n2-16-20191016-17:03:48-8640
attr configname Second-n2
attr datetime 20191016-17:03:48
attr experiment Second-n2
attr inifile omnetpp.ini
attr iterationvars ""
attr iterationvarsf ""
attr measurement ""
attr network org.omnetpp.queueing.Pizza
attr processid 8640
attr repetition 16
attr replication ""
attr resultdir results
attr runnumber 16
attr seedset 16
param **.PS.maxInventoriedPS 2
param **.U1.interArrivalTime exponential(3s)
param **.U2.interArrivalTime exponential(5s)
param **.PS.serviceTimeForInventoryU1 exponential(1.0s)
param **.PS.serviceTimeForInventoryU2 exponential(1.2s)
param **.PS.serviceTimeDirectU1 exponential(1.4s)
param **.PS.serviceTimeDirectU2 exponential(1.4s)
param **.PS.probabilityProducing 0.7
param **.CS.serviceTimeU1 exponential(1.1s)
param **.CS.serviceTimeU2 exponential(1.4s)

vector 0 Pizza.EntryQueueU1 queueLength:vector ETV
attr interpolationmode sample-hold
attr title "queue length, vector"
vector 1 Pizza.CS queueLength:vector ETV
attr interpolationmode sample-hold
attr title "queue length, vector"
vector 2 Pizza.EntryQueueU2 queueLength:vector ETV
attr interpolationmode sample-hold
attr title "queue length, vector"
vector 3 Pizza.sink lifeTime:vector ETV
attr interpolationmode none
attr title "lifetime of arrived jobs, vector"
attr unit s
vector 4 Pizza.sink lifeTimeU1:vector ETV
attr interpolationmode none
attr title "lifetime of arrived jobs, vector"
attr unit s
vector 5 Pizza.sink lifeTimeU2:vector ETV
attr interpolationmode none
attr title "lifetime of arrived jobs, vector"
attr unit s
0	0	0	0
0	32	9.005601412749	1
0	33	9.338591838291	0
0	47	12.852923878954	1
0	48	13.07436297853	0
0	62	14.725265713585	1
0	64	15.37457179092	2
0	65	17.806040811269	1
0	71	17.881790870432	2
0	72	17.960489264761	1
0	78	18.027513560291	0
0	82	19.014901927942	1
0	87	20.843704357634	0
0	122	26.556333589619	1
0	123	27.134139692308	0
0	140	29.144631468774	1
0	141	29.562336653847	0
0	172	36.350995740705	1
0	173	38.03577620182	0
0	184	40.114265173464	1
0	187	40.719894273498	0
0	223	54.956962493155	1
0	227	55.469644327602	2
0	230	55.60582543868	1
0	236	56.789507660694	2
0	241	58.406471961409	3
0	244	58.960269529446	2
0	251	60.990107274955	1
0	256	61.135973622675	0
0	262	62.260940827755	1
0	263	62.379158533953	0
0	276	66.619996069989	1
0	277	67.338462806026	0
0	288	67.943375807198	1
0	290	68.642152776727	2
0	293	71.80176279953	3
0	294	72.494554568433	2
0	299	72.560622482454	1
0	306	75.538284130626	0
0	326	80.080321066016	1
0	328	80.387767434277	0
0	335	80.540937762826	1
0	337	82.055020666486	2
0	339	82.060979785905	3
0	340	82.34438467217	2
0	346	85.274728567116	1
0	352	85.878834485065	0
0	414	104.840663122798	1
0	416	105.599266940416	2
0	419	107.526326435479	1
0	425	108.170383217124	0
0	437	110.071520677813	1
0	439	110.484207573825	0
0	454	111.677556178442	1
0	455	111.804535660947	0
0	486	125.922448243212	1
0	487	126.433117268183	0
0	517	133.944050352884	1
0	522	135.554192981834	2
0	523	135.606927043773	1
0	529	136.080449437841	2
0	530	137.060702834238	1
0	535	137.112286577068	0
0	571	145.544427497523	1
0	572	145.726304194541	0
0	576	146.25080628174	1
0	579	148.741470808895	0
0	585	151.54454980486	1
0	590	153.592444986659	2
0	592	154.085014600494	3
0	595	155.615918042015	2
0	599	156.546601978994	3
0	601	157.382757909221	4
0	608	159.831504364583	3
0	612	160.216765655245	4
0	614	160.630977238993	5
0	619	161.694307914447	4
0	624	163.163690000036	3
0	631	164.227576761514	4
0	632	165.575870606419	3
0	639	165.728763140859	2
0	645	166.775851594881	1
0	652	168.050484766867	0
0	675	171.43509945133	1
0	677	172.518315772077	2
0	679	172.938649551928	3
0	683	174.094088559348	4
0	684	175.077007930898	3
0	690	176.336021381555	2
0	698	178.399641039626	1
0	703	178.755627773021	0
0	715	179.511067593228	1
0	716	180.00209536407	0
0	731	182.202984243794	1
0	732	184.128115285183	0
0	741	186.292414650592	1
0	744	187.694842314205	0
0	753	188.09526968953	1
0	754	189.011760098212	0
0	760	189.191174087988	1
0	763	189.748382160247	2
0	767	190.153868810919	3
0	768	191.031945097169	2
0	774	191.587959236522	3
0	777	192.127235442246	4
0	778	193.742712806248	3
0	783	194.052023613836	2
0	789	194.160863097323	3
0	791	194.597077176505	2
0	798	195.393116338197	1
0	804	196.474475742355	0
0	815	197.265930387329	1
0	817	197.800867532463	0
0	825	199.540510047236	1
0	827	200.543943960132	2
0	828	200.882021544	1
0	834	201.445258130889	0
0	845	203.490901243478	1
0	847	203.69394440667	2
0	848	203.965442364466	1
0	854	204.590973167457	0
0	883	209.198409099066	1
0	885	210.258108021641	2
0	886	211.694952107559	1
0	892	211.865776184877	2
0	895	212.169957902236	3
0	896	212.925673784657	2
0	901	212.993101045673	1
0	909	215.212681326755	0
0	916	218.403520319787	1
0	918	218.502175577036	2
0	922	219.042563847517	3
0	923	219.465994649333	2
0	928	219.5412865738	1
0	933	219.85868804785	0
0	941	221.654660025422	1
0	943	221.746235782102	2
0	944	223.950164292052	1
0	948	224.404952556775	2
0	951	227.792410323124	1
0	955	228.653120214457	2
0	957	229.46310012627	3
0	959	230.024097465714	4
0	963	232.027163453027	3
0	968	232.611467382116	2
0	972	233.794335833256	3
0	974	233.970749027714	4
0	976	234.099025076384	5
0	978	234.309100629049	6
0	982	235.857816755548	5
0	988	236.372273457756	6
0	989	236.480003751981	5
0	995	236.695272332599	6
0	997	236.846634845035	7
0	998	236.891552070096	6
0	1003	237.437233173747	5
0	1009	237.84686508047	6
0	1010	238.364966047242	5
0	1016	239.417883767	4
0	1022	240.696409049835	5
0	1023	243.106001441206	4
0	1029	245.172551415352	5
0	1030	245.619754328376	4
0	1036	246.455167891461	3
0	1046	248.104825425036	2
0	1051	248.610300993435	1
0	1055	249.647120208794	2
0	1059	249.758140842625	1
0	1064	250.232405295434	0
0	1076	251.537996779929	1
0	1080	254.017643129557	0
0	1098	257.146259578774	1
0	1102	257.58205382633	2
0	1103	257.764464981715	1
0	1108	257.794694144964	0
0	1114	258.936993664806	1
0	1115	259.08025556092	0
0	1124	260.538697928963	1
0	1126	260.985094014764	2
0	1128	261.783387993219	3
0	1130	261.981623593329	4
0	1134	264.900916875657	3
0	1142	265.996882935484	4
0	1143	266.034388588315	3
0	1148	270.289289400662	2
0	1155	272.264875441262	1
0	1160	274.613184847533	0
0	1175	277.794121842179	1
0	1179	280.208671415977	0
0	1185	281.021241485482	1
0	1187	281.424471832709	0
0	1196	283.145911049798	1
0	1200	283.691550445416	2
0	1203	284.825661072399	1
0	1219	289.233716102577	0
0	1231	290.152033801776	1
0	1232	290.294555680323	0
0	1250	293.039239760797	1
0	1254	297.032686279336	2
0	1256	298.149838614604	3
0	1258	299.461305670839	4
0	1261	299.937271964517	3
0	1267	300.984059665187	4
0	1275	302.581118615802	3
0	1282	302.771843698853	4
0	1284	303.651759729545	5
0	1285	304.286638726607	4
0	1290	305.208826266356	3
0	1297	307.509331857761	4
0	1299	307.531483598146	5
0	1303	309.553600650815	4
0	1311	310.959374566354	3
0	1316	311.317335799619	2
0	1322	311.909461821702	1
0	1328	312.796232694848	2
0	1330	313.120983378884	3
0	1335	314.365523979595	4
0	1338	316.501374187618	3
0	1344	316.595150280313	4
0	1348	318.119389613273	3
0	1353	318.603990226495	2
0	1363	321.619811973132	3
0	1364	321.935874633831	2
0	1372	326.148198188154	3
0	1374	326.279966330521	4
0	1376	326.566702948569	5
0	1378	327.457572113286	6
0	1383	329.545541824544	5
0	1388	329.586708139004	4
0	1394	330.016768643826	3
0	1400	331.1022116173	2
0	1406	332.400868801983	1
0	1415	334.438671811669	0
0	1459	344.087567757571	1
0	1462	345.699871519297	0
0	1488	355.953663961104	1
0	1490	356.240626597533	2
0	1492	356.756397207975	3
0	1494	359.072610024011	4
0	1495	359.096105799664	3
0	1500	359.559750984059	2
0	1508	360.843003217511	3
0	1510	360.914626670971	4
0	1511	362.013529388715	3
0	1516	362.14501601277	2
0	1523	363.043406664718	3
0	1525	364.07030126531	4
0	1526	364.660267106562	3
0	1532	367.660568872286	4
0	1536	369.32382650283	3
0	1543	371.257661949377	2
0	1547	371.352867294923	3
0	1550	371.813522234034	2
0	1558	374.143264177988	3
0	1559	375.842169359858	2
0	1565	376.198711288307	1
0	1570	376.268816228981	0
0	1591	376.812771467465	1
0	1594	377.413582591827	0
0	1601	378.053180889931	1
0	1602	378.375540403976	0
0	1618	379.33298780045	1
0	1620	379.467918000496	2
0	1622	381.32898966392	3
0	1626	382.586107178341	4
0	1628	383.319402814184	5
0	1630	383.437727847886	6
0	1631	383.901051684245	5
0	1636	383.923958455358	4
0	1641	383.927033766425	3
0	1648	385.83923274059	2
0	1653	385.94740861362	1
0	1662	387.821215664814	2
0	1663	387.959131105865	1
0	1669	388.953384117137	0
0	1688	394.80632611615	1
0	1690	395.242564822827	2
0	1693	396.958794211135	1
0	1700	398.322714146322	2
0	1701	398.373770353852	1
0	1707	399.362030332587	0
0	1732	407.873740750976	1
0	1736	409.803493572599	2
0	1737	410.936691320405	1
0	1743	411.917083723381	0
0	1764	422.66310752463	1
0	1766	422.738536086481	2
0	1768	422.984544716367	3
0	1770	423.238560278655	4
0	1771	424.347398422207	3
0	1777	424.917045098603	2
0	1782	425.522558708563	1
0	1789	426.332085038081	0
0	1801	428.043543225643	1
0	1804	428.867195261067	2
0	1805	428.899452645274	1
0	1811	429.372782374206	0
0	1822	429.626877963901	1
0	1823	430.503401829445	0
0	1834	432.220216867674	1
0	1837	433.972728049764	0
0	1858	436.717870182707	1
0	1861	437.967146079304	0
0	1878	440.4915356218	1
0	1880	441.372159829405	2
0	1882	441.75220100844	3
0	1884	443.044146797351	4
0	1885	443.199251514648	3
0	1892	444.994278975064	2
0	1898	446.355812329933	3
0	1899	446.578011485037	2
0	1907	448.041162498809	1
0	1912	448.139589540825	0
0	1926	449.612275552766	1
0	1927	450.277127301195	0
0	1964	459.006139614674	1
0	1966	459.325978852218	2
0	1969	461.359540194665	1
0	1976	463.004673416813	0
0	1982	463.094060150147	1
0	1984	463.101821857033	2
0	1987	463.881674406786	3
0	1989	464.204633528411	4
0	1990	465.880901428846	3
0	1996	466.239571723052	4
0	1998	467.179038544687	5
0	2000	467.265458046528	4
0	2007	468.257286801842	5
0	2008	468.302173276489	4
0	2014	469.256284213229	5
0	2016	469.739615041822	4
0	2022	469.871812358358	3
0	2027	470.23779586579	2
0	2032	470.238558415098	1
0	2040	472.728666924755	0
0	2044	474.068710305622	1
0	2049	474.855718448166	2
0	2052	475.720260067741	1
0	2058	476.178487570321	0
0	2065	476.837364288132	1
0	2066	476.95663071103	0
0	2073	477.779659592167	1
0	2074	479.752809243847	0
0	2082	482.034658569656	1
0	2083	482.066915711458	0
0	2087	482.724834889184	1
0	2091	489.185219549126	0
0	2097	489.863358169461	1
0	2098	490.16714859775	0
0	2121	494.215332350147	1
0	2122	494.982020546198	0
0	2132	495.329623639089	1
0	2136	495.724143497832	2
0	2138	497.368064745244	1
0	2147	498.989808934097	2
0	2148	499.123344538853	1
0	2153	499.841287922129	0
0	2167	501.841393881188	1
0	2170	502.081567808395	0
0	2174	502.288575164413	1
0	2177	503.422376876315	0
0	2187	507.957036150374	1
0	2188	509.533149087307	0
0	2201	511.608372211814	1
0	2204	512.558255507534	0
0	2210	513.541844884007	1
0	2211	513.920721043342	0
0	2226	516.637605397088	1
0	2227	517.083652539926	0
0	2246	520.266093735091	1
0	2254	523.00081218372	2
0	2256	525.268790378205	3
0	2261	527.685442930104	2
0	2268	528.269522078843	3
0	2270	528.923955196877	4
0	2271	529.301993631007	3
0	2278	530.506200304395	4
0	2282	532.031520727282	5
0	2283	532.449701099818	4
0	2289	534.707057663375	3
0	2294	534.735062003951	2
0	2299	534.762037092683	1
0	2303	535.093623303562	2
0	2307	536.344563919954	3
0	2309	536.832875770188	4
0	2313	538.243359034034	3
0	2317	538.631771306355	4
0	2320	539.098453404842	3
0	2325	539.623063004462	2
0	2329	539.705093863211	3
0	2331	539.819603751318	4
0	2333	540.2946741631	5
0	2335	542.442155345857	6
0	2344	543.488701481963	5
0	2354	547.68011489194	4
0	2359	547.727792864022	3
0	2364	548.24188132544	2
0	2369	550.555947165854	1
0	2374	551.045231107215	0
0	2380	551.124980518249	1
0	2384	551.777555391376	0
0	2390	552.064151122012	1
0	2391	552.907225438615	0
0	2397	553.870088414113	1
0	2400	554.0743596303	0
0	2428	561.924690885587	1
0	2431	563.306058778613	0
0	2437	564.215829681206	1
0	2439	564.342180711141	2
0	2441	564.367402861827	3
0	2443	564.594944833053	4
0	2445	564.76891173443	5
0	2448	567.951951670694	4
0	2455	569.110007417976	3
0	2460	569.470952834288	2
0	2465	571.271767253043	1
0	2471	572.67010093222	2
0	2476	574.721183867737	1
0	2483	575.264014955089	0
0	2493	579.48722106222	1
0	2494	579.730992118593	0
0	2525	591.97755804715	1
0	2530	593.100232460765	0
0	2539	594.463340316666	1
0	2541	594.624261139646	2
0	2546	596.961735689322	1
0	2551	597.263323682945	0
0	2583	606.405906854443	1
0	2585	606.523873522336	2
0	2586	606.985647529533	1
0	2593	607.446681316067	0
0	2614	610.226767916117	1
0	2616	611.256121697438	2
0	2619	613.279721250976	1
0	2626	614.286755016904	2
0	2627	616.482617716382	1
0	2632	616.915150627169	0
0	2695	632.151920286372	1
0	2697	632.997990367835	2
0	2699	633.972196541757	3
0	2703	635.100805213926	4
0	2704	636.287829586585	3
0	2710	636.924938283761	4
0	2714	638.219964312413	3
0	2719	639.528588149027	2
0	2726	639.765701722523	3
0	2730	641.510232386401	2
0	2737	642.800701712504	1
0	2742	644.182507707155	0
0	2770	648.620601335644	1
0	2773	649.676425827732	0
0	2797	656.805640418786	1
0	2799	657.008338430149	2
0	2803	657.788013437517	3
0	2804	660.34992663042	2
0	2815	663.486805235198	1
0	2821	666.430850858141	0
0	2833	667.256887648665	1
0	2836	668.455946356355	2
0	2838	668.487289622465	1
0	2843	668.620074965392	0
0	2861	671.697735987807	1
0	2867	673.227025663035	2
0	2869	673.981531170711	3
0	2870	676.127177032987	2
0	2875	676.128482716669	1
0	2880	676.40100582978	0
0	2907	681.958993990568	1
0	2908	683.982622221927	0
0	2916	684.721890026829	1
0	2918	684.991484959903	2
0	2921	685.885585530877	3
0	2923	686.907661331891	4
0	2924	687.385785116748	3
0	2932	689.88782541627	4
0	2933	690.283792679943	3
0	2940	691.036658889976	2
0	2950	692.311984265506	3
0	2951	692.582654257662	2
0	2957	696.776750005061	3
0	2959	697.623986354252	4
0	2960	698.192416521267	3
0	2965	699.2837993115	2
0	2971	700.421263172569	3
0	2973	701.281186466999	2
0	2978	701.751447277357	1
0	2984	702.154196187424	2
0	2987	703.11132704527	1
0	2991	703.649543632359	2
0	2993	704.563718526322	3
0	2999	706.662289217854	4
0	3002	707.276045733392	3
0	3012	708.375906506201	4
0	3014	708.639342120051	5
0	3016	708.865068975972	6
0	3017	709.612868739672	5
0	3022	709.972323306837	4
0	3031	711.871132619803	3
0	3037	713.08744027946	2
0	3045	714.409690465026	1
0	3051	714.743632264259	2
0	3052	715.570400605879	1
0	3057	716.371273115775	0
0	3076	721.213858612775	1
0	3082	723.564030313688	2
0	3083	723.596209922216	1
0	3088	724.298875518527	0
0	3110	730.743331426267	1
0	3111	731.044260752274	0
0	3120	731.322415201764	1
0	3125	734.660852506892	0
0	3138	738.225760509131	1
0	3139	738.462983786805	0
0	3152	743.513423928753	1
0	3153	743.653059578753	0
0	3171	746.415369717037	1
0	3173	748.565510082506	2
0	3175	749.440911598528	3
0	3177	750.807390097725	4
0	3178	751.436998722847	3
0	3183	751.492364070065	2
0	3188	751.81212793267	1
0	3195	755.561651444387	0
0	3199	755.580662027029	1
0	3202	756.510928166031	0
0	3211	757.687339356862	1
0	3214	759.324195881612	0
0	3220	761.072164512391	1
0	3224	761.878198248137	0
0	3242	763.76866096587	1
0	3248	764.929977895687	2
0	3249	766.665938536083	1
0	3256	768.93184783509	2
0	3257	769.029369388608	1
0	3262	772.066668984105	0
0	3281	777.147605907432	1
0	3282	777.974975848772	0
0	3288	778.316791354438	1
0	3290	778.669411082913	2
0	3292	779.119455971172	1
0	3298	779.836765932728	2
0	3301	780.283287418452	3
0	3302	780.88902414909	2
0	3308	781.072929815833	3
0	3313	782.543089191235	4
0	3314	783.807244872953	3
0	3320	784.205318823525	2
0	3326	784.473436143525	3
0	3328	784.758916073903	2
0	3334	785.038243301576	3
0	3336	785.420154085003	4
0	3337	785.438179176764	3
0	3343	785.925724937492	4
0	3344	786.162070944053	3
0	3348	786.63256139526	4
0	3352	787.530510614535	3
0	3357	787.801480850384	2
0	3365	792.655394747636	3
0	3367	794.490097536157	4
0	3368	794.645837546353	3
0	3373	795.697008295463	2
0	3378	797.445043746831	1
0	3383	797.938889552483	0
0	3415	804.56021849788	1
0	3417	804.590020540853	2
0	3419	804.994628472123	3
0	3420	805.040778630505	2
0	3425	805.100043797229	1
0	3432	806.606723446513	2
0	3433	807.070673831981	1
0	3438	808.111605571099	0
0	3456	810.890368327771	1
0	3459	811.232770246559	0
0	3471	812.748264198184	1
0	3476	814.838469544343	0
0	3492	817.913473881552	1
0	3496	819.011365649258	0
0	3522	823.498789398398	1
0	3523	824.725153773219	0
0	3539	826.554719755696	1
0	3543	831.147769591586	2
0	3545	832.083366979389	3
0	3546	832.232443570554	2
0	3551	832.869349717037	1
0	3557	833.37920760611	0
0	3575	837.829066289786	1
0	3576	839.257723620421	0
0	3583	839.494069555957	1
0	3584	839.613283034109	0
0	3603	845.726377156736	1
0	3607	847.415125193708	2
0	3609	847.568617591954	3
0	3611	848.660541778788	4
0	3613	848.843497855056	5
0	3616	849.219609250596	4
0	3621	849.449947568028	3
0	3628	850.838820403809	2
0	3634	851.111478814983	3
0	3636	852.576153807259	2
0	3641	852.600312514258	1
0	3646	852.798473481237	0
0	3650	854.440307874546	1
0	3654	856.506834494643	2
0	3658	857.147751049439	3
0	3659	858.101645808786	2
0	3663	861.194563758571	3
0	3670	865.297797415346	4
0	3674	866.344021667475	5
0	3675	866.515290540603	4
0	3681	866.959445270285	5
0	3683	867.456811919568	6
0	3687	871.227031438201	5
0	3692	871.579229569863	4
0	3697	873.931865017059	3
0	3702	875.18838375859	2
0	3706	875.420086982963	3
0	3709	876.290846543245	2
0	3715	879.845501456746	1
0	3722	880.448594890656	0
0	3751	886.827028182365	1
0	3756	888.601301743042	0
0	3772	890.774919347666	1
0	3774	890.91708129127	2
0	3776	891.241901287412	1
0	3781	891.342420986907	0
0	3787	891.448969193949	1
0	3790	894.136540365468	0
0	3814	898.330563107264	1
0	3816	898.640672708337	2
0	3817	898.903963317036	1
0	3822	898.920281564368	0
0	3838	900.129120130364	1
0	3842	902.46479920835	2
0	3845	902.68362377738	1
0	3853	903.985709644436	0
0	3869	910.150349021753	1
0	3870	911.279507484176	0
0	3883	911.918752320431	1
0	3885	914.251846137637	0
0	3960	937.560916277126	1
0	3966	938.3283559903	2
0	3969	939.859204337551	1
0	3975	941.28499776747	2
0	3978	941.803160583624	3
0	3980	942.545923454133	4
0	3981	942.758875080105	3
0	3986	942.865377814822	2
0	3991	942.892396944872	1
0	3996	943.293588450084	0
0	4007	949.893758157876	1
0	4009	952.371068294443	2
0	4010	953.317118588789	1
0	4016	954.49825570955	0
0	4036	958.13436437004	1
0	4040	958.79022811546	2
0	4042	959.698400436036	3
0	4043	961.607916868955	2
0	4048	962.794083609307	1
0	4055	963.591960527593	0
0	4064	964.428574656685	1
0	4066	964.823264184493	2
0	4067	967.184861051652	1
0	4074	967.600450180877	0
0	4094	974.349786548805	1
0	4096	975.837906757807	2
0	4098	975.889807784585	3
0	4101	979.350050925194	2
0	4106	979.758389277778	1
0	4111	980.372569988059	0
0	4127	984.343472471242	1
0	4128	986.266774758335	0
0	4155	989.211059139123	1
0	4157	991.163849167721	0
0	4171	993.675734724583	1
0	4173	995.343847032784	2
0	4175	996.48321240933	3
0	4176	996.635552290052	2
0	4181	996.985241229017	1
0	4186	997.040789458438	0
0	4190	997.31919057363	1
0	4195	999.093991154118	2
0	4197	1000.726751863677	3
0	4199	1001.853825497427	2
0	4205	1003.853707079258	1
0	4210	1004.843011148669	0
0	4223	1006.096914402229	1
0	4227	1007.726707456302	0
0	4248	1011.394875826832	1
0	4250	1012.525206278647	2
0	4253	1012.972267614388	1
0	4258	1013.009113682644	0
0	4270	1015.453688312367	1
0	4271	1015.562012642093	0
0	4285	1022.068991174253	1
0	4290	1023.618754139637	0
0	4299	1025.657063860074	1
0	4301	1026.544321570086	2
0	4308	1028.583979786856	1
0	4313	1029.154602224735	0
0	4322	1031.67516180634	1
0	4324	1032.415838407442	0
0	4344	1035.042288031444	1
0	4350	1036.51580601602	2
0	4351	1036.652335800912	1
0	4356	1037.822947122165	0
0	4378	1042.396587460741	1
0	4382	1043.618732107409	0
0	4400	1049.37373256282	1
0	4403	1049.974944761145	0
0	4410	1051.269107594421	1
0	4411	1051.3170650601	0
0	4420	1054.479560886872	1
0	4422	1058.610124502238	2
0	4424	1058.700803108691	3
0	4430	1059.902014498268	2
0	4438	1060.106628812614	1
0	4444	1061.764386792135	0
0	4465	1067.78854570626	1
0	4467	1069.131250759221	2
0	4469	1069.797683090657	3
0	4470	1070.989455355765	2
0	4475	1071.130840465043	1
0	4482	1071.605436279183	2
0	4483	1071.938039713848	1
0	4491	1074.604556805467	0
0	4502	1075.744816380926	1
0	4505	1076.330498986112	0
0	4523	1079.908550902151	1
0	4525	1080.613884250665	2
0	4529	1081.449259757593	3
0	4531	1082.63794270355	4
0	4534	1083.403797388783	3
0	4539	1083.591886568692	2
0	4546	1084.502654494994	1
0	4552	1085.428373323216	2
0	4556	1087.355395854171	1
0	4565	1090.143583514038	0
0	4588	1092.791301234738	1
0	4589	1094.058854684141	0
0	4603	1094.33116047965	1
0	4606	1095.357501551396	0
0	4619	1097.848073788724	1
0	4620	1098.837908496766	0
0	4629	1099.153396811201	1
0	4635	1100.732810052085	0
0	4641	1101.161314251326	1
0	4646	1103.236475351976	2
0	4647	1104.642039818032	1
0	4656	1107.546386259513	2
0	4658	1109.221177782498	3
0	4659	1110.1173766722	2
0	4666	1111.234237999353	1
0	4672	1111.972023980768	0
0	4679	1112.663894742885	1
0	4681	1112.887074147115	2
0	4684	1113.446494284057	1
0	4689	1113.526991877619	0
0	4695	1115.62502996157	1
0	4699	1116.89747180851	0
0	4708	1117.378794761907	1
0	4715	1119.046592009704	2
0	4716	1119.48250995858	1
0	4722	1119.926449136064	2
0	4723	1120.225142382966	1
0	4729	1122.976294351809	2
0	4732	1125.63041925768	1
0	4738	1126.215191812249	2
0	4739	1126.397415251695	1
0	4745	1126.753864190948	2
0	4749	1128.558420680071	3
0	4750	1129.688421264056	2
0	4754	1132.084856155528	3
0	4756	1132.644739724114	4
0	4758	1135.70394375304	5
0	4760	1136.759390476958	6
0	4763	1138.1780785916	5
0	4771	1139.937211567129	4
0	4777	1140.608412014866	5
0	4778	1141.97134000102	4
0	4784	1142.220103475992	5
0	4790	1144.506823049907	4
0	4795	1144.695906876909	3
0	4799	1144.730488914543	4
0	4802	1146.240327910858	3
0	4806	1146.474961544812	4
0	4812	1150.969729979557	5
0	4814	1151.340222783702	4
0	4821	1151.990944800035	3
0	4828	1152.676713926001	4
0	4829	1153.691910323654	3
0	4835	1154.180206636702	4
0	4836	1154.53213702539	3
0	4842	1154.597139872337	2
0	4847	1154.600537346916	1
0	4852	1155.379592320846	0
0	4859	1156.7194065402	1
0	4863	1158.465093815521	2
0	4864	1158.518315725158	1
0	4869	1159.743131098158	0
0	4915	1177.86979940721	1
0	4917	1177.973805922378	2
0	4918	1179.070084139293	1
0	4925	1179.692838964728	0
0	4944	1182.822017599022	1
0	4945	1183.01308473443	0
0	4965	1186.748401683692	1
0	4969	1191.816642035104	2
0	4971	1191.948736317186	3
0	4972	1192.24525077746	2
0	4977	1192.307376388058	1
0	4985	1194.707983580434	0
0	4998	1195.977979219719	1
0	5000	1196.50429561929	0
0	5031	1205.228465060656	1
0	5039	1207.282462178233	0
0	5058	1210.843578873611	1
0	5059	1212.002928701081	0
0	5086	1216.905034489837	1
0	5087	1217.856700944733	0
0	5101	1219.327996359237	1
0	5109	1222.97611175933	0
0	5155	1233.29393965138	1
0	5157	1233.4846356998	2
0	5160	1233.93697100018	1
0	5165	1233.952794454006	0
0	5171	1234.297851547023	1
0	5172	1234.717889142179	0
0	5181	1237.052926649892	1
0	5184	1237.430748352237	0
0	5192	1243.486372245191	1
0	5194	1243.902286103774	2
0	5195	1243.98711830022	1
0	5199	1244.173621128705	2
0	5203	1245.408127769612	3
0	5204	1245.650565773119	2
0	5209	1247.959832924092	1
0	5214	1250.037252750041	0
0	5218	1250.151798461306	1
0	5220	1251.809704019997	2
0	5225	1253.064161775873	3
0	5226	1253.246384004614	2
0	5231	1253.478678018542	1
0	5236	1254.611991261967	0
0	5242	1256.562630745825	1
0	5246	1257.875489063318	2
0	5252	1259.626344268112	1
0	5260	1262.43989861916	0
0	5272	1264.331185836318	1
0	5275	1265.969155105461	0
0	5302	1269.442556410084	1
0	5304	1270.305738177597	0
0	5327	1276.16258206888	1
0	5328	1276.213415766811	0
0	5341	1277.22358230815	1
0	5342	1277.600368626661	0
0	5357	1282.221848957671	1
0	5359	1282.448790286451	2
0	5361	1282.704063041265	3
0	5362	1283.200259472905	2
0	5371	1286.508281416188	1
0	5377	1286.724194507685	0
0	5383	1286.775326524888	1
0	5384	1287.139012910265	0
0	5454	1307.938557159758	1
0	5455	1308.130498848314	0
0	5491	1320.41992319039	1
0	5493	1321.397872675361	0
0	5525	1328.374892529047	1
0	5528	1330.082395531919	2
0	5529	1330.432253379404	1
0	5534	1330.628176646228	0
0	5558	1335.457975404309	1
0	5561	1335.920757866207	0
0	5578	1344.744866623323	1
0	5579	1345.814311960876	0
0	5586	1346.47371457553	1
0	5588	1346.907171079793	2
0	5589	1347.143019750241	1
0	5594	1347.414161481097	0
0	5605	1349.310669129226	1
0	5607	1351.553016795388	2
0	5610	1352.068574568157	1
0	5615	1353.746410218624	0
0	5635	1358.808211891505	1
0	5637	1358.953922618446	2
0	5641	1362.133282860797	3
0	5642	1362.440551584751	2
0	5649	1363.431011254538	3
0	5656	1366.853171591556	2
0	5663	1367.129947829071	1
0	5669	1367.758474866503	2
0	5670	1367.944193203974	1
0	5675	1368.288581656531	0
0	5706	1381.012362306919	1
0	5714	1385.151403580967	2
0	5715	1385.213691726373	1
0	5722	1386.057790625354	2
0	5723	1386.823419632865	1
0	5730	1387.826150118611	2
0	5731	1388.491156358232	1
0	5738	1388.871190231369	0
0	5809	1421.427480494528	1
0	5811	1422.440243100632	2
0	5812	1422.691205230684	1
0	5819	1423.13591366807	2
0	5820	1423.993386117961	1
0	5825	1424.357133650415	0
0	5847	1429.31350713617	1
0	5849	1429.503471118612	2
0	5853	1431.023707424654	3
0	5857	1431.601366295878	4
0	5859	1431.798160876678	5
0	5862	1432.699292956432	4
0	5867	1432.811277044173	3
0	5873	1433.015101473098	4
0	5875	1433.190856491817	5
0	5878	1436.951028477932	4
0	5885	1437.349075285711	3
0	5891	1437.752709971961	4
0	5892	1438.007643243312	3
0	5898	1439.239363466612	2
0	5905	1439.601615133697	3
0	5907	1440.64465442153	2
0	5912	1440.776411288017	1
0	5918	1441.413466705222	0
0	5934	1446.211903315837	1
0	5936	1446.569649403238	2
0	5939	1447.239720056215	1
0	5946	1448.13536306771	2
0	5948	1448.701169843737	1
0	5954	1449.058705026862	2
0	5955	1449.172643961212	1
0	5959	1449.84565919573	2
0	5961	1452.300791714134	3
0	5964	1452.501889127184	2
0	5968	1453.377161450659	3
0	5972	1454.058287294648	4
0	5974	1455.355025287711	5
0	5977	1456.658469896499	4
0	5981	1458.64775473412	5
0	5984	1459.088877471789	4
0	5990	1460.076727963655	5
0	5995	1461.449388823985	6
0	5997	1461.624813403405	7
0	5998	1461.795724849918	6
0	6003	1461.936980840467	5
0	6009	1462.870334267628	6
0	6010	1462.874155613086	5
0	6015	1463.593489442705	4
0	6021	1468.391737245597	5
0	6024	1468.949479861755	4
0	6028	1469.697922174856	5
0	6032	1470.113054546661	6
0	6035	1471.990766060511	5
0	6040	1472.145953193644	4
0	6049	1476.391727587646	3
0	6053	1476.422647303242	4
0	6056	1477.467882606777	3
0	6060	1477.908285063442	4
0	6063	1478.61612542569	3
0	6070	1479.94997808941	2
0	6074	1482.784306462062	3
0	6077	1485.962209450548	2
0	6082	1487.855139836938	1
0	6092	1495.645267662727	0
0	6098	1496.300691138243	1
0	6099	1496.336913392203	0
0	6105	1497.403923399216	1
0	6114	1502.245849175414	0
0	6128	1503.767515374624	1
0	6129	1504.077690958689	0
0	6141	1507.190357606025	1
0	6142	1507.339978615086	0
0	6169	1514.699921351918	1
0	6172	1518.543874209114	0
0	6178	1518.625243001983	1
0	6179	1518.66575430353	0
0	6192	1520.510968593622	1
0	6193	1523.263537877634	0
0	6212	1527.735031728944	1
0	6215	1530.286712853617	0
0	6227	1532.319475151502	1
0	6228	1534.166627651962	0
0	6240	1535.751736560749	1
0	6242	1536.51179693256	2
0	6244	1536.774552345107	1
0	6250	1537.055186567663	0
0	6264	1540.258835048666	1
0	6265	1540.837397428686	0
0	6281	1543.535662361083	1
0	6285	1546.573546293698	2
0	6287	1547.639786361722	3
0	6288	1549.991857674712	2
0	6293	1551.512005952573	1
0	6298	1552.038257099212	0
0	6320	1556.917755581846	1
0	6324	1559.341986430394	2
0	6327	1562.914058363976	1
0	6332	1563.090803205399	0
0	6341	1563.495867544062	1
0	6345	1564.433223067599	2
0	6347	1564.950694993332	1
0	6358	1571.178833188506	2
0	6360	1571.304658899939	3
0	6362	1571.683475118491	4
0	6363	1572.367028480778	3
0	6368	1572.803797846186	2
0	6373	1572.845233812064	1
0	6379	1575.243288959972	2
0	6381	1576.028257490617	3
0	6385	1577.97896500469	2
0	6390	1578.19643709043	1
0	6394	1579.202110161071	2
0	6397	1579.359716090951	1
0	6402	1580.184094731341	0
0	6406	1580.65486467942	1
0	6411	1585.6958618564	2
0	6413	1585.706003414849	3
0	6416	1586.93762535234	2
0	6424	1589.147015442705	3
0	6425	1590.23504486253	2
0	6430	1590.974475694761	1
0	6435	1591.604937251712	0
0	6439	1592.106821890702	1
0	6442	1592.405879787207	0
0	6446	1592.4154571516	1
0	6448	1592.704521465672	2
0	6452	1593.295572513809	3
0	6454	1594.451851347913	2
0	6459	1595.256710397587	1
0	6466	1595.73930850993	2
0	6468	1597.662636727883	3
0	6469	1599.221744223169	2
0	6474	1599.333198623391	1
0	6478	1600.127548991515	2
0	6481	1600.363699186575	1
0	6489	1604.299201221116	0
0	6508	1607.811860706517	1
0	6511	1609.829381829997	0
0	6530	1613.146143834002	1
0	6532	1613.15783761372	2
0	6534	1613.437287291086	3
0	6540	1616.131471323756	4
0	6541	1617.301596178021	3
0	6547	1617.911253265546	2
0	6552	1618.511835701582	1
0	6557	1619.055572167974	0
0	6563	1620.423259677405	1
0	6565	1620.500260601295	2
0	6569	1620.850451640239	3
0	6570	1621.323425625519	2
0	6578	1621.503785771965	3
0	6579	1621.923567116608	2
0	6585	1622.946515397593	3
0	6588	1625.164280654318	2
0	6593	1625.641680401327	1
0	6598	1626.098522375038	0
0	6614	1630.846666308833	1
0	6618	1631.499657427597	0
0	6634	1633.505171503086	1
0	6635	1633.945463534786	0
0	6644	1634.987549870367	1
0	6646	1637.151198557449	2
0	6651	1639.19231980275	1
0	6656	1639.660656557395	0
0	6665	1642.978830361472	1
0	6667	1644.777260814006	0
0	6681	1645.961068727288	1
0	6685	1649.303154561928	0
0	6697	1651.249070637941	1
0	6698	1652.086511184665	0
0	6707	1653.266933548509	1
0	6711	1654.358534792172	0
0	6719	1655.351382259648	1
0	6720	1655.441028099862	0
0	6752	1662.551201736707	1
0	6755	1663.140136462248	0
0	6769	1665.558027758233	1
0	6771	1666.611596133788	0
0	6778	1668.001303890763	1
0	6779	1670.59430758338	0
0	6791	1672.285218978386	1
0	6792	1674.463655685728	0
0	6798	1674.599573377551	1
0	6800	1674.845134993907	0
0	6826	1679.135345986813	1
0	6829	1679.745877452414	0
0	6838	1681.793929807972	1
0	6839	1682.170731519773	0
0	6847	1682.400351913066	1
0	6848	1683.053106858768	0
0	6856	1685.145156652491	1
0	6861	1687.142187553269	0
0	6888	1694.024282050472	1
0	6890	1694.581923238728	2
0	6893	1695.602411700976	1
0	6899	1696.489803608692	2
0	6900	1696.589431696266	1
0	6904	1697.208097049951	2
0	6909	1699.054645703667	1
0	6915	1701.80144267081	0
0	6934	1703.553292959027	1
0	6936	1703.569349131607	2
0	6938	1703.793297777417	3
0	6939	1704.862404917442	2
0	6945	1705.04926543672	1
0	6951	1707.397676643645	0
0	6968	1710.936742423525	1
0	6972	1712.022716548384	0
0	7033	1725.432738778652	1
0	7038	1727.260905788494	0
0	7066	1731.360996457039	1
0	7067	1731.763090551516	0
0	7073	1731.893343569739	1
0	7074	1732.390218450302	0
0	7083	1733.091027691336	1
0	7087	1735.968354433228	0
0	7094	1736.58621017234	1
0	7096	1736.868712794342	2
0	7099	1737.187880766366	3
0	7100	1738.748288788652	2
0	7105	1738.748322061655	1
0	7111	1740.79105642379	0
0	7115	1740.950023340903	1
0	7119	1743.186982486452	2
0	7121	1743.808624615	3
0	7131	1746.045224136136	4
0	7135	1747.024446663846	5
0	7136	1747.850011116819	4
0	7143	1748.655656605753	5
0	7145	1748.810700557572	6
0	7146	1748.946819494985	5
0	7151	1748.988602476584	4
0	7155	1749.56009166954	5
0	7158	1750.381127181157	4
0	7167	1752.204042925188	3
0	7172	1752.474748499352	2
0	7176	1752.791965520332	3
0	7179	1754.829251430757	2
0	7185	1756.340787332574	3
0	7186	1756.752489068951	2
0	7190	1757.007103454746	3
0	7193	1758.002262697603	2
0	7197	1758.420082906102	3
0	7199	1760.757216045909	4
0	7201	1760.953591416333	5
0	7205	1763.574252991687	6
0	7208	1764.43288654986	7
0	7209	1764.873912468453	6
0	7214	1765.126012498692	5
0	7225	1769.036136837898	4
0	7230	1770.98002901057	3
0	7235	1771.258093194292	2
0	7241	1773.55475756537	3
0	7247	1774.44040649624	4
0	7253	1776.960989090966	3
0	7258	1778.166432058015	2
0	7263	1778.992058504106	1
0	7270	1781.743475436918	0
0	7287	1783.28357243432	1
0	7288	1783.448019652214	0
0	7323	1789.30325371453	1
0	7327	1790.139875264117	0
0	7334	1790.870599851638	1
0	7337	1791.59768512518	2
0	7338	1791.641570968005	1
0	7346	1793.790756201766	0
0	7391	1804.028187520689	1
0	7395	1805.97938907972	2
0	7397	1806.708544268783	3
0	7398	1807.204256527017	2
0	7403	1807.314809403336	1
0	7410	1807.389192020075	0
0	7414	1808.625316944135	1
0	7420	1809.451001290922	0
0	7441	1813.481675990311	1
0	7443	1816.124436566068	2
0	7447	1818.353714147365	3
0	7455	1821.592173997112	4
0	7460	1823.366008750053	3
0	7468	1824.012655000987	2
0	7475	1824.274839635477	1
0	7482	1825.83830953454	2
0	7484	1826.559231886898	3
0	7488	1827.436204776491	4
0	7489	1827.677065994697	3
0	7495	1829.078177594299	4
0	7497	1832.583839017443	3
0	7502	1832.625189996077	2
0	7510	1835.862640257392	3
0	7513	1836.315902574918	2
0	7520	1838.302683995074	1
0	7524	1839.371430654826	2
0	7529	1840.520109166361	3
0	7530	1841.822789869934	2
0	7535	1842.251063097438	1
0	7540	1842.91440627221	0
0	7553	1846.803715032627	1
0	7555	1847.081535477122	2
0	7556	1847.735718561164	1
0	7563	1849.489605154254	0
0	7570	1850.53612214308	1
0	7571	1850.77712603141	0
0	7599	1856.966315976797	1
0	7600	1858.475448576453	0
0	7607	1860.847994263777	1
0	7608	1861.290812805696	0
0	7620	1865.158452230351	1
0	7622	1865.284061143165	2
0	7624	1866.111658217208	3
0	7626	1867.330683873811	4
0	7628	1867.356271694499	5
0	7632	1867.534070025399	6
0	7634	1868.574550175695	7
0	7635	1869.643590285214	6
0	7641	1869.971665284393	5
0	7647	1870.685274878606	6
0	7651	1871.516467863106	5
0	7659	1872.004992268115	6
0	7660	1872.066611799245	5
0	7666	1872.484385916414	4
0	7671	1873.00628328573	3
0	7678	1873.910898864864	2
0	7685	1875.152772624288	1
0	7689	1875.792373445445	2
0	7693	1877.982293243225	1
0	7699	1881.912714182312	0
0	7741	1891.589530881848	1
0	7742	1892.741174618381	0
0	7759	1898.895280939004	1
0	7760	1899.214509718112	0
0	7777	1902.928459570706	1
0	7781	1908.028795084424	2
0	7782	1908.611140894234	1
0	7788	1908.974649665409	0
0	7797	1909.716737739974	1
0	7799	1912.301872984938	2
0	7803	1912.905309018341	3
0	7805	1913.364843156427	2
0	7810	1914.048284182036	1
0	7816	1915.260382005084	2
0	7819	1917.604502996329	1
0	7823	1920.044150602224	2
0	7828	1921.717180225958	1
0	7833	1921.726363824668	0
0	7866	1927.224592927943	1
0	7868	1930.068951100503	2
0	7874	1931.772106617335	1
0	7879	1931.790340150949	0
0	7885	1931.817597338369	1
0	7886	1932.361360258776	0
0	7922	1950.465647732535	1
0	7923	1950.966904766559	0
0	7952	1955.086033819252	1
0	7957	1958.102897644315	0
0	7969	1960.539954448674	1
0	7973	1962.664921991106	2
0	7974	1963.815937744574	1
0	7980	1964.70487013935	0
0	7989	1966.15330982387	1
0	7993	1968.074372265757	2
0	7996	1969.002468690992	1
0	8005	1971.652142667835	0
0	8049	1979.445841165369	1
0	8051	1981.303467272041	2
0	8056	1983.578082724617	1
0	8062	1983.977858681992	0
0	8097	2002.413224755119	1
0	8098	2003.221729223316	0
0	8104	2003.837070260491	1
0	8108	2006.416470857497	0
0	8132	2013.04433977423	1
0	8133	2014.414818611307	0
0	8147	2018.048704230966	1
0	8148	2018.07289322721	0
0	8161	2020.142690199123	1
0	8162	2020.470721220982	0
0	8202	2038.503363656254	1
0	8204	2039.563565350442	2
0	8206	2043.063081473664	3
0	8210	2044.083277485516	4
0	8213	2046.107815894071	3
0	8218	2046.299924259577	2
0	8224	2046.464187402243	3
0	8225	2047.494068189471	2
0	8230	2048.389881571899	1
0	8236	2048.656196573629	2
0	8237	2048.783993233309	1
0	8247	2050.582302231708	2
0	8249	2051.405165274697	3
0	8251	2052.083572898024	2
0	8257	2053.403984233273	3
0	8265	2056.074767858548	4
0	8267	2056.081246845456	5
0	8268	2056.217269885637	4
0	8274	2057.198805227541	3
0	8280	2058.853610579369	2
0	8287	2059.738336352532	1
0	8292	2060.359913954157	0
0	8312	2061.336569303689	1
0	8315	2062.108621514856	0
0	8336	2069.656150243024	1
0	8337	2069.872231762524	0
0	8353	2074.019537461526	1
0	8354	2074.18780101277	0
0	8365	2076.22515657821	1
0	8368	2077.541422050772	0
0	8377	2080.510104308629	1
0	8381	2080.936180467923	2
0	8382	2081.197111312968	1
0	8390	2083.866902432255	2
0	8392	2084.472602803552	3
0	8393	2084.564023115	2
0	8399	2085.916590344257	3
0	8400	2086.842450347945	2
0	8404	2088.837951063361	3
0	8406	2089.599750199589	4
0	8410	2091.104472284425	5
0	8412	2092.041271268358	4
0	8416	2093.392183401857	5
0	8421	2096.870016770517	4
0	8428	2099.682471187045	5
0	8430	2102.056124994046	6
0	8434	2103.47931693201	7
0	8437	2104.92224289946	6
0	8444	2105.537497493848	7
0	8446	2106.360595411335	6
0	8451	2106.795933440831	5
0	8457	2106.936565342262	6
0	8458	2107.006189567618	5
0	8463	2107.961884957114	4
0	8467	2109.089316704309	5
0	8471	2109.671851592408	6
0	8472	2109.949603915922	5
0	8478	2111.141352370198	6
0	8481	2111.458275427027	5
0	8486	2112.163665225653	4
0	8493	2115.703215875363	3
0	8497	2116.928196483467	4
0	8502	2120.259594138396	3
0	8506	2121.378725904897	4
0	8510	2123.663218412375	5
0	8514	2124.045842881939	6
0	8516	2124.151233038953	7
0	8517	2124.676554894958	6
0	8523	2125.324687856084	7
0	8526	2127.084705463845	6
0	8533	2130.821372985196	7
0	8535	2131.102876614873	8
0	8539	2135.049308940043	9
0	8540	2135.282267508843	8
0	8545	2136.801650687228	7
0	8550	2137.395621606258	6
0	8554	2137.42085691602	7
0	8556	2138.094912365839	8
0	8558	2138.257422581975	9
0	8564	2141.703361697365	10
0	8566	2142.678060388548	11
0	8568	2143.90587092698	12
0	8573	2147.080566310622	11
0	8578	2148.31281162614	10
0	8583	2150.216649136134	9
0	8587	2150.294585214812	10
0	8591	2152.78968884619	9
0	8596	2153.025068686251	8
0	8600	2156.264021932227	9
0	8603	2158.280940802188	8
0	8608	2158.593431338861	7
0	8616	2161.997980661189	8
0	8618	2162.875742925401	9
0	8619	2163.223735396302	8
0	8624	2164.588774181704	7
0	8632	2165.378957862474	8
0	8633	2165.410833851676	7
0	8644	2167.196074646688	6
0	8649	2167.948937521129	5
0	8653	2168.149766502607	6
0	8662	2171.841796269788	5
0	8669	2172.606153903965	4
0	8676	2175.189693495022	3
0	8681	2175.565410528322	2
0	8687	2176.60537506109	1
0	8692	2176.819134272791	0
0	8698	2177.039789590756	1
0	8699	2177.151377408154	0
0	8705	2177.62217788592	1
0	8711	2179.223561198614	0
0	8750	2189.068472596704	1
0	8753	2190.292174975204	2
0	8754	2191.03314620342	1
0	8760	2191.872705846513	0
0	8804	2202.875558993549	1
0	8806	2203.762646282044	2
0	8807	2205.42875642303	1
0	8812	2205.716476179517	0
0	8830	2209.46899133383	1
0	8832	2209.579941481299	2
0	8833	2211.340543154333	1
0	8838	2211.629211508626	0
0	8851	2213.773666060825	1
0	8852	2213.89424063864	0
0	8871	2216.76386943727	1
0	8872	2217.100753424123	0
0	8891	2223.855065687642	1
0	8892	2224.08637714251	0
0	8917	2226.392060143315	1
0	8921	2232.525246152541	2
0	8922	2232.895329829961	1
0	8928	2233.414456719782	2
0	8929	2233.556191498367	1
0	8936	2234.276758804941	0
0	8947	2235.234691415569	1
0	8948	2235.35803373236	0
0	8956	2237.110105139929	1
0	8958	2237.622799660287	0
0	8966	2238.804613549075	1
0	8967	2239.057048442034	0
0	8979	2240.408859177563	1
0	8981	2240.55934174539	0
0	8998	2243.195104585962	1
0	9000	2243.264785150645	2
0	9001	2243.308222770458	1
0	9007	2243.540184381423	0
0	9013	2243.766206088685	1
0	9016	2246.015059333309	2
0	9017	2246.225952367949	1
0	9024	2250.560711049812	0
0	9046	2257.070533749188	1
0	9047	2258.217535600014	0
0	9054	2260.046897974639	1
0	9056	2260.463498975043	0
0	9073	2264.911559501999	1
0	9074	2264.946078332084	0
0	9089	2268.310967758901	1
0	9096	2271.445932987615	2
0	9097	2271.712074224891	1
0	9103	2274.0777234949	2
0	9104	2274.195005577012	1
0	9109	2274.935739571054	0
0	9137	2281.036359882844	1
0	9138	2281.348013332614	0
0	9169	2296.481054843792	1
0	9170	2296.577502183949	0
0	9185	2301.071089822504	1
0	9187	2301.862145078002	0
0	9250	2327.637572524282	1
0	9253	2328.974370225614	0
0	9259	2329.230927144027	1
0	9260	2329.274198005254	0
0	9281	2334.007125810367	1
0	9282	2335.099659776574	0
0	9289	2337.277729126641	1
0	9290	2339.283583263862	0
0	9313	2344.768775521179	1
0	9314	2344.99826396311	0
0	9343	2352.005585856139	1
0	9344	2352.35201172512	0
0	9362	2355.843952489955	1
0	9364	2355.854348894408	2
0	9366	2356.457784005364	3
0	9369	2358.489270118716	2
0	9374	2358.915143611153	1
0	9380	2359.214632823024	2
0	9381	2359.357306364885	1
0	9387	2362.450072271368	0
0	9398	2362.870765155828	1
0	9399	2363.179766260649	0
0	9403	2363.566603825836	1
0	9406	2364.19183220688	0
0	9412	2366.314360158346	1
0	9413	2366.778677745135	0
0	9421	2368.383416530483	1
0	9422	2368.57496169986	0
0	9447	2374.309471707909	1
0	9450	2377.781848449313	0
0	9470	2385.464077782915	1
0	9473	2386.444934661496	0
0	9489	2389.242862397619	1
0	9490	2389.727896092313	0
0	9505	2396.272891323487	1
0	9508	2397.95530370523	0
0	9528	2399.843113937904	1
0	9529	2399.864304449218	0
0	9538	2400.375595432229	1
0	9542	2400.58277054584	2
0	9546	2400.708692358084	3
0	9552	2402.997523081949	2
0	9556	2403.22735318613	3
0	9560	2403.820663554402	2
0	9564	2405.683862148697	3
0	9568	2408.119050870448	2
0	9573	2409.490486215125	1
0	9579	2410.491158229778	2
0	9581	2410.774212285209	3
0	9585	2411.745230748282	4
0	9588	2413.481582835815	3
0	9593	2413.604143631976	2
0	9601	2416.297980856448	3
0	9605	2418.735731140994	4
0	9607	2419.382272004544	5
0	9610	2419.98318311274	4
0	9617	2423.520605178468	3
0	9622	2424.389878514896	2
0	9632	2426.806831163571	1
0	9639	2429.22969504796	0
0	9655	2430.958634941893	1
0	9656	2432.138838190724	0
0	9670	2433.257399375321	1
0	9672	2433.655053568892	2
0	9674	2433.668320751674	3
0	9676	2433.695222609537	4
0	9677	2433.702255232501	3
0	9682	2434.346911537369	2
0	9692	2437.448478376398	1
0	9698	2437.516840311111	2
0	9699	2437.665899310149	1
0	9707	2437.736107105398	2
0	9708	2438.610067653132	1
0	9714	2438.976577863833	2
0	9717	2439.907052064812	3
0	9718	2439.90753373582	2
0	9725	2440.87267584632	3
0	9730	2443.22815092193	2
0	9738	2445.049875006986	3
0	9740	2445.848720369347	4
0	9742	2447.171593419013	3
0	9747	2447.407275202681	2
0	9753	2451.681651744835	3
0	9754	2452.140132827584	2
0	9758	2453.709299535073	3
0	9760	2454.590127581319	4
0	9762	2455.191726583261	5
0	9766	2460.194523746176	4
0	9771	2460.431813205047	3
0	9775	2461.089648837369	4
0	9779	2461.894620684313	5
0	9783	2461.999536963593	4
0	9790	2462.179832058219	3
0	9794	2462.428826676821	4
0	9798	2463.579390297042	5
0	9799	2464.099675336867	4
0	9807	2466.775798831594	3
0	9813	2467.026962890368	4
0	9818	2469.148940109029	3
0	9822	2469.329267029787	4
0	9824	2469.80757368025	5
0	9831	2471.74336952728	4
0	9838	2473.029236147004	3
0	9844	2475.498511389247	2
0	9849	2476.015163670185	1
0	9854	2476.092487300949	0
0	9860	2476.336750154391	1
0	9861	2476.820085179144	0
0	9865	2477.286334259298	1
0	9867	2477.399979594909	2
0	9869	2477.765111802127	3
0	9874	2483.309359768362	2
0	9878	2483.37690775946	3
0	9882	2485.298755965086	2
0	9887	2485.945790075013	1
0	9894	2486.813338096405	0
0	9923	2493.773843548892	1
0	9929	2496.699485147344	0
0	9954	2499.80070231279	1
0	9956	2500.166010074992	2
0	9958	2501.590317025662	1
0	9964	2501.637288721434	0
0	9979	2502.358687059331	1
0	9981	2503.959983459113	2
0	9985	2504.973401887036	3
0	9986	2505.289878596248	2
0	9991	2506.158101304642	1
0	9996	2506.278660240659	0
0	10004	2509.139422581741	1
0	10005	2509.369597825501	0
0	10040	2517.613014348671	1
0	10043	2518.901500562328	0
0	10049	2518.999133586924	1
0	10054	2520.973071435793	0
0	10069	2522.557763116272	1
0	10073	2523.853039133517	2
0	10077	2524.71907469299	3
0	10079	2524.763902992994	4
0	10082	2526.333512439828	3
0	10087	2526.829297781702	2
0	10092	2527.294850189813	1
0	10100	2527.650622353039	2
0	10102	2527.887240775821	3
0	10106	2528.58855005212	2
0	10114	2530.735630161763	3
0	10116	2530.840087842124	4
0	10117	2531.887794818471	3
0	10122	2532.234453123029	2
0	10127	2532.278812597237	1
0	10135	2536.375231871699	2
0	10136	2536.591309207398	1
0	10143	2539.447249231364	0
0	10171	2546.064690812956	1
0	10173	2546.123064356585	2
0	10175	2546.425703955211	3
0	10177	2547.092643597995	4
0	10181	2547.854578356118	5
0	10183	2548.347223921893	6
0	10185	2548.818786116502	5
0	10191	2550.073286235092	4
0	10197	2550.880790534295	3
0	10203	2551.472841153212	2
0	10210	2551.656534253288	1
0	10216	2551.715200234693	2
0	10218	2552.9520164088	1
0	10225	2554.003574432021	0
0	10229	2554.593736531981	1
0	10234	2559.036500043865	0
0	10238	2559.463679181277	1
0	10242	2560.230206195608	0
0	10248	2561.950433093781	1
0	10249	2562.388276485309	0
0	10284	2574.666909240129	1
0	10285	2574.901765735368	0
0	10338	2588.849048476156	1
0	10339	2590.12274088097	0
0	10345	2590.379355919479	1
0	10347	2591.11429384874	0
0	10357	2595.610155938574	1
0	10360	2596.42989572257	0
0	10376	2597.594323685605	1
0	10380	2599.398941728605	0
0	10400	2602.215871754063	1
0	10410	2605.66009813831	0
0	10472	2622.92388177577	1
0	10475	2625.393691666638	0
0	10481	2626.289940769864	1
0	10482	2626.964304213269	0
0	10500	2629.08624829087	1
0	10502	2630.182035082716	0
0	10509	2630.43327951093	1
0	10510	2631.397464187685	0
0	10525	2636.491597726958	1
0	10526	2637.316024757063	0
0	10537	2638.518856235202	1
0	10542	2641.023790225965	2
0	10543	2641.279648581438	1
0	10548	2641.649594268211	0
0	10561	2645.148994692476	1
0	10562	2646.39386493046	0
0	10594	2649.741631252596	1
0	10596	2649.841931215294	2
0	10598	2652.439141947556	3
0	10602	2652.548215572422	4
0	10604	2653.858762512749	3
0	10611	2654.903076171561	4
0	10612	2656.057327843893	3
0	10618	2657.664293091569	2
0	10622	2657.80706821482	3
0	10625	2658.306891352741	2
0	10632	2659.2991523009	1
0	10641	2662.290334499885	2
0	10643	2662.462737855399	3
0	10644	2662.785750537692	2
0	10649	2663.041400651515	1
0	10654	2664.716825416233	0
0	10670	2667.081058872718	1
0	10671	2667.274696073962	0
0	10699	2670.710573012816	1
0	10700	2670.891604522997	0
0	10715	2674.730522164412	1
0	10720	2676.276247930672	0
0	10726	2676.360724118928	1
0	10727	2676.476397497844	0
0	10731	2677.34761500576	1
0	10737	2679.488938798244	2
0	10739	2680.162103056695	1
0	10746	2681.012515709882	2
0	10748	2681.590973587401	1
0	10755	2682.836922407955	2
0	10756	2683.343625783897	1
0	10761	2684.911500339696	0
0	10776	2686.372619754669	1
0	10780	2687.196550049519	2
0	10781	2687.79772847768	1
0	10787	2688.956534040609	0
0	10844	2705.665442312102	1
0	10847	2705.985543051172	0
0	10862	2711.053737446888	1
0	10863	2712.107013894759	0
0	10872	2714.196169677346	1
0	10875	2714.940125402432	0
0	10881	2715.230016064014	1
0	10884	2715.999034116842	2
0	10885	2716.374122220228	1
0	10890	2716.796520115319	0
0	10894	2717.061669540554	1
0	10899	2719.315587088763	0
0	10920	2722.233501131344	1
0	10924	2723.055894096964	2
0	10927	2725.414439805094	1
0	10935	2726.527871473915	2
0	10938	2726.969665187003	3
0	10939	2727.054781032352	2
0	10944	2727.207275912718	1
0	10950	2727.308765525557	0
0	10985	2735.665549874745	1
0	10989	2736.177734369145	2
0	10994	2738.288530105989	3
0	10995	2738.678989993474	2
0	11000	2738.767930069114	1
0	11006	2740.728232799191	0
0	11034	2748.463601668014	1
0	11039	2750.878707854767	0
0	11072	2758.616312037026	1
0	11073	2758.857700172087	0
0	11087	2762.259909916522	1
0	11089	2764.996071271373	2
0	11091	2765.060146033838	3
0	11095	2766.287619825465	4
0	11097	2767.002400003667	5
0	11099	2767.04387027212	6
0	11100	2768.021601512585	5
0	11107	2770.755595228885	4
0	11112	2771.449314915597	3
0	11118	2771.637896837292	2
0	11124	2772.231329602984	1
0	11129	2773.170545263477	0
0	11149	2776.00440653553	1
0	11151	2776.511027844511	2
0	11158	2778.279439729797	3
0	11159	2779.381394607675	2
0	11164	2780.647263013702	1
0	11169	2781.138723090974	0
0	11194	2786.269006774317	1
0	11197	2787.558064196467	0
0	11218	2791.721498896782	1
0	11220	2793.420414063191	2
0	11225	2795.409866248799	1
0	11229	2796.049397742265	2
0	11233	2797.109253285425	1
0	11238	2798.010707614034	0
0	11252	2803.072970145968	1
0	11258	2805.410781514587	0
0	11269	2806.357863190125	1
0	11270	2806.44871852587	0
0	11301	2814.291466598876	1
0	11302	2815.132027578119	0
0	11320	2820.640353271144	1
0	11321	2821.250680205927	0
0	11342	2825.991411446223	1
0	11344	2826.246972310949	2
0	11346	2826.987224313961	3
0	11348	2828.345669253559	4
0	11349	2829.858876354812	3
0	11357	2830.982977342926	2
0	11364	2832.729020836433	1
0	11369	2833.006377647923	0
0	11395	2836.463840836929	1
0	11400	2837.580373430255	0
0	11406	2838.063596417924	1
0	11407	2838.366414691564	0
0	11416	2839.908703760907	1
0	11421	2841.224606480907	0
0	11441	2843.616884152989	1
0	11442	2843.79406598782	0
0	11473	2851.435680795584	1
0	11474	2852.179514320837	0
0	11509	2862.141604138328	1
0	11510	2862.593477956465	0
0	11534	2875.187421425509	1
0	11537	2875.691900772027	0
0	11557	2878.691796145839	1
0	11559	2879.509980792941	2
0	11560	2882.538588770012	1
0	11567	2883.140020414377	2
0	11569	2883.935611377824	3
0	11570	2884.196882312861	2
0	11576	2884.65394873364	1
0	11582	2884.902131623794	2
0	11583	2885.167081123411	1
0	11588	2885.901984387505	0
0	11592	2887.016733276577	1
0	11597	2888.628448922345	2
0	11598	2889.544144112492	1
0	11603	2890.060194743911	0
0	11617	2892.896510883361	1
0	11620	2893.57821780705	0
0	11669	2909.002102637945	1
0	11673	2909.307337701247	2
0	11678	2911.705885793008	3
0	11679	2911.915052834876	2
0	11684	2912.253712354406	1
0	11690	2913.739884544091	2
0	11691	2913.775231888416	1
0	11697	2917.413232910373	2
0	11699	2918.432727098876	3
0	11704	2921.228375065882	2
0	11711	2923.885014288551	3
0	11715	2924.494647709607	4
0	11717	2925.020921906296	5
0	11719	2925.741456947732	6
0	11720	2926.182452325885	5
0	11725	2926.775977852719	4
0	11732	2928.355014519706	3
0	11737	2928.522633259915	2
0	11746	2930.181329995143	1
0	11752	2930.814751564417	2
0	11753	2931.813929960267	1
0	11759	2933.045033919122	0
0	11770	2934.258535101252	1
0	11773	2936.851087216322	0
0	11784	2937.842296362484	1
0	11787	2938.931759083518	0
0	11818	2943.443276531449	1
0	11820	2943.736928938914	2
0	11822	2944.17956515409	1
0	11828	2945.165483033219	0
0	11845	2947.95507945771	1
0	11847	2949.328674555184	2
0	11849	2949.8176446358	3
0	11850	2951.225087716445	2
0	11855	2952.365342009	1
0	11862	2952.397783297557	2
0	11864	2952.72328269767	1
0	11869	2952.942977975675	0
0	11953	2984.372974695157	1
0	11955	2985.066858781798	2
0	11958	2985.737633129427	1
0	11964	2986.66056524939	0
0	11976	2990.082286212982	1
0	11978	2990.191746642237	2
0	11981	2990.904686124558	1
0	11986	2991.015065174824	0
0	11993	2991.186405554829	1
0	11994	2991.651409532658	0
0	12060	3002.63695148053	1
0	12062	3004.02548240121	2
0	12064	3004.135101475078	3
0	12066	3005.760995627484	2
0	12070	3005.838128209594	3
0	12075	3007.268308510566	4
0	12078	3008.202530110467	3
0	12082	3009.190500968661	4
0	12084	3009.384164025431	5
0	12088	3009.911460730315	6
0	12091	3011.057225642845	5
0	12096	3011.850542689183	4
0	12104	3013.334241133165	3
0	12110	3013.569729664392	2
0	12115	3014.056996760552	1
0	12120	3015.282573610033	0
0	12146	3026.931530291407	1
0	12148	3029.067487492401	2
0	12149	3029.2286372387	1
0	12154	3029.494266335644	0
0	12166	3031.043352207218	1
0	12170	3031.939003282405	0
0	12190	3037.219310859148	1
0	12195	3038.265064906199	0
0	12209	3041.468317621517	1
0	12213	3043.212618020169	2
0	12214	3044.241627182937	1
0	12221	3045.804603004273	0
0	12238	3050.798393025085	1
0	12239	3051.312666452634	0
0	12253	3056.601329672108	1
0	12255	3057.203529853677	2
0	12256	3058.354180825259	1
0	12263	3059.112066976475	2
0	12266	3060.321112870899	1
0	12271	3060.418919219819	0
0	12329	3078.118942367522	1
0	12332	3078.640754252865	0
0	12352	3084.421454783276	1
0	12354	3085.012281671263	2
0	12357	3088.34722691642	1
0	12362	3088.940375305801	0
0	12379	3091.637049660209	1
0	12382	3092.844522634279	0
0	12400	3096.357311308935	1
0	12403	3098.916598568687	0
0	12409	3099.514270589853	1
0	12411	3100.071512124599	2
0	12413	3100.102488017094	3
0	12414	3100.758356720675	2
0	12420	3101.539151322072	3
0	12421	3101.944951128695	2
0	12433	3106.005514005323	3
0	12434	3107.119025268374	2
0	12438	3108.080111179039	3
0	12441	3110.222406116168	2
0	12449	3113.511062643612	1
0	12454	3114.173803943973	0
0	12466	3115.241520701814	1
0	12467	3116.336557726324	0
0	12495	3126.934336443678	1
0	12498	3127.728628621612	0
0	12506	3128.299264569771	1
0	12507	3129.597153209708	0
0	12521	3131.588226106162	1
0	12523	3132.715360400754	0
0	12542	3137.575591984709	1
0	12543	3138.068887102517	0
0	12549	3138.196354626591	1
0	12551	3139.308843320749	0
0	12610	3154.258283740249	1
0	12616	3157.259871729581	2
0	12617	3157.36040451761	1
0	12623	3157.370433048471	2
0	12625	3158.397295809895	1
0	12633	3160.37583414229	0
0	12677	3170.46198733945	1
0	12678	3170.91077217401	0
0	12684	3171.9094675599	1
0	12685	3172.348737152303	0
0	12710	3180.951516572872	1
0	12713	3181.86533300238	0
0	12756	3207.349630498844	1
0	12757	3207.613929097735	0
0	12782	3216.285496613614	1
0	12784	3217.419232046624	2
0	12785	3217.974835232202	1
0	12790	3218.01637420218	0
0	12803	3219.439830791614	1
0	12804	3219.762589285304	0
0	12812	3220.864548133412	1
0	12814	3221.309327781932	0
0	12855	3233.597242396506	1
0	12858	3236.128413201079	0
0	12909	3257.667442113849	1
0	12912	3258.257468263496	0
0	12929	3262.188666558215	1
0	12932	3262.940897239314	2
0	12935	3265.596514314466	1
0	12941	3265.98346011469	0
0	12956	3267.44560454728	1
0	12960	3268.58859840693	2
0	12964	3268.906179088288	3
0	12966	3269.194056094931	4
0	12968	3269.386763677276	5
0	12969	3269.40901693479	4
0	12974	3269.636667996883	3
0	12982	3270.41865941715	4
0	12984	3270.435160906345	5
0	12986	3270.533390932553	4
0	12991	3271.823874662526	3
0	12996	3272.01440460591	2
0	13004	3273.558092243524	1
0	13009	3274.403730560947	0
0	13035	3279.994221568509	1
0	13036	3280.701488021343	0
0	13051	3283.77228172783	1
0	13053	3285.370502814255	2
0	13054	3285.379365135217	1
0	13061	3290.38998655827	0
0	13088	3301.381618687438	1
0	13091	3303.65948525521	2
0	13092	3303.922504618082	1
0	13098	3304.268373930592	2
0	13099	3304.918459983674	1
0	13105	3305.756121668206	0
0	13132	3311.343756647002	1
0	13137	3315.442631818707	0
0	13156	3318.127423133112	1
0	13158	3318.496261464848	2
0	13159	3319.995028038237	1
0	13165	3320.320919374245	0
0	13180	3323.100902816544	1
0	13184	3324.379939293109	0
0	13198	3328.204772699373	1
0	13203	3333.960263042164	0
0	13220	3336.316047474228	1
0	13221	3344.710365600675	0
0	13243	3347.36582170469	1
0	13246	3347.624103605723	2
0	13249	3349.207028183163	1
0	13254	3349.24712868818	0
0	13285	3354.188859154533	1
0	13288	3354.569849777381	0
0	13298	3356.751141753875	1
0	13299	3357.325084252922	0
0	13332	3368.004257849118	1
0	13335	3368.425022147163	0
0	13344	3370.564956931837	1
0	13346	3371.530750452894	2
0	13348	3372.146156832972	3
0	13351	3375.287185922368	2
0	13356	3375.326196368533	1
0	13362	3375.665911337135	0
0	13368	3376.81927405458	1
0	13371	3379.132370882115	0
0	13377	3379.515957330488	1
0	13379	3379.922892700227	2
0	13382	3380.296607621939	1
0	13389	3380.421050537662	0
0	13402	3382.107703286808	1
0	13403	3382.44837343258	0
0	13415	3384.494874344762	1
0	13417	3384.987952407938	0
0	13439	3390.2220514893	1
0	13440	3390.225503043864	0
0	13449	3391.293038937748	1
0	13451	3391.636192376074	2
0	13452	3391.748760290693	1
0	13459	3392.298258075654	2
0	13461	3392.400137987281	3
0	13463	3392.978217998308	4
0	13466	3394.828749825693	3
0	13472	3395.008184311197	4
0	13474	3395.173742693612	5
0	13476	3396.74055536661	4
0	13481	3396.963786027168	3
0	13486	3397.532380107829	2
0	13492	3398.951707528034	3
0	13497	3401.071109782459	2
0	13501	3401.434516253334	3
0	13506	3404.402891406217	2
0	13511	3405.488264809717	1
0	13516	3406.342936589639	0
0	13522	3408.376719911567	1
0	13524	3408.888406876644	2
0	13527	3409.524492541228	1
0	13532	3410.808647293688	0
0	13538	3410.984003261505	1
0	13541	3412.448540976116	0
0	13550	3414.913094280346	1
0	13554	3418.467769409629	2
0	13558	3420.270783291044	3
0	13560	3420.531995673559	4
0	13561	3420.543592052665	3
0	13567	3422.196546631418	4
0	13569	3423.407818244067	5
0	13572	3424.23787111218	4
0	13577	3425.32783035079	3
0	13584	3430.993251291384	2
0	13589	3431.460437673285	1
0	13600	3438.818238090879	0
0	13606	3439.119088735561	1
0	13607	3440.647836522697	0
0	13636	3450.487480281944	1
0	13638	3450.506455205631	2
0	13641	3451.956864596313	1
0	13647	3452.612096035743	2
0	13649	3452.84917851031	3
0	13650	3453.597697935679	2
0	13655	3453.723579217874	1
0	13661	3454.900720419775	0
0	13682	3461.205136329793	1
0	13683	3462.33144133706	0
0	13716	3471.542186952861	1
0	13718	3471.602386931748	2
0	13721	3473.030208982389	1
0	13726	3473.050488559923	0
0	13734	3473.262398616108	1
0	13737	3473.664763282846	0
0	13751	3476.077437449083	1
0	13753	3476.18997424566	2
0	13756	3478.050911905068	1
0	13763	3479.688207083112	2
0	13764	3479.782563774186	1
0	13771	3480.418466894582	0
0	13779	3481.280926486875	1
0	13780	3481.438035879703	0
0	13789	3482.932764893782	1
0	13791	3483.703241020043	2
0	13797	3486.681563602825	1
0	13802	3488.168484668351	0
0	13818	3488.818367115947	1
0	13822	3490.024650047956	2
0	13823	3490.315987526353	1
0	13831	3495.148165007697	2
0	13832	3498.249374274729	1
0	13837	3498.251661184868	0
0	13849	3499.016928493369	1
0	13851	3499.385418289068	0
0	13857	3500.098060411002	1
0	13859	3501.188615074614	0
0	13865	3501.500497903661	1
0	13867	3502.751048344797	0
0	13883	3505.02622343776	1
0	13886	3506.802784176056	0
0	13894	3508.340020126188	1
0	13896	3510.618633877689	0
0	13900	3511.823062246447	1
0	13902	3512.550761308153	2
0	13909	3514.084459846776	3
0	13910	3515.006010074734	2
0	13923	3517.239929759653	3
0	13924	3517.58460283357	2
0	13929	3517.958318755528	1
0	13934	3518.280418902745	0
0	13966	3524.154370124431	1
0	13967	3524.212701676325	0
0	13992	3532.662090704561	1
0	13993	3534.193650707576	0
0	14003	3535.319235179864	1
0	14006	3537.639679703693	0
0	14037	3543.675607078968	1
0	14038	3544.205978972487	0
0	14053	3545.558241986618	1
0	14055	3545.656631884183	2
0	14056	3546.256701952842	1
0	14062	3546.547481881517	0
0	14073	3548.528168053552	1
0	14079	3551.060633384709	0
0	14090	3552.379478403345	1
0	14094	3553.785363960996	2
0	14097	3556.267836064928	1
0	14103	3556.940044517474	0
0	14109	3557.114974233795	1
0	14110	3558.476417601424	0
0	14121	3558.9490562834	1
0	14123	3559.184542270175	2
0	14125	3559.63024872779	3
0	14129	3560.498278791089	2
0	14136	3564.227414719901	1
0	14141	3564.53667074566	0
0	14187	3577.247565701336	1
0	14189	3577.274692983565	2
0	14190	3577.504472049546	1
0	14196	3578.627703992948	2
0	14199	3581.084866823174	1
0	14205	3582.291775515052	2
0	14207	3582.537797475364	3
0	14211	3583.320962882816	2
0	14218	3584.730648494693	3
0	14219	3585.317850646741	2
0	14225	3585.319861021406	3
0	14228	3587.941014702882	2
0	14233	3589.281993274856	1
0	14239	3591.654059420885	2
0	14246	3593.953606542499	1
0	14252	3595.489079754926	2
0	14253	3596.384123941043	1
0	14259	3598.373589839413	0
0	14280	3606.281963132105	1
0	14282	3607.575758986023	2
0	14288	3609.760839622432	1
0	14295	3610.963262502372	0
0	14306	3611.801434504331	1
0	14308	3611.906157456707	0
0	14325	3614.27699475695	1
0	14326	3614.80367514347	0
0	14357	3619.276666578883	1
0	14359	3620.355294391438	0
0	14389	3626.982140034329	1
0	14392	3627.263265912086	0
0	14403	3628.529071215671	1
0	14409	3629.445652140011	0
0	14434	3637.289266834437	1
0	14435	3637.379604392165	0
0	14467	3641.064020217192	1
0	14470	3641.185355863117	0
0	14478	3642.39878612054	1
0	14479	3642.634437083986	0
0	14486	3643.864312992393	1
0	14487	3644.792289734142	0
0	14508	3652.057770912948	1
0	14510	3652.230800037145	2
0	14512	3653.298430942751	1
0	14518	3653.858607523964	2
0	14519	3654.889506272832	1
0	14524	3655.270557734336	0
0	14528	3655.980168273968	1
0	14530	3656.056205107327	2
0	14532	3656.512388341834	3
0	14534	3656.532790700797	4
0	14536	3657.550200666725	5
0	14543	3661.006070645935	6
0	14544	3661.723845924048	5
0	14549	3661.97751605339	4
0	14556	3662.316229654824	5
0	14557	3662.594482905321	4
0	14562	3663.322333416586	3
0	14569	3664.313205418145	2
0	14575	3665.31309653022	1
0	14581	3667.111302410873	0
0	14588	3669.347826165998	1
0	14589	3669.438372085194	0
0	14620	3681.346525401406	1
0	14622	3681.663869035147	2
0	14623	3683.049046633385	1
0	14628	3683.193242985583	0
0	14682	3696.503231029096	1
0	14684	3697.441005055361	0
0	14706	3703.38568968691	1
0	14707	3705.44624090724	0
0	14737	3712.282068580375	1
0	14738	3712.938745969362	0
0	14753	3716.824279431897	1
0	14754	3717.07267405908	0
0	14760	3717.931612592241	1
0	14761	3718.879360297467	0
0	14786	3726.590485365896	1
0	14789	3728.152291836585	0
0	14880	3755.314882771095	1
0	14881	3755.695011670475	0
0	14887	3757.116285114319	1
0	14889	3757.346259371119	2
0	14895	3758.445319718791	3
0	14897	3759.17321614239	2
0	14903	3759.521251558556	3
0	14904	3761.436426681847	2
0	14911	3763.508442440695	1
0	14916	3764.020462749225	0
0	14929	3767.181640998319	1
0	14930	3768.270964237438	0
0	15002	3781.034129398332	1
0	15003	3781.605155174242	0
0	15017	3782.824602680282	1
0	15019	3782.841791130577	2
0	15021	3783.755282195196	1
0	15026	3784.228587873146	0
0	15054	3787.990190540669	1
0	15057	3789.083851751277	0
0	15064	3789.58529639093	1
0	15065	3789.771459595381	0
0	15072	3790.965076376585	1
0	15075	3791.660785129828	2
0	15076	3791.670936682163	1
0	15081	3792.203057433447	0
0	15089	3799.509129264497	1
0	15093	3801.465974341797	2
0	15094	3802.944669897095	1
0	15101	3803.260303514855	0
0	15117	3806.616693106419	1
0	15120	3808.133596106927	0
0	15134	3810.336504328288	1
0	15136	3811.960800186517	2
0	15142	3814.616741105944	3
0	15143	3815.445977733066	2
0	15148	3815.841716651605	1
0	15153	3817.058062695943	0
0	15157	3817.6025466277	1
0	15160	3819.806696976605	0
0	15203	3834.710861992074	1
0	15204	3834.801729135572	0
0	15217	3836.092441527792	1
0	15218	3836.368704778853	0
0	15222	3837.142773564135	1
0	15224	3837.520026075592	2
0	15226	3838.46035317693	3
0	15228	3838.738267720467	4
0	15230	3838.959976170063	5
0	15233	3841.235454942805	4
0	15237	3841.501712929217	5
0	15240	3842.664147244609	4
0	15246	3842.884755353961	3
0	15251	3843.276377149246	2
0	15258	3845.365387003179	1
0	15266	3847.473331124977	2
0	15267	3848.156810942287	1
0	15272	3848.274500803288	0
0	15282	3850.824042115871	1
0	15284	3851.516201471208	0
0	15293	3852.712462793528	1
0	15295	3853.172236263232	2
0	15299	3853.573430778748	3
0	15301	3853.621333762642	4
0	15302	3853.914337011789	3
0	15307	3854.473640840366	2
0	15312	3854.558544587886	1
0	15320	3855.492559855855	2
0	15321	3856.414415770067	1
0	15327	3856.432948015588	2
0	15328	3856.746914681817	1
0	15336	3857.152884850882	2
0	15339	3858.100882497939	1
0	15344	3859.468152040191	0
0	15364	3864.160033873634	1
0	15365	3864.840078355145	0
0	15373	3868.344390514006	1
0	15374	3869.50485489862	0
0	15420	3878.140291611485	1
0	15423	3881.432444450476	0
0	15438	3883.745526762563	1
0	15440	3884.257529567721	2
0	15442	3884.575191838329	3
0	15445	3886.29112088842	2
0	15451	3887.806699535587	1
0	15457	3888.220240077601	0
0	15463	3888.240340769423	1
0	15466	3890.760532464518	0
0	15495	3897.460316889516	1
0	15503	3900.551069137529	2
0	15504	3900.66883292572	1
0	15509	3900.871508883133	0
0	15518	3903.102105525203	1
0	15520	3910.048105791397	2
0	15522	3911.315424369681	3
0	15525	3912.131145293084	2
0	15531	3913.75105985361	1
0	15536	3914.19315867574	0
0	15540	3914.884346577478	1
0	15542	3914.962479601833	2
0	15546	3917.016242698296	1
0	15553	3918.779613941261	0
0	15570	3922.376962406646	1
0	15574	3931.882313779585	0
0	15583	3935.108028895563	1
0	15588	3936.975972105519	2
0	15590	3937.159605975258	3
0	15592	3937.315979105449	4
0	15595	3940.444298846229	3
0	15601	3940.492144309094	4
0	15602	3941.022933977981	3
0	15608	3941.219054941296	2
0	15613	3941.835041811455	1
0	15619	3943.020593513216	2
0	15620	3943.667489524724	1
0	15626	3948.855308179465	2
0	15629	3949.533245230575	1
0	15633	3950.251438382871	2
0	15635	3951.189464066833	3
0	15640	3953.730468526114	2
0	15646	3954.281267504748	3
0	15649	3955.79538559367	2
0	15654	3956.516949370472	1
0	15659	3957.286170521008	0
0	15676	3960.851119649893	1
0	15677	3962.915478625986	0
0	15689	3966.616687760347	1
0	15691	3971.99854970067	2
0	15692	3977.001002373056	1
0	15700	3978.089754811716	0
0	15709	3980.409973569186	1
0	15711	3980.663066326072	2
0	15712	3980.71755346681	1
0	15717	3981.801103470532	0
0	15735	3983.580963629975	1
0	15736	3984.196875664275	0
0	15753	3987.327959216449	1
0	15755	3987.591275523882	0
0	15772	3990.484630977134	1
0	15775	3991.751946593753	0
0	15793	3995.184341280467	1
0	15797	3999.717464211311	0
0	15808	4000.422879877006	1
0	15810	4001.008439724463	0
0	15820	4003.844218750737	1
0	15823	4004.420854379756	0
0	15829	4004.602467152673	1
0	15830	4004.740397750799	0
0	15837	4005.969664252286	1
0	15838	4006.555725510273	0
0	15851	4008.770317065005	1
0	15853	4008.87534259974	0
0	15867	4011.209357655128	1
0	15869	4012.022532094802	2
0	15870	4012.41014536396	1
0	15878	4014.043048318422	2
0	15880	4014.964589058409	3
0	15883	4016.368139209564	2
0	15889	4017.483807278375	1
0	15894	4017.853567834594	0
0	15900	4017.9010996913	1
0	15905	4019.467539784895	0
0	15911	4019.999023046189	1
0	15913	4020.071398231745	2
0	15915	4021.264369601816	1
0	15920	4022.000298434848	0
0	15944	4028.005049987751	1
0	15948	4029.48395090609	2
0	15949	4029.514695831693	1
0	15955	4030.112237526198	2
0	15957	4030.344770700095	3
0	15962	4033.948674331786	2
0	15968	4034.272779393588	3
0	15972	4034.621692311558	2
0	15978	4035.358368630116	1
0	15985	4036.398727419574	2
0	15986	4036.822543025473	1
0	15995	4038.223648548105	0
0	16023	4042.115543748393	1
0	16029	4045.282911158975	2
0	16037	4050.673925824033	3
0	16043	4053.899704828026	4
0	16045	4054.905647203936	5
0	16046	4057.393811425223	4
0	16051	4057.548275829426	3
0	16058	4060.38224029286	2
0	16063	4060.53463824806	1
0	16069	4061.668378279575	0
0	16087	4065.948503347444	1
0	16089	4066.424106724835	2
0	16096	4071.152727868405	1
0	16103	4071.820133006062	2
0	16108	4074.313933257191	1
0	16117	4077.006001298874	2
0	16118	4077.269215820305	1
0	16123	4080.023253351655	0
0	16151	4087.003320246687	1
0	16154	4089.143454429746	0
0	16166	4094.671291908077	1
0	16169	4097.328763385131	0
0	16178	4097.677948944015	1
0	16180	4099.731956281683	2
0	16182	4100.797967032716	3
0	16184	4101.237467958748	4
0	16186	4101.331705190734	5
0	16192	4104.088100614017	6
0	16193	4104.481743607941	5
0	16199	4105.183007541863	4
0	16204	4105.711109019679	3
0	16209	4108.638835299444	2
0	16216	4112.926420397994	1
0	16221	4112.95806909063	0
0	16228	4113.657054127558	1
0	16229	4113.911215682681	0
0	16239	4116.505268276797	1
0	16241	4117.97731794152	2
0	16242	4118.354992818197	1
0	16247	4118.364460515251	0
0	16259	4119.553868853701	1
0	16260	4120.121363144966	0
0	16271	4121.444234023177	1
0	16275	4123.396847159489	2
0	16278	4125.541904250916	1
0	16283	4126.238809458325	0
0	16312	4133.930139874238	1
0	16313	4134.220626988788	0
0	16319	4134.499535905126	1
0	16321	4134.838519064894	2
0	16324	4135.337303212722	3
0	16325	4135.366301449977	2
0	16330	4136.628389337724	1
0	16336	4137.461117501915	2
0	16339	4138.656070624299	1
0	16349	4141.995743108166	0
0	16355	4142.582736101674	1
0	16356	4142.781773766397	0
0	16360	4145.330881854812	1
0	16365	4146.691861856365	0
0	16372	4148.678613374923	1
0	16376	4150.468602827156	2
0	16377	4151.889132117412	1
0	16382	4153.789701222171	0
0	16386	4154.296666145879	1
0	16389	4155.953877945205	0
0	16415	4161.511749608117	1
0	16416	4161.654343879324	0
0	16434	4162.914834304217	1
0	16442	4165.355088191247	2
0	16443	4166.091530142172	1
0	16449	4167.107064933198	2
0	16450	4167.374676086752	1
0	16455	4167.99268745551	0
0	16461	4170.036605683167	1
0	16464	4170.584575813976	0
0	16481	4171.995759531452	1
0	16482	4172.193287477406	0
0	16507	4176.45583206162	1
0	16511	4177.997054141629	2
0	16512	4178.350116520005	1
0	16518	4180.399816333257	2
0	16522	4182.238030002226	1
0	16527	4182.286303920005	0
0	16542	4186.412240484364	1
0	16544	4186.917810948302	2
0	16549	4187.538534282208	3
0	16550	4187.811328410859	2
0	16556	4189.24825856217	1
0	16563	4190.10329792067	0
0	16577	4191.297377440549	1
0	16580	4192.465981565571	0
0	16602	4196.68833935519	1
0	16603	4197.173903775328	0
0	16609	4197.185439782655	1
0	16612	4197.583730869804	0
0	16616	4197.734082183931	1
0	16618	4198.844969238738	2
0	16622	4200.224917401703	1
0	16628	4200.569315341052	2
0	16630	4200.787265756183	3
0	16633	4201.029556720644	4
0	16636	4202.097829444903	3
0	16642	4203.217484172318	2
0	16651	4205.335291968047	1
0	16657	4205.605555053105	2
0	16660	4207.107212307007	1
0	16665	4207.247369049987	0
0	16669	4207.718031881242	1
0	16672	4207.986259770488	0
0	16683	4208.901574576723	1
0	16685	4210.183149912235	0
0	16700	4213.726531561296	1
0	16706	4215.743476473788	2
0	16708	4218.267006690409	3
0	16709	4219.420971769109	2
0	16714	4219.8078759518	1
0	16719	4220.487907055141	0
0	16730	4224.103341680418	1
0	16735	4225.781302034703	0
0	16739	4226.240416219267	1
0	16744	4226.856271108631	0
0	16784	4233.090589462709	1
0	16789	4234.545711601611	0
0	16798	4237.934903410177	1
0	16801	4240.444795812926	0
0	16810	4240.858252910057	1
0	16814	4242.012996794561	2
0	16816	4242.411941760451	1
0	16822	4246.491945066638	0
0	16842	4249.878790073216	1
0	16843	4250.005034916622	0
0	16854	4250.84200990926	1
0	16858	4252.400405376795	0
0	16879	4255.617562168967	1
0	16880	4257.840245150698	0
0	16886	4258.977478682547	1
0	16888	4259.895134573111	0
0	16904	4261.077720816335	1
0	16907	4262.113675558451	2
0	16910	4263.009054514115	1
0	16914	4265.760593086088	2
0	16921	4268.287380970918	1
0	16927	4268.980383741714	2
0	16929	4269.320956569908	3
0	16930	4270.741405998703	2
0	16935	4272.845334192649	1
0	16939	4272.95156943689	2
0	16942	4274.080194992838	1
0	16948	4275.840813801368	2
0	16949	4276.066826466569	1
0	16957	4278.74253539355	0
0	16973	4280.764971928986	1
0	16974	4280.866231491599	0
0	17012	4287.028820719024	1
0	17013	4287.567166785083	0
0	17047	4297.162862193334	1
0	17053	4300.642972693917	0
0	17064	4303.11562079299	1
0	17065	4303.227899916002	0
0	17093	4308.141263521485	1
0	17095	4308.431828067846	2
0	17097	4308.913296195456	3
0	17100	4311.878933538347	2
0	17106	4312.106724643534	3
0	17108	4312.192529148908	4
0	17110	4313.19161580715	5
0	17112	4313.316645827019	6
0	17114	4314.184151219442	5
0	17120	4314.680820634941	4
0	17125	4314.923420918692	3
0	17129	4316.846116038348	4
0	17133	4318.16165517071	5
0	17138	4320.684385882606	4
0	17143	4324.606374285532	3
0	17150	4326.191411339797	2
0	17156	4327.600656323967	1
0	17163	4328.697149504665	2
0	17164	4330.560289067925	1
0	17170	4331.374455466699	0
0	17190	4332.625573344431	1
0	17193	4334.588407025454	0
0	17208	4340.134079385565	1
0	17211	4341.384650783911	0
0	17230	4344.950226451386	1
0	17231	4345.232136079918	0
0	17248	4348.833482022818	1
0	17256	4352.150839189665	2
0	17258	4352.217140480189	3
0	17262	4352.394241800104	4
0	17263	4353.255366661672	3
0	17269	4353.659395106347	4
0	17270	4353.857447191394	3
0	17276	4354.503681924347	2
0	17283	4355.327985232044	1
0	17288	4358.311629264171	0
0	17300	4359.667310346879	1
0	17302	4360.038830290146	0
0	17308	4361.177929326332	1
0	17309	4362.47607393699	0
0	17351	4372.527986745489	1
0	17354	4374.672199695986	0
0	17374	4377.615270982599	1
0	17377	4378.217984475084	0
0	17386	4379.578645432163	1
0	17394	4382.552422166773	0
0	17408	4383.613132629334	1
0	17412	4386.262808371433	0
0	17416	4386.289864633753	1
0	17421	4388.361452745749	0
0	17427	4388.523397917355	1
0	17433	4391.064931546073	0
0	17450	4394.159721328626	1
0	17452	4395.262282804161	2
0	17456	4397.983407643743	3
0	17457	4398.159637833839	2
0	17462	4398.680771706842	1
0	17470	4399.613569132834	0
0	17476	4399.705820007522	1
0	17478	4400.619885739674	0
0	17491	4401.226784834492	1
0	17492	4401.275590917712	0
0	17520	4406.303406742915	1
0	17523	4406.859513475793	0
0	17561	4416.233193263442	1
0	17565	4416.673950096796	0
0	17585	4426.492475782507	1
0	17586	4426.591569751081	0
0	17620	4440.227136312543	1
0	17621	4441.099254996375	0
0	17627	4442.311812385002	1
0	17629	4443.427731249683	0
0	17648	4447.050548172489	1
0	17650	4448.024421428516	2
0	17653	4450.459482115167	1
0	17658	4450.734891163217	0
0	17683	4456.66024739447	1
0	17684	4457.248054455068	0
0	17700	4460.679315367628	1
0	17701	4462.642260643089	0
0	17718	4464.616741248317	1
0	17719	4464.805713974106	0
0	17736	4468.136400270671	1
0	17739	4469.348044549171	0
0	17767	4479.076618749552	1
0	17768	4480.206809189921	0
0	17775	4482.044756800894	1
0	17776	4482.142486874913	0
0	17789	4483.228925211829	1
0	17791	4483.388225412212	2
0	17794	4485.147175597501	1
0	17802	4485.977635287606	2
0	17805	4486.204122906588	1
0	17811	4487.073882958986	0
0	17840	4490.320914521224	1
0	17841	4492.650592401075	0
0	17905	4518.836863693281	1
0	17907	4518.882259668633	2
0	17908	4519.257668236459	1
0	17913	4519.355716311965	0
0	17922	4519.665591900559	1
0	17928	4521.003841012656	2
0	17929	4521.368862690536	1
0	17935	4521.780858032947	0
0	17950	4528.171880395307	1
0	17953	4529.417234997327	0
0	17976	4535.969798470713	1
0	17978	4536.490571891802	2
0	17986	4539.350390723905	1
0	17994	4540.616305897899	0
0	18004	4541.100355185171	1
0	18008	4543.470741981905	0
0	18015	4544.763691554813	1
0	18017	4544.777265180694	0
0	18036	4548.454668858041	1
0	18037	4549.609225129629	0
0	18043	4549.940327281681	1
0	18044	4549.965915249572	0
0	18056	4552.259831013077	1
0	18060	4553.046798601749	0
0	18118	4567.294217599098	1
0	18119	4567.991133806008	0
0	18138	4572.180537913213	1
0	18139	4572.571017076812	0
0	18145	4572.871675878379	1
0	18148	4573.23131912788	2
0	18150	4573.803202198202	1
0	18155	4573.9341022038	0
0	18208	4590.138451334995	1
0	18209	4591.282662193764	0
0	18220	4592.471640868933	1
0	18225	4596.121452106676	0
0	18238	4597.729233067383	1
0	18240	4599.993900877201	2
0	18242	4600.330801052778	3
0	18250	4603.766997340728	4
0	18252	4604.479879033533	5
0	18255	4605.17905808985	4
0	18261	4606.317697580716	3
0	18268	4606.80455692472	4
0	18269	4607.034099294629	3
0	18276	4609.719097945412	2
0	18283	4610.209376625279	1
0	18288	4610.243481045146	0
0	18323	4615.767997762756	1
0	18324	4615.830850140582	0
0	18335	4620.003044608479	1
0	18337	4620.846953785432	2
0	18339	4621.554671313434	3
0	18341	4623.744819645793	4
0	18345	4623.937808855112	5
0	18347	4624.181540192079	4
0	18353	4625.721532140341	3
0	18359	4625.846554056953	4
0	18362	4626.960991686819	3
0	18367	4628.394227906912	2
0	18374	4630.660510079598	1
0	18381	4632.051366897681	0
0	18397	4633.182648868117	1
0	18401	4634.515171012933	2
0	18403	4635.017187859761	1
0	18409	4635.228983424774	0
0	18433	4640.758919634286	1
0	18434	4640.995487225058	0
0	18451	4644.85813833167	1
0	18454	4646.641849431646	0
0	18461	4648.051044283518	1
0	18462	4650.33458375945	0
0	18481	4659.524878727723	1
0	18485	4661.427288920949	0
0	18507	4670.055473308028	1
0	18509	4671.169733701744	0
0	18515	4671.197635883565	1
0	18519	4671.776148497835	0
0	18526	4672.303108905648	1
0	18532	4673.798351256456	2
0	18533	4674.677328229222	1
0	18539	4675.528813854991	0
0	18653	4703.039290604898	1
0	18655	4703.149187507624	2
0	18656	4703.498508079294	1
0	18661	4704.535649186159	0
0	18667	4704.731825438105	1
0	18668	4705.473363051636	0
0	18672	4706.180723139693	1
0	18676	4708.008795554018	0
0	18706	4714.548440663576	1
0	18708	4714.960010572265	2
0	18709	4715.963409211871	1
0	18716	4717.647241311788	2
0	18717	4718.122264908365	1
0	18723	4718.431544892301	2
0	18727	4718.911625506489	3
0	18729	4719.489217033347	4
0	18731	4719.601420609838	5
0	18733	4720.092177770128	4
0	18739	4720.421509185791	5
0	18741	4722.010836982104	4
0	18750	4723.878025933241	5
0	18752	4724.215085827243	6
0	18753	4726.016922852865	5
0	18758	4726.127625005138	4
0	18763	4726.158113565623	3
0	18770	4726.979850444581	2
0	18774	4727.41457460506	3
0	18780	4730.66323167466	2
0	18785	4731.77724467481	1
0	18793	4732.645920943648	2
0	18794	4734.257258230557	1
0	18798	4734.326033122612	2
0	18801	4735.467136562279	1
0	18807	4735.924977651908	2
0	18808	4736.260598114271	1
0	18816	4738.095036481706	0
0	18842	4740.069567286754	1
0	18843	4740.120038394747	0
0	18857	4745.173823633727	1
0	18860	4746.398504394934	0
0	18866	4747.147922297288	1
0	18868	4747.555541701519	0
0	18886	4754.032583173967	1
0	18888	4754.340851579678	2
0	18889	4754.719742484234	1
0	18895	4754.842470208755	0
0	18904	4755.607241219115	1
0	18910	4759.90890118576	2
0	18912	4761.218105788557	3
0	18915	4762.769850577059	2
0	18921	4763.284007338283	3
0	18922	4763.845761433012	2
0	18929	4766.026206229604	1
0	18933	4766.36140116516	2
0	18935	4766.649758170749	3
0	18937	4766.806971778343	4
0	18940	4768.070804551684	3
0	18947	4773.963997310619	2
0	18953	4774.300855867569	3
0	18954	4774.879037050405	2
0	18964	4776.93581970035	3
0	18965	4777.122779437366	2
0	18970	4777.283412488807	1
0	18975	4777.759475784523	0
0	18996	4781.741762804621	1
0	18998	4782.686625891449	2
0	19000	4784.662717452691	3
0	19002	4789.201004469436	4
0	19006	4790.78991995208	5
0	19008	4790.816857348871	6
0	19009	4791.043530883509	5
0	19015	4791.713371846197	4
0	19020	4791.964953751316	3
0	19026	4792.236168117775	2
0	19033	4792.928749326101	1
0	19040	4793.738358601693	0
0	19046	4795.159235610683	1
0	19047	4795.661472131603	0
0	19053	4796.249998393346	1
0	19054	4796.292427380616	0
0	19060	4796.856066982206	1
0	19062	4797.898885125693	2
0	19066	4798.401172781808	3
0	19067	4799.411922838254	2
0	19074	4800.621081024707	1
0	19078	4801.600021690738	2
0	19081	4804.480786637291	1
0	19091	4806.613744277302	2
0	19097	4808.851475578843	1
0	19102	4808.949867790898	0
0	19106	4809.068390817998	1
0	19111	4811.855545251167	0
0	19115	4812.680488964853	1
0	19120	4813.300857442956	2
0	19121	4817.579665535498	1
0	19127	4818.223586341364	0
0	19152	4823.78249963392	1
0	19154	4823.877304646783	2
0	19155	4826.594627629688	1
0	19160	4827.414118703634	0
0	19176	4832.021768816256	1
0	19177	4832.078293133758	0
0	19183	4832.344579305933	1
0	19185	4832.587548890412	0
0	19217	4840.980927052818	1
0	19218	4842.199673710983	0
0	19227	4844.654151486173	1
0	19231	4845.286194913706	0
0	19245	4848.856778999666	1
0	19246	4850.261808501423	0
0	19252	4851.969215022066	1
0	19253	4852.641479007821	0
0	19262	4854.79018672886	1
0	19264	4855.226723071379	2
0	19266	4857.165717106209	3
0	19269	4858.732311633947	2
0	19276	4860.78168042881	1
0	19283	4864.914218208843	0
0	19290	4867.554190923887	1
0	19291	4867.985516889062	0
0	19309	4871.279330782517	1
0	19311	4871.870270524202	2
0	19313	4872.269368884578	3
0	19316	4873.301435362766	2
0	19321	4873.495211935018	1
0	19329	4874.794039100629	0
0	19362	4884.429389283687	1
0	19364	4884.647946152765	0
0	19370	4884.850660828165	1
0	19373	4885.795987484748	0
0	19400	4890.638941101919	1
0	19402	4890.694583319532	2
0	19404	4892.303659750185	3
0	19406	4893.438864302358	4
0	19410	4895.498577519381	5
0	19412	4896.298628574099	6
0	19414	4897.448548599154	7
0	19416	4898.861796252488	8
0	19421	4899.921447433902	7
0	19427	4899.956012828113	8
0	19429	4901.914802583384	7
0	19434	4902.588755849024	6
0	19446	4906.411556869641	5
0	19452	4906.538999996811	4
0	19459	4907.168480571783	5
0	19460	4907.88405945405	4
0	19466	4908.411952541367	3
0	19472	4910.401756116561	2
0	19477	4910.69258243642	1
0	19481	4910.964060549268	2
0	19485	4913.054889918149	1
0	19492	4913.766616235768	0
0	19503	4914.241368133328	1
0	19504	4914.592692028128	0
0	19538	4919.157951404724	1
0	19542	4919.602028306483	2
0	19547	4924.610124024183	3
0	19549	4925.1277716124	4
0	19555	4926.645754947055	5
0	19556	4927.589641034705	4
0	19563	4928.369138697172	5
0	19564	4928.70972955076	4
0	19569	4929.458456495911	3
0	19574	4931.157266412234	2
0	19579	4932.945784896818	1
0	19583	4932.981232091752	2
0	19587	4934.599091983671	3
0	19588	4934.943654020528	2
0	19594	4935.369197669398	1
0	19600	4936.17692144888	2
0	19602	4936.277868971436	3
0	19603	4936.479824082868	2
0	19607	4937.161651459601	3
0	19610	4937.575433016568	2
0	19615	4939.240667383722	1
0	19621	4939.775594562798	2
0	19622	4939.90117604593	1
0	19627	4940.209914136167	0
0	19646	4944.366936332018	1
0	19648	4944.461792651606	2
0	19651	4945.473420805103	3
0	19653	4945.840554659144	4
0	19654	4946.023430915314	3
0	19660	4946.054598288678	4
0	19661	4946.685493628718	3
0	19667	4947.205231616671	4
0	19668	4947.805736532669	3
0	19673	4947.954154232347	2
0	19680	4950.576606635166	1
0	19685	4951.469701893841	0
0	19719	4955.775343746295	1
0	19722	4957.177413367117	0
0	19729	4957.497057496634	1
0	19730	4957.557697050111	0
[...]
5	113186	27602.305257908186	9.00108188701
5	113211	27605.445993855211	6.888661194919
5	113223	27609.554385141981	9.629647022044
5	113240	27615.265623722352	14.726388135044
5	113262	27620.6468300723	16.96619606762
5	113332	27638.847484154022	33.938149130512
5	113339	27642.33371970408	32.581048066663
5	113345	27643.409769162555	28.57572815761
5	113353	27643.969531581087	24.50860338211
5	113383	27650.35718275686	10.029377292005
5	113388	27651.39369141828	6.389971495264
5	113395	27653.448656332228	7.662713782264
5	113413	27666.657439072781	2.155218287558
5	113422	27668.322604406899	2.168580794885
5	113445	27671.114361018877	0.579569734503
5	113505	27699.577196987683	8.736428506108
5	113512	27703.008611160781	9.113503591478
5	113540	27711.30093304287	15.861557289735
5	113549	27713.963749763368	3.226050784127
5	113621	27729.808347644842	15.094018446796
5	113626	27730.702050805509	15.365945773618
5	113636	27733.959209490659	16.216659763038
5	113663	27743.189659103088	23.739809347705
5	113685	27745.952560457697	25.191561443069
5	113702	27752.844265927692	31.857649917793
5	113744	27758.106544096064	32.73909471295
5	113765	27763.319817187554	33.83992611406
5	113802	27773.48037453024	38.137541336912
5	113829	27781.413334419248	38.43214811662
5	113850	27783.827188329146	39.393780164211
5	113876	27787.597624083678	41.58855033336
5	113984	27815.133448305887	57.682841800351
5	113990	27815.751938459862	55.919719963421
5	113998	27816.655984063527	56.275757613423
5	114022	27819.913154974612	57.859442228364
5	114062	27832.426851301828	66.792888274225
5	114071	27838.321706046382	70.843415669903
5	114084	27841.075130168577	66.784178971319
5	114096	27842.552395272108	67.528198123309
5	114103	27843.124843991619	64.264152835162
5	114122	27848.921587573346	69.421559138321
5	114130	27852.11168869536	72.501887689861
5	114155	27860.843275349783	80.709496182484
5	114231	27872.454581402246	91.576725359653
5	114237	27872.616478627771	91.570553795542
5	114242	27872.850837833321	88.739353064817
5	114248	27873.307260515763	85.297925009612
5	114255	27874.547144891454	74.705814857793
5	114299	27882.006178337758	80.86011414936
5	114314	27888.37076773027	82.785266866373
5	114331	27890.430214078908	72.211594766321
5	114337	27891.226365329312	72.823203276111
5	114349	27892.626821526177	73.754006391133
5	114366	27895.032367067973	75.397479016076
5	114373	27896.956550492084	54.736554547092
5	114387	27901.748739225882	54.301828473249
5	114458	27916.630968926194	64.068813407203
5	114463	27917.310584838578	62.507368730926
5	114470	27922.123918109734	67.115833755163
5	114477	27923.373108785297	59.877600374323
5	114484	27924.949714459369	59.597882707108
5	114491	27927.733578594884	61.50557865803
5	114503	27928.682699745624	53.878778221245
5	114510	27932.186602290294	54.770826221791
5	114520	27933.852518519669	53.900237732317
5	114528	27936.856490673972	56.025086134558
5	114537	27937.576900952829	55.700684066901
5	114553	27942.091986829796	55.217742584411
5	114588	27950.070951578209	62.154708347692
5	114598	27950.923571813547	59.555253203019
5	114607	27953.813880637997	58.578305499037
5	114637	27958.987510016531	58.672612192228
5	114670	27966.160309709046	65.105184129067
5	114675	27967.286912455054	59.354082231383
5	114680	27967.61561149405	55.764107818638
5	114685	27967.879914483394	44.794685346844
5	114692	27969.189728885417	44.608681773149
5	114698	27972.740276912951	44.097603846687
5	114703	27973.574021342506	39.374776728193
5	114720	27983.749406977392	46.575003285184
5	114753	27987.370461833544	46.740076515035
5	114772	27993.04280256869	48.880140598
5	114795	27998.082391101779	52.698919311764
5	114806	28000.293252258229	47.946642187081
5	114813	28003.536946555405	42.847491659294
5	114820	28005.661702115137	42.322779306631
5	114839	28011.109815637836	41.981993835136
5	114868	28014.4941201607	36.051151016349
5	114875	28014.81017224473	34.96957562745
5	114888	28017.339758917167	30.766836624859
5	114895	28019.814910073035	22.755426196352
5	114911	28022.72502419017	21.588978262545
5	114919	28024.531104062796	17.561800027139
5	114940	28030.802141002377	21.225722413262
5	114951	28032.924035267754	21.707402144876
5	114957	28034.497961136915	22.862234384595
5	114964	28036.082491700758	16.055411825698
5	114999	28049.129501540761	26.441570488258
5	115105	28066.931525506251	37.358234857646
5	115112	28067.010882954016	36.857257101592
5	115122	28072.273858519371	41.484810467339
5	115139	28072.875522776577	36.027600739942
5	115151	28078.925450757536	41.659523563743
5	115181	28089.808533678871	50.694107261413
5	115194	28091.655018673936	50.542014813144
5	115204	28093.88554433381	50.061499908452
5	115215	28095.618840408819	48.685466497838
5	115220	28096.145277622029	49.050860130101
5	115228	28098.202385019292	45.740079824028
5	115238	28099.942298170015	46.754128261633
5	115243	28100.644682043643	45.954460101626
5	115250	28101.539021710069	41.464126550697
5	115255	28102.490049027486	41.829481624954
5	115260	28104.10298358579	39.742138461659
5	115265	28104.343353874046	38.382447367884
5	115271	28106.406117781276	40.439042501192
5	115288	28115.459479231554	48.46370071137
5	115328	28125.444669191274	41.123679316855
5	115338	28131.272587976373	43.588456576917
5	115351	28134.371149298121	43.178121036566
5	115373	28139.443800030221	45.753405865577
5	115383	28141.129725148669	39.692889113922
5	115390	28141.801814142135	34.741031120007
5	115419	28149.883442092154	36.052101352245
5	115475	28158.883281872378	44.391999969378
5	115485	28159.160631332213	42.352474739658
5	115504	28164.960738214483	35.148260003254
5	115551	28171.838285648808	29.589718121137
5	115556	28172.215136761795	21.738964243485
5	115578	28180.590678897856	19.349740223959
5	115622	28196.344607310676	32.671230285661
5	115647	28201.678285856809	37.512236976612
5	115652	28202.450256254816	33.184433245702
5	115659	28204.913836211137	31.038977393082
5	115667	28207.124787963598	32.47728610918
5	115712	28215.623211834778	36.240200332723
5	115717	28215.917086282372	32.156804494266
5	115725	28217.800214188139	31.075615081712
5	115747	28222.952971179536	34.861674079573
5	115752	28223.859001759123	28.5143810497
5	115757	28225.597935804875	21.101715545747
5	115767	28228.075922448474	20.183413830488
5	115772	28228.152547288932	17.862772396536
5	115779	28229.139032285871	9.215770830819
5	115791	28231.066795615677	5.134416131817
5	115795	28234.573489064341	7.489184071415
5	115809	28241.927764608384	2.903425136911
5	115821	28244.401775444744	4.182482932787
5	115846	28249.746217041367	9.039045358191
5	115881	28257.63662855543	12.840607849663
5	115890	28260.415263768045	12.905629768079
5	115907	28264.441947515864	16.357419542623
5	115926	28267.856448327824	19.64682118061
5	115972	28276.893306551508	28.668038288797
5	115984	28278.890155876874	22.960173036695
5	115991	28283.281720236378	24.383936541391
5	115995	28283.512384712047	13.587565381705
5	116029	28291.499401347598	5.609568981976
5	116036	28295.483201567339	5.869458804366
5	116054	28299.982915134103	2.51923378153
5	116058	28300.00515345686	1.096474877833
5	116083	28307.72528343378	6.710452116605
5	116183	28334.751943266922	32.590023172535
5	116249	28353.510984968324	47.095875175584
5	116260	28355.882829927283	45.19984605174
5	116269	28359.591631791895	38.774310913756
5	116282	28361.361683052273	36.970886807957
5	116287	28361.705902935215	33.831340490597
5	116297	28365.691298537383	32.696092230073
5	116312	28368.986085767898	32.380165400307
5	116324	28371.783781771022	28.874411310401
5	116329	28371.921945100946	28.002581968875
5	116341	28376.585007708242	24.091994592694
5	116346	28377.268227841831	17.879751767473
5	116351	28378.466304150728	18.508685708144
5	116359	28381.211789556837	16.857071139054
5	116374	28385.635490515764	18.11902131472
5	116379	28388.520888106807	15.755114632278
5	116384	28388.944942558262	14.913532959281
5	116391	28390.583910930207	14.607292311907
5	116405	28393.513204469549	8.277788489933
5	116432	28399.519328636204	14.22830011863
5	116454	28403.296937769868	7.394846164744
5	116459	28403.78287583174	6.40416993022
5	116469	28409.395565887204	9.450831623669
5	116497	28414.454975508067	12.984864098116
5	116514	28416.980506624192	2.104642010461
5	116530	28425.813236140593	5.2068166181
5	116534	28426.789521356706	4.002044599289
5	116556	28434.340449403435	4.945739317835
5	116570	28437.566148398392	8.102027135844
5	116594	28444.488816040984	10.14919926932
5	116614	28446.485237252358	10.087227791686
5	116619	28447.091044465461	8.1077265982
5	116624	28448.181393695579	4.302004748851
5	116637	28459.613573577615	15.293297516137
5	116698	28472.35515551047	26.37214966325
5	116736	28480.469486022613	19.052832184294
5	116910	28529.786410799706	60.529827302581
5	116920	28531.650608274816	61.344619481508
5	116940	28535.690521352385	50.974988339137
5	116945	28535.717389742161	43.899556089838
5	116952	28540.291676203218	46.029195630754
5	116967	28544.934203603171	42.917503107466
5	116979	28546.873139926566	41.936639687919
5	116988	28549.095107360644	26.075541852068
5	117005	28555.489515462279	28.437786750609
5	117033	28557.54688783007	27.613459387738
5	117063	28562.70869484947	21.139959168079
5	117068	28564.644158328962	15.809699670484
5	117074	28567.323427855423	10.40685145532
5	117105	28575.946108903639	5.952424020912
5	117182	28590.579450952789	19.119168131495
5	117193	28591.531857508073	19.938149077362
5	117200	28594.333159361794	15.804718829563
5	117215	28597.394834942613	16.21262359097
5	117238	28598.535713862596	16.630696825274
5	117244	28599.26959378096	14.574173458846
5	117253	28603.490944719737	18.17710532292
5	117274	28611.750445782035	23.161013258244
5	117279	28611.764255686604	21.789055288392
5	117286	28615.911640780991	21.946516769489
5	117298	28618.665425567522	23.771660648325
5	117424	28653.977285951487	50.638733030482
5	117435	28655.94147877377	36.365024062455
5	117442	28657.495090321006	22.194415148825
5	117508	28674.712971413868	32.654918939376
5	117532	28684.717661720024	38.697439753222
5	117565	28692.578278400415	27.032020091088
5	117597	28700.056156253001	33.870014966211
5	117604	28700.13401643826	32.287370098524
5	117614	28702.800961991586	29.458694784363
5	117619	28703.291652281548	25.708706422093
5	117628	28705.329688926714	23.047360630763
5	117637	28708.326725736577	25.612964905529
5	117642	28711.713866978715	18.564019189541
5	117649	28713.109989889002	16.056957760854
5	117666	28715.383001372697	11.250533173582
5	117693	28721.403580321233	17.138338001549
5	117728	28727.93364777927	21.872815421422
5	117733	28729.127420201308	22.892038321572
5	117738	28729.725212124819	14.486126115994
5	117746	28731.675211202642	9.465586927993
5	117751	28731.704572168103	5.104909443229
5	117760	28734.559789467555	3.005474595267
5	117787	28740.613502243707	4.628857666365
5	117823	28749.074723816966	10.340623340562
5	117853	28756.128285359036	11.767196603289
5	117935	28768.75249128482	22.902424838754
5	117940	28768.869137299591	22.211385931541
5	117949	28773.057488213744	26.005411690468
5	117962	28773.58921637224	25.490386876482
5	117969	28774.036573747275	21.628859334478
5	117982	28780.140035631506	25.768933915181
5	117994	28781.971350975697	25.572715471931
5	118001	28785.144123805447	27.300817789761
5	118008	28788.355452005479	24.026131560988
5	118025	28792.428544239504	18.974534547929
5	118043	28795.948614069802	11.162389661065
5	118052	28799.653139645478	10.848197515755
5	118068	28803.285569214856	6.337850508561
5	118079	28806.075058489571	3.819417324061
5	118084	28807.348060535777	5.032213382596
5	118092	28809.028976626967	1.536239324475
5	118116	28812.268556887482	2.176453730163
5	118182	28829.633266987527	19.081626460657
5	118275	28848.006310420234	35.941314202178
5	118287	28850.32578637143	37.642363072683
5	118293	28852.45883239851	34.367268007191
5	118300	28853.415607284084	35.213217766306
5	118319	28862.086543637752	41.984901738838
5	118475	28911.431372039564	90.812594072444
5	118482	28914.396103089593	89.268020261388
5	118551	28929.103625410659	103.87162270528
5	118591	28942.546147564628	110.86781247887
5	118596	28942.818756348516	110.11981952162
5	118610	28947.106580482456	114.30399673698
5	118758	28984.274675026287	150.89028819509
5	118767	28987.152854390422	147.26411331431
5	118781	28989.295651942401	148.47258493072
5	118810	28996.077634665066	154.50264347777
5	118835	29001.279701695219	157.75506500353
5	118870	29014.167929959107	169.03957604274
5	118897	29022.918009395494	174.78861220742
5	118904	29025.965959659779	168.87208185358
5	118913	29027.32082827184	151.21417969031
5	118922	29029.767650604808	140.09661703587
5	118940	29032.665092331218	141.87344872162
5	118945	29032.741447865205	137.65928336247
5	118953	29035.505957916372	138.82715522875
5	118961	29037.760931433085	138.13952303747
5	118973	29039.908802503555	133.44198999504
5	118986	29045.994259390098	135.13892070788
5	119015	29059.317340463611	143.76212615961
5	119041	29063.910789110321	142.18504997455
5	119058	29069.108008375956	146.59737281736
5	119431	29161.11363755569	238.16814529254
5	119446	29165.25189452356	241.65494381451
5	119451	29165.795654804481	241.75798658261
5	119456	29167.985182970855	242.58737490625
5	119464	29170.086034187601	244.63409349019
5	119482	29174.038837626541	248.39740516529
5	119500	29178.58168036395	241.19375637631
5	119505	29178.920763074326	241.39724607095
5	119514	29181.839371099783	232.08916907616
5	119532	29183.735823334646	228.28011782875
5	119580	29199.408252530876	238.79484888908
5	119587	29200.915982981831	236.13362257365
5	119597	29201.44663361997	232.99467362615
5	119602	29202.142084966299	231.81521372464
5	119609	29204.266931332456	228.63777114497
5	119665	29220.209683394143	229.45884037162
5	119767	29242.494366155856	251.28936361731
5	119778	29243.051934554951	241.06341341915
5	119789	29246.166987851309	244.14734391835
5	119803	29249.155547869427	235.15880018536
5	119829	29257.890291983014	235.93021059142
5	119878	29270.090956904558	245.17991527324
5	119886	29271.383242669573	244.81509026848
5	119895	29273.630493896902	246.64487985889
5	119911	29276.341793467717	248.80626661789
5	119925	29278.074581394508	243.751436849
5	119930	29279.215512587296	239.50003728958
5	119937	29281.310595836718	235.55815763832
5	119944	29282.08798170021	231.96728870629
5	119954	29283.002163388016	228.61493888117
5	119961	29284.581825879237	226.67773301198
5	119967	29286.468518664583	221.12570097186
5	119972	29286.986713972241	221.49136102195
5	119983	29291.965454795774	200.94395504162
5	120006	29298.802737877152	200.10502216386
5	120017	29300.753869140247	201.80397069929
5	120024	29303.426047241868	203.92994590425
5	120033	29307.414990612539	204.6120549839
5	120052	29308.818809352138	205.10094905464
5	120057	29309.211169770274	204.47714010405
5	120073	29312.005980303916	190.15103188279
5	120105	29318.599015782379	195.46197689846
5	120131	29324.972102671356	195.07615517028
5	120146	29329.542231826535	195.60510513446
5	120163	29333.447690460783	194.07802901993
5	120179	29338.653925751674	199.00583149385
5	120195	29343.664389761129	188.18727784416
5	120202	29344.218952170644	185.84033053843
5	120207	29345.222636583393	185.76409138982
5	120216	29346.351061247387	185.67317794299
5	120223	29350.956992762811	189.54657190229
5	120238	29352.977723684776	190.11949705413
5	120250	29355.453191524146	183.55703501752
5	120268	29357.785228174353	178.04720953919
5	120285	29363.395259966903	170.98813570683
5	120307	29365.338190666255	158.17678687021
5	120317	29368.151036770943	158.90917225049
5	120322	29368.315193378527	154.00846842071
5	120329	29370.598061997067	152.28678090257
5	120342	29371.81947464763	150.88268418013
5	120349	29372.918639278913	135.41484126497
5	120360	29374.185037575567	129.56370801789
5	120391	29381.08080163173	136.07376323051
5	120440	29396.449665834451	142.84243014835
5	120503	29412.503374800679	155.33114533752
5	120516	29416.503173804723	145.6048639458
5	120522	29417.005574263615	141.27015072916
5	120528	29418.825396131625	142.70945711576
5	120541	29422.790129875187	145.19278613935
5	120593	29429.508216746476	148.6642920952
5	120599	29430.474831361212	146.06497484543
5	120608	29434.375303840986	146.63926011086
5	120620	29437.309392571828	143.32388534788
5	120638	29440.447226156863	146.03567464439
5	120646	29442.580338584513	139.97485549344
5	120652	29443.507375208574	134.91351127204
5	120659	29444.295794140505	134.43110175201
5	120669	29444.34003803178	134.00217061773
5	120686	29449.908094351647	133.04468067229
5	120733	29457.217938378652	131.21185073781
5	120767	29464.220479389418	137.1508058419
5	120772	29466.876067932477	135.30780015146
5	120784	29474.221045075094	138.07063349626
5	120828	29480.204862769253	143.45037126187
5	120856	29488.559911456089	144.57704958659
5	120868	29490.462001088259	144.85134852831
5	120880	29492.627846240503	146.59244176629
5	121220	29592.035703282185	240.99222769896
5	121230	29593.26108338327	242.06694566776
5	121237	29593.819404823305	236.10341930277
5	121251	29596.916207727226	239.0555810335
5	121263	29600.586243024026	237.45001716708
5	121306	29612.30383411826	246.86142837637
5	121318	29614.694842409915	246.81318857817
5	121341	29623.56911413771	252.8709947011
5	121351	29623.652401365915	251.53853887688
5	121361	29627.839308361705	219.86315256375
5	121366	29629.455503646206	221.16716940169
5	121374	29631.491217064808	221.02129315512
5	121391	29640.351899729187	226.56119244792
5	121766	29730.271447237741	309.84407439868
5	121772	29730.498814516212	305.73102605145
5	121780	29733.910252607761	307.34067182656
5	121789	29734.62258541758	302.44488885031
5	121800	29736.273625793085	298.64874909269
5	121805	29738.710372557518	299.21020583691
5	121814	29740.331115601231	300.5371362066
5	121842	29748.778397156099	303.75137255463
5	121926	29766.690563115673	321.47273608422
5	121944	29769.206143764428	322.14933076332
5	121970	29771.940090146196	320.99918019879
5	121979	29773.16375292943	320.19599179338
5	122021	29781.728113883993	326.75593598145
5	122029	29784.1959565328	327.49951115755
5	122041	29785.330391372656	324.63499044177
5	122050	29786.425434454223	322.87215059804
5	122087	29794.524183236137	320.47564795553
5	122098	29797.514806524013	322.98913214512
5	122112	29799.188472691405	320.15920138654
5	122216	29818.939572686749	339.11513801442
5	122224	29820.280753778042	340.24241783119
5	122296	29837.696389507812	356.64680433921
5	122301	29840.828126509609	358.58787609244
5	122308	29841.768921585943	357.52934650535
5	122319	29843.617489768455	356.68048069421
5	122326	29844.54316202192	351.81382272153
5	122344	29846.581260174944	349.01591469058
5	122355	29847.985982903017	345.16062457626
5	122361	29849.016821801173	345.35938751829
5	122366	29849.602920297478	344.95846479644
5	122379	29851.811913775957	327.68254254498
5	122427	29861.101775598181	326.46039239054
5	122439	29864.88096308431	329.97519686534
5	122452	29865.79456750456	330.86901746245
5	122462	29867.229518150647	321.97124069938
5	122478	29873.355745815077	325.33475115275
5	122495	29875.337105288329	326.38265878613
5	122500	29876.943887874064	324.07699647485
5	122505	29877.481776783262	318.21292074259
5	122510	29878.73098152465	315.40392205428
5	122517	29882.547256148849	311.40216365938
5	122532	29895.188220849529	323.73662164718
5	122587	29910.620065706083	335.16789383146
5	122609	29912.604216750738	334.2379441216
5	122659	29921.987227574426	330.06719182858
5	122669	29923.929622674667	330.09893858742
5	122679	29924.820829401587	328.66435651474
5	122698	29933.860716310931	330.9618137035
5	122765	29947.487909088658	340.92900870525
5	122772	29949.492772276108	327.92684982362
5	122779	29951.078219244995	325.28877669008
5	122802	29956.298116651104	325.7073040796
5	122813	29960.620472501935	321.62225158321
5	122818	29961.460557612824	315.90083103462
5	122826	29964.222285046583	315.53266694113
5	122839	29965.586467960877	308.18632782004
5	122851	29975.10659200803	311.8881441912
5	122870	29984.19164703115	319.44079434444
5	122884	29988.091894564179	316.59724462724
5	122893	29989.712035393704	314.02812222718
5	122908	29991.743294103799	315.69832170173

