version 2
run Second-n2-0-20191016-17:03:15-14860
attr configname Second-n2
attr datetime 20191016-17:03:15
attr experiment Second-n2
attr inifile omnetpp.ini
attr iterationvars ""
attr iterationvarsf ""
attr measurement ""
attr network org.omnetpp.queueing.Pizza
attr processid 14860
attr repetition 0
attr replication ""
attr resultdir results
attr runnumber 0
attr seedset 0
param **.PS.maxInventoriedPS 2
param **.U1.interArrivalTime exponential(3s)
param **.U2.interArrivalTime exponential(5s)
param **.PS.serviceTimeForInventoryU1 exponential(1.0s)
param **.PS.serviceTimeForInventoryU2 exponential(1.2s)
param **.PS.serviceTimeDirectU1 exponential(1.4s)
param **.PS.serviceTimeDirectU2 exponential(1.4s)
param **.PS.probabilityProducing 0.7
param **.CS.serviceTimeU1 exponential(1.1s)
param **.CS.serviceTimeU2 exponential(1.4s)

vector 0 Pizza.EntryQueueU1 queueLength:vector ETV
attr interpolationmode sample-hold
attr title "queue length, vector"
vector 1 Pizza.CS queueLength:vector ETV
attr interpolationmode sample-hold
attr title "queue length, vector"
vector 2 Pizza.EntryQueueU2 queueLength:vector ETV
attr interpolationmode sample-hold
attr title "queue length, vector"
vector 3 Pizza.sink lifeTime:vector ETV
attr interpolationmode none
attr title "lifetime of arrived jobs, vector"
attr unit s
vector 4 Pizza.sink lifeTimeU1:vector ETV
attr interpolationmode none
attr title "lifetime of arrived jobs, vector"
attr unit s
vector 5 Pizza.sink lifeTimeU2:vector ETV
attr interpolationmode none
attr title "lifetime of arrived jobs, vector"
attr unit s
0	0	0	0
0	10	6.155415787839	1
0	12	7.057929870225	0
0	32	9.269893689831	1
0	36	12.746473319963	0
0	49	14.695001482656	1
0	52	15.519986821451	0
0	72	20.815944256482	1
0	73	23.123257786514	0
0	89	26.001879353221	1
0	90	26.548857499849	0
0	99	26.734024825431	1
0	102	27.470220765822	0
0	110	29.618167642628	1
0	111	30.073240784308	0
0	121	31.411405873083	1
0	123	33.255952845244	0
0	136	34.587908267546	1
0	137	35.054183460407	0
0	149	35.767245939458	1
0	150	35.839929353712	0
0	179	41.2229344137	1
0	182	41.291779612035	0
0	188	41.669071221456	1
0	189	41.797794965549	0
0	196	44.927879364091	1
0	198	45.230983690018	2
0	199	45.278871413924	1
0	204	45.974441669959	0
0	239	55.951748807051	1
0	243	58.45027935525	2
0	244	58.838112748006	1
0	250	59.375523875543	2
0	253	59.671474800798	3
0	255	59.931786247817	4
0	257	61.572253340681	3
0	264	62.783183841781	2
0	269	64.808594560417	1
0	274	65.031180042841	0
0	299	67.879554033846	1
0	303	68.900594248552	2
0	304	68.954178976055	1
0	311	72.646036064463	0
0	317	73.133667476435	1
0	320	73.899604824349	0
0	326	74.911539558792	1
0	327	75.22206724832	0
0	331	75.282119500878	1
0	334	76.271816057434	0
0	345	79.652575176571	1
0	350	83.05795921396	0
0	391	91.522234890977	1
0	392	92.124870915342	0
0	404	94.203422125894	1
0	408	95.364812402341	2
0	409	95.560417812648	1
0	414	95.672970488986	0
0	447	111.340971221662	1
0	449	111.88858702731	2
0	453	112.285138156154	3
0	454	112.433144657458	2
0	459	113.016147823408	1
0	466	113.591304856505	0
0	513	122.330610359853	1
0	517	123.601581663923	2
0	520	126.308540801591	1
0	526	127.992455150485	0
0	539	131.498238251569	1
0	541	134.908027737341	2
0	542	136.085385481404	1
0	549	137.209266701058	2
0	552	137.614030251557	1
0	557	137.87665841169	0
0	595	147.223069702619	1
0	596	147.747546087083	0
0	656	157.540790241013	1
0	657	157.594696008786	0
0	700	174.497618207242	1
0	702	174.872715977012	2
0	703	175.33485394379	1
0	708	175.490660182065	0
0	729	178.930830451277	1
0	730	178.979592125603	0
0	736	179.023609325959	1
0	738	179.31511236106	2
0	739	180.498651530837	1
0	746	182.020299643603	0
0	771	186.336588243032	1
0	772	189.235465652916	0
0	788	191.706557056475	1
0	793	194.312254250872	2
0	798	195.05150171751	3
0	799	195.327686273707	2
0	807	198.44799048642	1
0	813	199.804158995754	0
0	820	201.384168040658	1
0	821	201.851733803034	0
0	832	202.032456690441	1
0	837	202.513458973901	2
0	838	204.64224003879	1
0	843	206.3100941444	0
0	877	215.119037252644	1
0	880	219.540391376883	0
0	886	219.784920333708	1
0	889	220.038658808994	2
0	890	220.101381294117	1
0	895	220.392078804666	0
0	909	221.607561769961	1
0	911	222.697288426666	2
0	915	223.174087965634	3
0	917	223.42267478439	4
0	919	224.288212915434	5
0	921	224.569836557282	6
0	922	224.825220557808	5
0	927	225.134896982526	4
0	933	226.669252982915	3
0	938	227.193379423773	2
0	942	227.963972860095	3
0	944	228.268575111919	4
0	949	229.214055198066	5
0	951	229.997165439143	4
0	957	230.290939153196	5
0	959	230.667136339999	4
0	966	232.521688728525	5
0	967	232.773462823406	4
0	972	232.993303915119	3
0	977	233.092674883609	2
0	982	233.429177011285	1
0	988	234.226200179752	2
0	991	235.75678641005	1
0	996	236.422844394854	0
0	1008	238.733438560884	1
0	1010	238.870352709371	2
0	1011	239.493237053893	1
0	1016	239.581323795431	0
0	1030	242.638033162392	1
0	1034	243.211921300087	2
0	1036	245.146646773585	3
0	1038	245.254655262833	4
0	1042	247.106961642443	3
0	1050	248.260079657895	2
0	1055	248.434992876374	1
0	1063	249.847200519663	2
0	1065	250.262960983932	3
0	1071	253.492485291236	2
0	1079	255.264950490269	1
0	1084	255.876175294743	0
0	1088	257.29268077421	1
0	1093	257.952733512692	0
0	1097	259.215601410002	1
0	1099	259.297927711293	2
0	1105	261.53424640678	1
0	1111	262.304274606507	0
0	1117	262.330235200591	1
0	1118	263.201895026868	0
0	1126	264.163407884448	1
0	1127	264.414679657241	0
0	1137	270.12722624898	1
0	1138	272.193225583125	0
0	1145	273.101064766258	1
0	1146	275.473183206184	0
0	1180	281.382878133308	1
0	1183	282.137911314518	0
0	1196	283.688265865481	1
0	1198	283.861044615932	2
0	1200	285.047741417118	3
0	1204	285.319263827563	4
0	1208	286.437132650577	3
0	1213	287.053141861241	2
0	1220	287.918356862322	1
0	1226	289.540221309584	0
0	1238	290.807890295139	1
0	1242	291.649618073671	2
0	1244	291.789822778877	3
0	1247	293.367915166157	4
0	1249	293.901545439726	5
0	1250	298.128534535909	4
0	1255	298.86987232455	3
0	1261	299.2443494644	4
0	1262	299.374803044786	3
0	1266	299.446951935031	4
0	1269	299.980246588022	3
0	1274	300.894207822053	2
0	1281	304.033768547167	3
0	1282	304.166838244459	2
0	1287	304.78099771265	1
0	1293	305.689174912082	2
0	1295	306.728985837006	1
0	1299	307.296871298101	2
0	1308	312.145284485045	1
0	1314	312.589133474667	2
0	1316	315.562038598841	1
0	1321	316.8759775367	0
0	1325	317.65078834094	1
0	1330	320.4747662002	0
0	1356	324.471909841003	1
0	1364	327.463806613503	2
0	1368	328.091260474928	1
0	1373	328.298681671604	0
0	1379	328.640290482371	1
0	1380	328.6851350813	0
0	1384	329.729527002923	1
0	1390	333.199843212246	0
0	1404	335.212105806373	1
0	1408	335.95149299452	0
0	1445	345.534937949129	1
0	1446	345.80195947069	0
0	1466	348.226096991446	1
0	1468	349.767153831238	2
0	1470	349.844637964515	3
0	1472	350.701344726024	4
0	1475	354.683282791748	3
0	1481	355.196833569668	2
0	1488	356.277614746663	1
0	1494	357.270284869698	2
0	1503	360.034032139338	1
0	1509	360.82423455807	0
0	1521	363.218722610519	1
0	1524	363.906674125429	2
0	1527	365.206478017287	1
0	1532	365.383010535381	0
0	1552	366.963533668658	1
0	1556	368.689473589793	0
0	1573	374.6209631493	1
0	1577	375.327180748814	2
0	1579	375.696068449478	3
0	1581	376.010205269766	4
0	1585	378.592349392308	5
0	1586	379.59088201248	4
0	1593	380.915899756113	5
0	1595	380.924020379849	6
0	1599	381.696774978873	7
0	1600	382.86141118591	6
0	1606	383.516912206606	7
0	1607	383.838792769468	6
0	1612	383.85750995557	5
0	1621	387.246476538329	4
0	1628	388.900931548597	5
0	1629	390.01835410156	4
0	1634	390.825611065285	3
0	1640	391.24658481791	4
0	1644	391.532438266527	5
0	1647	392.30781601268	6
0	1648	392.633299624011	5
0	1656	394.631657221748	6
0	1659	395.031322115882	5
0	1666	397.290779848132	4
0	1672	397.525156507028	5
0	1674	397.911792445153	6
0	1675	398.148268379846	5
0	1680	398.520553625945	4
0	1685	403.487718225706	3
0	1691	403.957658967518	2
0	1696	404.350046845459	1
0	1702	405.61559033126	2
0	1707	407.964629742095	1
0	1711	408.218855760078	2
0	1713	410.827701842589	3
0	1717	411.351585232029	4
0	1718	411.752900504789	3
0	1722	413.092453995979	4
0	1726	413.331164461258	5
0	1728	414.183823691843	6
0	1731	415.788990496536	5
0	1738	416.497087782973	4
0	1743	416.725561397806	3
0	1750	417.553608015049	2
0	1755	418.06528882369	1
0	1762	419.846799019856	0
0	1774	420.507164767053	1
0	1775	420.543653148419	0
0	1783	421.177961942057	1
0	1784	421.571691606403	0
0	1798	423.12619412244	1
0	1801	424.955480641014	2
0	1805	426.190582374632	3
0	1806	426.362294209884	2
0	1812	426.843807611609	1
0	1818	428.005892705208	0
0	1843	436.76003639832	1
0	1847	439.25081833862	2
0	1849	439.612193141927	3
0	1850	439.721254083971	2
0	1855	439.815436957493	1
0	1860	439.886588923153	0
0	1870	443.20664730546	1
0	1873	444.203088952587	0
0	1887	447.656167529565	1
0	1890	452.695491474489	0
0	1894	453.310761372179	1
0	1897	458.961833712404	0
0	1903	459.98210981943	1
0	1904	460.565037918878	0
0	1908	460.610803276607	1
0	1912	462.174651728123	0
0	1932	467.481574936307	1
0	1936	469.313837460902	2
0	1937	469.70377436838	1
0	1942	469.819620229502	0
0	1989	481.044259769863	1
0	1990	482.024137524223	0
0	1999	482.219313389509	1
0	2001	483.777074564151	2
0	2006	485.203307091862	1
0	2011	485.331227925305	0
0	2029	488.262767918538	1
0	2031	488.351642175428	2
0	2033	488.355267081062	3
0	2034	488.443913491381	2
0	2040	490.651884327885	3
0	2050	497.640599766111	2
0	2055	499.042936363916	1
0	2060	499.320290007992	0
0	2078	500.184176192283	1
0	2079	500.375887001627	0
0	2085	500.387743826427	1
0	2086	500.883235356994	0
0	2092	500.918385944793	1
0	2099	503.546705668082	0
0	2111	505.372828166937	1
0	2112	506.070937189875	0
0	2129	509.543996148617	1
0	2134	512.595750279769	0
0	2145	515.864372526257	1
0	2147	516.349117989283	0
0	2165	518.948988481118	1
0	2166	519.199607896311	0
0	2172	519.256726260809	1
0	2173	519.336954839934	0
0	2187	520.767004607172	1
0	2190	521.93703761804	0
0	2201	523.6139636475	1
0	2202	523.893094027574	0
0	2211	525.73957187382	1
0	2212	525.884216140182	0
0	2218	526.672248063132	1
0	2220	526.772612340512	2
0	2222	528.167869571757	3
0	2223	528.192916411614	2
0	2231	529.8329647477	3
0	2232	532.420962383074	2
0	2239	532.928726856451	3
0	2240	533.067810575919	2
0	2246	534.157608336695	3
0	2247	534.707084571266	2
0	2254	540.003252370971	1
0	2264	542.860335460247	2
0	2265	544.389478326761	1
0	2272	546.330433329344	2
0	2273	546.817431490489	1
0	2279	546.875170982327	2
0	2282	549.634304796733	1
0	2290	550.709429863993	2
0	2292	551.306857522735	1
0	2302	555.226983293235	2
0	2303	555.364176695768	1
0	2308	555.483027369328	0
0	2337	560.33877810649	1
0	2341	561.442788333617	0
0	2372	568.428382668251	1
0	2375	568.766373402748	0
0	2387	572.132044277594	1
0	2391	572.584346273783	0
0	2410	575.442020185694	1
0	2411	575.60263880174	0
0	2418	576.989665353273	1
0	2419	577.027641132059	0
0	2438	580.38983013416	1
0	2442	581.117567010787	2
0	2443	581.476333791774	1
0	2448	581.664490792719	0
0	2477	586.980493325881	1
0	2478	588.317300568084	0
0	2491	588.810705699709	1
0	2492	589.547312995269	0
0	2501	591.476817782545	1
0	2507	593.058324151635	2
0	2508	593.214143832918	1
0	2512	594.384123718253	2
0	2518	596.479830333005	1
0	2530	602.388346448787	0
0	2552	605.210088769043	1
0	2554	607.852811620871	2
0	2556	608.332618432479	3
0	2562	609.210202651249	4
0	2565	611.956457514348	3
0	2571	612.257340670418	4
0	2572	612.445845830232	3
0	2578	612.872949125404	4
0	2580	613.419584359349	3
0	2588	614.057725001678	4
0	2589	614.079911979842	3
0	2595	615.384175517464	4
0	2597	615.525493029929	5
0	2598	616.023185694526	4
0	2606	617.26603714908	3
0	2611	617.730680943423	2
0	2619	619.426360456026	3
0	2621	619.884088900446	4
0	2623	621.599109464442	3
0	2630	622.963207162949	2
0	2636	624.030939485579	1
0	2642	626.24833869635	0
0	2680	637.782795999706	1
0	2684	638.361264966107	2
0	2685	639.226740487027	1
0	2690	639.291155220182	0
0	2723	645.2650250642	1
0	2727	647.255590119003	2
0	2729	647.585298444569	3
0	2730	648.782605609146	2
0	2738	650.011949510421	3
0	2739	650.229548350961	2
0	2745	650.851219917597	3
0	2746	651.861167569096	2
0	2751	653.340813623747	1
0	2758	654.832285982977	0
0	2764	654.906760488293	1
0	2765	655.150885250698	0
0	2774	655.969026888582	1
0	2779	658.126917205406	2
0	2786	659.408660054322	3
0	2790	660.609121270084	2
0	2796	660.91739730436	3
0	2797	661.157238969017	2
0	2803	662.145715242368	3
0	2805	662.897813684335	2
0	2811	666.904794341156	1
0	2817	667.211148726441	2
0	2818	667.282837264648	1
0	2823	667.815855013983	0
0	2835	670.832362209148	1
0	2836	671.231877161394	0
0	2842	671.578145781965	1
0	2844	671.932794367072	2
0	2846	672.921328513752	1
0	2852	673.339911194855	0
0	2864	673.962204006679	1
0	2866	675.181681709373	2
0	2869	675.764254645716	3
0	2870	676.381280080802	2
0	2878	677.525870759609	3
0	2880	677.761593440478	4
0	2883	678.790112618059	5
0	2887	679.878077657183	6
0	2889	682.560677627828	7
0	2891	684.731452932116	8
0	2892	685.798400166045	7
0	2897	685.95965553785	6
0	2904	687.328893824521	5
0	2909	689.904595749088	4
0	2916	691.945601509115	3
0	2920	692.373806684792	4
0	2924	693.09557376806	5
0	2926	693.132311284589	6
0	2928	693.230053245343	7
0	2929	693.33429247947	6
0	2934	694.200065734537	5
0	2938	694.399549984897	6
0	2942	696.003178616488	5
0	2947	696.721878430423	4
0	2954	698.404679237875	5
0	2956	698.435023264749	6
0	2957	699.595916063456	5
0	2963	699.80329856193	6
0	2968	700.952923668819	5
0	2972	702.170815059204	6
0	2974	702.761180457566	7
0	2979	704.22395368199	6
0	2987	704.963596906563	7
0	2988	705.077689177367	6
0	2999	705.748799509791	5
0	3007	711.044257777789	6
0	3011	711.833740467606	7
0	3012	713.341499425388	6
0	3018	713.854422838996	7
0	3019	714.407289868569	6
0	3026	717.670941828359	5
0	3033	718.893012509357	4
0	3038	719.118506980818	3
0	3042	719.348541779307	4
0	3047	719.963169032866	3
0	3052	721.100757395511	2
0	3057	721.418986656498	1
0	3064	723.520983867307	0
0	3116	735.777498333519	1
0	3118	737.379568355694	2
0	3119	737.825866778264	1
0	3125	738.267169977254	2
0	3126	738.488295901719	1
0	3136	739.062086384407	2
0	3138	739.350720866916	3
0	3140	741.405265589671	2
0	3145	741.411122207914	1
0	3151	742.289613921395	0
0	3162	743.012532482496	1
0	3163	743.82195240109	0
0	3176	748.889574843927	1
0	3177	748.915945574231	0
0	3181	749.506582203813	1
0	3185	752.641686679944	0
0	3191	753.03476138546	1
0	3193	753.763862747438	0
0	3205	756.968077776444	1
0	3211	760.023243339552	0
0	3217	760.304224435514	1
0	3219	761.173784742286	2
0	3222	762.712876265422	1
0	3230	763.404436204225	2
0	3232	763.596566758435	3
0	3233	764.871804532639	2
0	3240	766.58449710959	1
0	3245	766.722391858513	0
0	3261	770.085606355601	1
0	3265	772.779257694487	0
0	3301	782.706536216473	1
0	3306	787.268362772021	0
0	3315	789.807312635936	1
0	3317	790.48085617219	2
0	3318	791.871478113538	1
0	3323	792.367931857674	0
0	3329	793.470364993532	1
0	3332	794.277388616583	0
0	3346	796.244263752839	1
0	3347	796.296919139247	0
0	3360	797.447669801516	1
0	3361	797.616622530857	0
0	3389	801.359698280534	1
0	3392	802.294404477513	0
0	3400	803.477440802066	1
0	3404	803.909297881629	0
0	3416	804.83266742061	1
0	3417	804.887323842629	0
0	3465	818.041410593374	1
0	3468	820.50809009697	0
0	3476	820.920105528919	1
0	3477	821.822714391197	0
0	3484	822.400774844851	1
0	3485	822.817505764063	0
0	3491	822.837754839357	1
0	3492	823.177595566623	0
0	3506	830.624399157461	1
0	3510	833.874745034703	0
0	3518	834.305834930191	1
0	3523	835.737748113163	0
0	3549	841.578428192374	1
0	3550	841.958857567414	0
0	3556	842.838280326189	1
0	3559	844.124025451607	0
0	3571	845.752046718097	1
0	3572	846.852692072764	0
0	3589	850.596527101545	1
0	3591	850.785002197535	2
0	3593	851.343338591109	3
0	3594	851.488392930219	2
0	3599	853.120735143948	1
0	3609	856.437273099761	0
0	3616	857.852654413961	1
0	3618	858.694057326348	2
0	3621	859.500509780433	1
0	3627	859.599758369768	2
0	3628	859.609944206768	1
0	3632	860.282798326339	2
0	3639	862.661447768228	1
0	3643	862.78908531872	2
0	3646	862.84008250649	1
0	3650	863.238532100717	2
0	3655	864.751797867003	1
0	3659	864.897925764076	2
0	3661	865.167025794299	3
0	3664	866.245969884385	2
0	3668	866.489245334965	3
0	3672	867.045750835844	4
0	3676	867.362108228014	3
0	3681	867.759574149476	2
0	3686	869.728178333445	1
0	3691	870.407537531115	0
0	3716	877.111124224632	1
0	3722	879.635575929652	0
0	3744	884.293036629553	1
0	3745	885.470312157449	0
0	3751	885.627668524474	1
0	3752	885.886517735223	0
0	3762	888.68105438513	1
0	3763	888.693993692457	0
0	3771	889.268842416945	1
0	3772	889.758491234392	0
0	3778	889.771932062789	1
0	3781	891.533274031118	0
0	3797	892.183768441763	1
0	3798	892.214218949353	0
0	3846	904.40564979903	1
0	3847	904.860760528406	0
0	3878	915.691543376497	1
0	3880	915.857236630204	2
0	3883	917.428763608526	1
0	3892	918.94896597015	2
0	3893	919.326738835705	1
0	3899	919.449193633542	2
0	3902	923.065038638638	1
0	3907	923.5578578635	0
0	3914	924.170224186	1
0	3920	928.161597562808	0
0	3935	929.373046742232	1
0	3938	930.547965545672	2
0	3939	932.747489731874	1
0	3948	935.203802840923	2
0	3951	937.19414047891	1
0	3957	937.36341441825	2
0	3958	937.484955989798	1
0	3964	938.244196416548	0
0	3985	941.748986368058	1
0	3989	942.984968096075	0
0	4006	946.307679856099	1
0	4010	947.734071562828	2
0	4013	949.447708496994	1
0	4018	949.958196854039	0
0	4027	950.489954595271	1
0	4035	955.523482961322	2
0	4036	956.403343733255	1
0	4044	957.75046043429	2
0	4045	957.883571039507	1
0	4051	959.639163364048	0
0	4071	967.181109184976	1
0	4077	967.44364268473	2
0	4079	969.40785437389	3
0	4081	970.152703023906	4
0	4089	971.878556448785	3
0	4094	972.525190106522	2
0	4100	973.224900595026	1
0	4105	973.69009182243	0
0	4125	977.624944832194	1
0	4131	980.708570731482	2
0	4132	980.808118396884	1
0	4138	981.217728421145	2
0	4140	982.401432624031	1
0	4144	982.451036096444	2
0	4148	983.77294896554	1
0	4155	986.611908758198	0
0	4172	988.129152022956	1
0	4173	988.166562385706	0
0	4182	989.213875371963	1
0	4184	990.115570408284	2
0	4187	990.703761744661	1
0	4191	992.369933844231	2
0	4193	992.795681225254	3
0	4195	993.046755002103	4
0	4197	993.690928384306	5
0	4199	994.154155005458	6
0	4203	997.624155229775	7
0	4205	997.776455782023	8
0	4207	998.488569499732	9
0	4209	998.810839477915	10
0	4211	998.948750735095	11
0	4213	999.380963418989	12
0	4217	1003.457214954541	11
0	4222	1004.027260747075	10
0	4226	1005.287070629186	11
0	4228	1005.48907705809	12
0	4230	1007.779643858818	13
0	4234	1011.510015248024	14
0	4237	1012.867850700206	13
0	4241	1014.040769041364	14
0	4247	1015.617438949471	15
0	4248	1017.448654446331	14
0	4254	1017.772762384365	15
0	4256	1018.621452298276	16
0	4258	1020.458079010012	15
0	4263	1021.198078625686	14
0	4271	1022.822555852964	13
0	4278	1023.600450087569	12
0	4283	1024.651203306513	11
0	4289	1025.103792929612	12
0	4290	1025.53769569816	11
0	4297	1026.791131908957	10
0	4306	1030.520991472557	11
0	4307	1031.29471454902	10
0	4312	1032.143994897403	9
0	4319	1032.692531067494	8
0	4323	1032.76433400788	9
0	4326	1033.175414527507	8
0	4333	1035.905591936496	7
0	4339	1039.096014600219	6
0	4344	1040.320647636553	5
0	4353	1043.284808949233	4
0	4362	1045.065539063854	5
0	4365	1046.561995730921	6
0	4367	1047.064163986136	7
0	4368	1047.238072910961	6
0	4374	1047.957032864533	5
0	4379	1048.202324525663	4
0	4384	1048.581217662289	3
0	4390	1049.233542927081	4
0	4395	1049.840168533507	3
0	4399	1053.032354200477	4
0	4404	1056.063068978696	5
0	4405	1056.283733185081	4
0	4412	1057.470268327123	5
0	4413	1057.520252176092	4
0	4418	1058.010228499986	3
0	4423	1059.81596205427	2
0	4427	1060.687892817507	3
0	4429	1062.153805921159	4
0	4431	1062.246502947328	5
0	4441	1066.521485030869	6
0	4443	1068.29755583742	7
0	4444	1069.520162297124	6
0	4450	1069.569272010821	7
0	4451	1069.747803923706	6
0	4457	1070.321679807707	7
0	4462	1073.656041936072	6
0	4467	1074.536832780335	5
0	4473	1078.283164739018	6
0	4474	1078.86601743769	5
0	4482	1080.278563787148	6
0	4483	1080.3523817286	5
0	4488	1082.090158273964	4
0	4493	1082.332651332006	3
0	4497	1082.960668032739	4
0	4500	1083.729792895097	3
0	4504	1083.976085329404	4
0	4506	1084.372553281799	5
0	4508	1085.517477625744	6
0	4511	1087.297026892767	5
0	4516	1091.106881566007	4
0	4522	1091.409919484788	5
0	4524	1091.792483759349	6
0	4526	1092.729225712616	5
0	4531	1092.908449250916	4
0	4536	1095.597288535187	3
0	4540	1096.208616596561	4
0	4548	1102.010255115859	3
0	4555	1103.66703920528	2
0	4561	1103.906668323191	3
0	4562	1105.141027501434	2
0	4568	1105.352128458883	3
0	4569	1108.144035705647	2
0	4577	1109.790801588793	1
0	4585	1110.178424401576	2
0	4586	1110.214091949171	1
0	4593	1112.009616507755	2
0	4594	1112.397110557565	1
0	4602	1113.61807407135	0
0	4610	1114.657294716189	1
0	4611	1114.8752907191	0
0	4617	1115.912869151886	1
0	4618	1116.926664440071	0
0	4622	1117.518513735602	1
0	4626	1117.927687782633	2
0	4628	1118.112541484823	3
0	4629	1119.361409550901	2
0	4634	1120.123891164961	1
0	4639	1125.182643315809	0
0	4663	1129.653282669036	1
0	4664	1130.362767355043	0
0	4686	1134.301535776879	1
0	4688	1135.196033061013	2
0	4690	1135.316007271964	3
0	4691	1136.81195785853	2
0	4697	1138.496480654117	1
0	4703	1139.360056399016	2
0	4705	1140.63256020792	1
0	4709	1140.839441208502	2
0	4712	1142.954458991764	1
0	4717	1144.492106697266	0
0	4760	1152.43069987755	1
0	4762	1153.772538031715	2
0	4764	1155.363717804398	3
0	4768	1155.958728090925	4
0	4769	1156.687720796708	3
0	4774	1157.288791028737	2
0	4781	1158.465300046561	1
0	4787	1160.3972034984	0
0	4808	1164.556118735411	1
0	4812	1165.090857533256	2
0	4815	1166.343229802568	1
0	4823	1168.408403617453	0
0	4829	1168.67121588202	1
0	4831	1169.439025280244	2
0	4833	1169.857432630989	1
0	4840	1171.846466831513	0
0	4872	1176.063893486288	1
0	4874	1176.328054112827	2
0	4875	1178.45638088257	1
0	4880	1178.49555862197	0
0	4895	1181.183730238421	1
0	4897	1181.427337019637	2
0	4901	1184.694935813181	1
0	4906	1184.990999404892	0
0	4910	1186.499459390116	1
0	4912	1186.997966357893	2
0	4916	1190.209275262128	3
0	4923	1191.872631802196	2
0	4929	1192.189519032404	1
0	4934	1194.435304513159	0
0	4940	1194.459175277677	1
0	4941	1195.343560566896	0
0	4945	1195.851453590826	1
0	4948	1196.812498023813	0
0	4966	1199.230223136155	1
0	4969	1201.676787749818	0
0	5002	1208.257289449499	1
0	5004	1208.673805532601	2
0	5015	1210.987270182363	1
0	5023	1211.878872569899	0
0	5032	1214.419433547235	1
0	5034	1217.724094916342	2
0	5036	1218.190754822352	3
0	5039	1218.379081823145	2
0	5045	1218.45465121782	3
0	5054	1219.973334778647	2
0	5059	1220.881588827028	1
0	5066	1222.028997909738	2
0	5067	1222.497618055442	1
0	5072	1222.555757229671	0
0	5086	1225.824975620067	1
0	5090	1226.870164460146	2
0	5092	1226.88131447417	3
0	5093	1227.757736873713	2
0	5099	1227.942790045267	1
0	5104	1228.266988839394	0
0	5108	1228.434470206031	1
0	5112	1229.794341952765	0
0	5150	1234.913096355533	1
0	5154	1236.092219380262	2
0	5155	1236.292189994019	1
0	5161	1237.111591779949	0
0	5167	1237.566921978843	1
0	5168	1238.094952758432	0
0	5182	1242.685134578462	1
0	5186	1243.628162330357	2
0	5187	1244.225479703519	1
0	5193	1244.350336139943	0
0	5216	1247.95912421429	1
0	5217	1248.736871885468	0
0	5223	1249.084033077264	1
0	5224	1249.458960040096	0
0	5266	1258.632557957037	1
0	5267	1258.705529139055	0
0	5274	1259.221336117822	1
0	5275	1259.268339657493	0
0	5286	1260.874723588855	1
0	5287	1262.097299909706	0
0	5293	1263.881403842358	1
0	5296	1265.249824097417	2
0	5297	1266.36398852158	1
0	5306	1267.972262167276	0
0	5314	1269.615719618603	1
0	5315	1269.636917070884	0
0	5321	1269.798230141345	1
0	5322	1271.469419857389	0
0	5326	1271.674013933371	1
0	5329	1274.702967953845	0
0	5352	1281.516905178343	1
0	5354	1284.355543570663	2
0	5356	1285.124854732463	3
0	5361	1287.484534562036	2
0	5367	1287.734640859509	3
0	5371	1287.820959652489	4
0	5373	1288.387456377338	3
0	5378	1289.729316122599	2
0	5384	1290.278780457856	3
0	5388	1292.595133816858	2
0	5394	1298.770257225911	1
0	5400	1299.646870722463	2
0	5402	1299.872862862661	1
0	5408	1300.527301801097	0
0	5444	1313.200568580538	1
0	5448	1316.128030715715	0
0	5464	1318.780561690028	1
0	5465	1319.554930635181	0
0	5482	1322.369849635984	1
0	5485	1323.855756276733	0
0	5495	1324.522276420616	1
0	5498	1325.379738013769	0
0	5509	1331.165427860024	1
0	5513	1332.443116990299	0
0	5529	1334.264986029439	1
0	5531	1334.638758372988	2
0	5533	1334.892341451481	3
0	5535	1336.213703727773	4
0	5538	1336.50317920283	3
0	5543	1337.114491771293	2
0	5549	1338.179763511561	3
0	5550	1339.686287229294	2
0	5564	1346.052575274296	1
0	5569	1346.609486245731	0
0	5580	1347.487321133361	1
0	5585	1348.252004052776	2
0	5586	1348.826971776146	1
0	5590	1349.439776474701	2
0	5592	1349.772015485704	3
0	5594	1350.135849951174	4
0	5596	1350.397529717158	5
0	5599	1353.213390092193	4
0	5606	1355.443863919213	3
0	5612	1355.449972959598	4
0	5614	1355.807645097656	5
0	5618	1357.310312313143	4
0	5623	1357.497974641881	3
0	5629	1358.397085484322	2
0	5635	1358.610861358742	3
0	5637	1358.690883169745	4
0	5638	1359.949063513159	3
0	5643	1363.815428432756	2
0	5647	1363.831231368741	3
0	5649	1364.889814237056	4
0	5652	1365.785992859269	3
0	5658	1367.044281042341	4
0	5659	1367.30394374551	3
0	5667	1370.071734292405	2
0	5672	1370.443043370422	1
0	5677	1370.812332527031	0
0	5687	1374.732793359812	1
0	5691	1375.622728254085	0
0	5723	1382.686769781458	1
0	5725	1385.712924703713	2
0	5727	1385.843180824607	3
0	5728	1386.107566856249	2
0	5734	1386.636344220542	1
0	5740	1386.866484403925	0
0	5756	1389.274031838454	1
0	5759	1391.748757820444	0
0	5765	1392.135719560476	1
0	5769	1392.637224482427	2
0	5771	1393.058235856947	3
0	5773	1393.076904076182	4
0	5774	1393.187442376401	3
0	5780	1393.853732730561	4
0	5781	1394.022875280349	3
0	5788	1394.697306448207	4
0	5789	1395.159905380841	3
0	5795	1396.660791113242	4
0	5798	1397.066077615077	5
0	5799	1398.054232396853	4
0	5808	1399.35500459942	5
0	5810	1399.756153079052	6
0	5812	1401.11516583045	7
0	5815	1405.00555935746	6
0	5820	1405.413145859079	5
0	5825	1406.298090927089	4
0	5830	1407.31189991742	3
0	5836	1411.105405513555	4
0	5839	1413.147677778466	3
0	5844	1413.234161921362	2
0	5851	1413.913603722226	1
0	5859	1414.627393183109	2
0	5862	1417.969980488103	1
0	5868	1419.899728106186	0
0	5893	1426.420257660635	1
0	5894	1426.632757132848	0
0	5906	1428.599520537453	1
0	5910	1429.170073341073	2
0	5913	1430.955986926584	1
0	5918	1431.027456908187	0
0	5941	1435.413192438463	1
0	5943	1437.634890045918	2
0	5948	1438.973568507861	1
0	5954	1439.003557495003	2
0	5959	1439.92072872464	1
0	5967	1440.532938815449	0
0	5986	1444.551939639008	1
0	5989	1444.89446214086	0
0	6021	1448.849963376403	1
0	6022	1450.679727700412	0
0	6032	1453.326771420076	1
0	6034	1455.994484796279	2
0	6036	1455.999272318021	3
0	6045	1459.094747596136	4
0	6046	1459.652503827381	3
0	6055	1461.748557021285	4
0	6058	1463.894594180744	3
0	6064	1463.896279468187	4
0	6067	1465.478452951745	5
0	6069	1465.75770097629	4
0	6075	1466.244612350102	5
0	6078	1468.924963395592	4
0	6084	1469.220207067567	5
0	6087	1469.722913102804	4
0	6092	1470.118191027212	3
0	6100	1473.099070241301	2
0	6106	1473.616205771018	3
0	6111	1474.658970327578	2
0	6116	1475.763776106843	1
0	6121	1476.962108488754	0
0	6155	1483.119232708326	1
0	6160	1484.415349150585	0
0	6176	1485.311358135724	1
0	6177	1486.27426250029	0
0	6187	1486.69259158968	1
0	6191	1489.259521647235	2
0	6192	1489.306304947689	1
0	6199	1491.542005231749	2
0	6202	1493.09983005153	1
0	6210	1494.076683670867	0
0	6226	1497.564520187347	1
0	6227	1497.720894959621	0
0	6241	1500.189520186448	1
0	6242	1500.220680793271	0
0	6256	1503.974273061248	1
0	6257	1506.722248073054	0
0	6265	1508.058552712421	1
0	6269	1509.37583471146	2
0	6271	1509.510395121868	3
0	6272	1510.473153262972	2
0	6277	1510.770973661856	1
0	6286	1511.920028635646	0
0	6292	1512.816480527772	1
0	6294	1513.261393499464	2
0	6295	1513.809134852795	1
0	6301	1514.048504671573	2
0	6306	1515.282848536663	1
0	6313	1517.173431577597	2
0	6316	1517.910682003518	1
0	6322	1518.751358526351	2
0	6325	1520.447695526843	3
0	6326	1522.925330765947	2
0	6331	1523.043698421716	1
0	6336	1524.749203423981	0
0	6352	1528.014772444436	1
0	6354	1528.231336509273	0
0	6372	1531.877624116185	1
0	6373	1532.319721291198	0
0	6382	1533.595361716352	1
0	6384	1534.359176634137	2
0	6389	1535.528424408029	3
0	6390	1535.977737648499	2
0	6395	1536.592597652261	1
0	6399	1536.940250208164	2
0	6404	1541.352667426125	1
0	6408	1543.327825282282	2
0	6411	1545.104475729509	1
0	6416	1545.716232960191	0
0	6420	1546.004668517905	1
0	6423	1547.179188396565	0
0	6429	1547.920450280648	1
0	6431	1549.406742543655	0
0	6442	1551.948216399416	1
0	6446	1555.200247011634	2
0	6447	1555.935016174111	1
0	6453	1556.788488660833	0
0	6461	1557.54413014225	1
0	6463	1557.830426484908	0
0	6470	1561.402099379125	1
0	6471	1561.829988053687	0
0	6491	1567.290524904586	1
0	6493	1568.7636238336	2
0	6500	1570.096612507071	1
0	6507	1570.799533431395	0
0	6516	1571.769575417898	1
0	6520	1573.21918778593	2
0	6522	1573.429269367069	3
0	6529	1576.580453374011	4
0	6530	1577.023620091931	3
0	6535	1577.156524149611	2
0	6539	1578.863893242439	3
0	6541	1579.186888516414	4
0	6544	1580.148971317279	3
0	6552	1581.756739990631	4
0	6553	1581.847579466747	3
0	6559	1583.827947581262	2
0	6566	1584.534118950366	3
0	6571	1586.162034907033	4
0	6573	1586.372838227555	5
0	6574	1586.940261592755	4
0	6579	1587.217484012186	3
0	6585	1588.994891915295	2
0	6592	1589.595819284157	1
0	6598	1589.826817296102	2
0	6602	1591.32017305551	1
0	6607	1591.331879435351	0
0	6613	1591.63389429238	1
0	6615	1592.250772858681	2
0	6616	1595.017265235261	1
0	6624	1595.8004336323	0
0	6646	1602.063116934621	1
0	6650	1602.727691595627	0
0	6662	1604.093663289857	1
0	6665	1605.537640833621	0
0	6677	1607.408603748305	1
0	6678	1607.444111076087	0
0	6705	1617.642848878471	1
0	6708	1621.506985726853	0
0	6721	1624.981943763099	1
0	6722	1625.730184361386	0
0	6764	1636.674179711773	1
0	6770	1640.664152894412	2
0	6774	1643.705527223285	1
0	6779	1644.132434535916	0
0	6804	1648.390418504558	1
0	6810	1651.070973891314	2
0	6811	1651.370530453946	1
0	6816	1651.832226689907	0
0	6840	1654.93666505805	1
0	6842	1655.3199329186	0
0	6848	1655.336561422267	1
0	6850	1655.806813713706	2
0	6855	1657.435271878917	3
0	6856	1657.824899417455	2
0	6863	1659.535955340729	3
0	6864	1661.338483461257	2
0	6869	1661.44339756279	1
0	6874	1662.041647718862	0
0	6880	1663.212267904223	1
0	6881	1663.800256223371	0
0	6929	1671.684601680734	1
0	6931	1672.010878036279	2
0	6935	1674.553253745066	3
0	6936	1677.422444599441	2
0	6942	1677.613878509743	1
0	6947	1677.710917813886	0
0	6953	1678.512697031681	1
0	6954	1679.349103584136	0
0	6972	1682.252535697897	1
0	6974	1682.25524677505	2
0	6979	1683.398493890781	1
0	6984	1683.717179785746	0
0	7000	1690.250108305432	1
0	7005	1692.042864099055	2
0	7009	1693.150880228368	1
0	7014	1693.867190850439	0
0	7022	1696.535663974092	1
0	7024	1697.843856177908	2
0	7026	1699.75594621165	3
0	7028	1700.671005447257	4
0	7029	1700.686456747516	3
0	7035	1700.80333705652	2
0	7040	1701.18597757224	1
0	7045	1702.194127423198	0
0	7051	1702.688667266386	1
0	7052	1703.140746418992	0
0	7069	1706.598709984244	1
0	7071	1707.396934177574	2
0	7072	1707.861515932207	1
0	7078	1708.355531988533	0
0	7087	1710.496272095503	1
0	7088	1711.593164877077	0
0	7100	1712.867420619676	1
0	7101	1713.427984378765	0
0	7112	1713.88575236659	1
0	7114	1713.94104180984	0
0	7136	1720.921986721335	1
0	7140	1722.91530519878	2
0	7141	1724.088102170566	1
0	7147	1724.394693171758	0
0	7191	1732.692457571458	1
0	7193	1734.217103217022	2
0	7194	1734.806523424464	1
0	7201	1735.449576911416	0
0	7207	1735.520582354505	1
0	7209	1735.710505896294	2
0	7210	1735.812643644519	1
0	7218	1737.604798412849	2
0	7221	1738.422453851733	3
0	7223	1738.510970342935	2
0	7229	1738.529669194533	3
0	7230	1738.651496975867	2
0	7234	1739.863198897082	3
0	7238	1742.814185961212	2
0	7243	1744.133415746191	1
0	7251	1747.049819273908	2
0	7256	1749.040032673274	3
0	7257	1750.279675023755	2
0	7263	1751.822745272001	1
0	7269	1753.327198012702	0
0	7293	1757.884307515389	1
0	7294	1757.884349747802	0
0	7300	1758.352941386602	1
0	7302	1759.403374533812	0
0	7334	1766.106151790217	1
0	7336	1766.519094108738	2
0	7341	1770.182531959781	1
0	7346	1770.215295994177	0
0	7378	1776.729090100552	1
0	7379	1777.194340146548	0
0	7385	1778.046198983482	1
0	7386	1778.499125608936	0
0	7392	1779.118685713234	1
0	7394	1779.506053316343	2
0	7395	1780.273698077153	1
0	7399	1780.927751803392	2
0	7403	1784.255912635371	3
0	7404	1784.637641200904	2
0	7409	1784.896356265411	1
0	7416	1787.2721531967	0
0	7422	1787.891314181456	1
0	7423	1788.377261839613	0
0	7441	1790.93167759085	1
0	7444	1792.081156855785	0
0	7453	1794.894425854393	1
0	7454	1795.808961222996	0
0	7475	1801.707986710059	1
0	7481	1803.700684659844	0
0	7493	1808.674013225986	1
0	7494	1809.088344368929	0
0	7508	1811.093242790115	1
0	7509	1812.558454913994	0
0	7515	1812.64319646868	1
0	7517	1813.804632166808	2
0	7519	1814.799330368419	1
0	7528	1815.751596879715	0
0	7559	1828.869061708514	1
0	7560	1829.391625155227	0
0	7573	1832.083382013042	1
0	7578	1836.510414066778	0
0	7589	1838.54136634255	1
0	7591	1840.783046409937	2
0	7594	1843.491366835971	1
0	7599	1845.903267687045	0
0	7616	1849.981854837779	1
0	7620	1850.740282391005	0
0	7626	1851.027609608179	1
0	7629	1851.762117490949	2
0	7631	1852.213644967744	3
0	7636	1854.133960927291	4
0	7638	1854.384779711527	5
0	7639	1854.855556522692	4
0	7644	1855.05247730802	3
0	7650	1855.695896973141	2
0	7655	1857.505190964245	1
0	7662	1861.42679147293	0
0	7692	1867.75667069138	1
0	7698	1868.958802664461	2
0	7705	1870.750647357399	3
0	7708	1871.433214041557	2
0	7713	1871.606753416868	1
0	7719	1872.952420338276	0
0	7736	1875.345810656633	1
0	7738	1875.584892324578	0
0	7758	1881.853138029448	1
0	7761	1882.000681747649	0
0	7787	1890.348385853116	1
0	7792	1892.356308340044	0
0	7798	1892.419674601357	1
0	7802	1894.417239537734	0
0	7810	1895.560570396829	1
0	7811	1895.606516775638	0
0	7832	1899.900398413306	1
0	7833	1902.167112551427	0
0	7855	1904.658336247666	1
0	7856	1904.82955664068	0
0	7896	1916.123843397589	1
0	7900	1917.271460982793	2
0	7901	1917.534081260172	1
0	7906	1917.778478379814	0
0	7913	1918.862859814172	1
0	7914	1919.019121151148	0
0	7930	1923.475137876372	1
0	7935	1928.866714330734	0
0	7948	1932.450121437236	1
0	7951	1933.435342182096	0
0	7961	1934.934609822793	1
0	7964	1937.183086328954	0
0	7984	1942.437879199571	1
0	7986	1944.326191870102	2
0	7989	1945.123474953943	1
0	7995	1945.498563157958	2
0	7998	1946.734135859446	3
0	8001	1948.194134677993	2
0	8006	1948.281255031676	1
0	8012	1948.725459703954	0
0	8022	1949.552538041181	1
0	8023	1949.701403694917	0
0	8033	1952.079333358247	1
0	8036	1953.97009369575	0
0	8051	1955.436385013628	1
0	8055	1956.755090233194	2
0	8056	1956.822819086408	1
0	8062	1957.561828863487	0
0	8072	1958.856196301596	1
0	8074	1959.351006196411	2
0	8078	1959.850037159315	1
0	8083	1960.065274334758	0
0	8098	1963.611993188136	1
0	8100	1964.116266997748	2
0	8101	1964.499343610852	1
0	8106	1964.635976306055	0
0	8113	1965.345242537897	1
0	8114	1965.572033760759	0
0	8120	1965.643004391073	1
0	8121	1965.974272023657	0
0	8125	1965.99271033326	1
0	8127	1968.243801493546	2
0	8134	1970.131945596177	1
0	8139	1970.349571328205	0
0	8147	1971.360711116009	1
0	8149	1972.470390404382	2
0	8151	1975.53966241928	3
0	8153	1975.939365953392	4
0	8157	1978.673768844545	5
0	8160	1981.605301664791	4
0	8168	1984.507016031686	3
0	8173	1987.088062662362	2
0	8179	1987.449034744472	1
0	8185	1987.790049021226	2
0	8186	1987.865511018521	1
0	8190	1988.453510908737	2
0	8194	1991.225256114026	3
0	8195	1991.585282017008	2
0	8201	1992.147507023428	3
0	8202	1992.752080176616	2
0	8209	1993.508384511109	3
0	8210	1994.234216829283	2
0	8216	1994.596473028401	1
0	8222	1994.992322311473	0
0	8257	2000.822589611995	1
0	8261	2003.964091701706	2
0	8262	2003.966435529697	1
0	8267	2004.214423773118	0
0	8273	2004.257633040903	1
0	8277	2005.429172776158	2
0	8279	2006.42604078861	3
0	8280	2006.430766836084	2
0	8286	2006.548275679638	1
0	8291	2007.212524428208	0
0	8306	2009.981410348088	1
0	8308	2013.836672771608	2
0	8311	2014.224216806191	1
0	8316	2014.72846919951	0
0	8329	2019.895351001634	1
0	8330	2020.948111518503	0
0	8334	2021.085215303778	1
0	8340	2024.731635575919	2
0	8341	2025.151862338431	1
0	8346	2025.296256467957	0
0	8352	2025.526753843382	1
0	8353	2026.682999125581	0
0	8357	2027.590415650492	1
0	8361	2028.391635182976	2
0	8364	2030.124716116548	1
0	8369	2030.170710469284	0
0	8375	2033.120504987956	1
0	8380	2034.84633075754	0
0	8394	2037.54182003092	1
0	8396	2038.656664130199	2
0	8400	2041.327117496743	1
0	8407	2043.174708931907	0
0	8469	2068.305615020461	1
0	8474	2069.387856367882	0
0	8483	2070.39377625365	1
0	8489	2071.391083910752	2
0	8490	2071.638089525406	1
0	8495	2071.738073130838	0
0	8508	2076.084088218301	1
0	8509	2076.182884791787	0
0	8515	2076.836234680912	1
0	8519	2076.94943457749	2
0	8521	2077.179387665577	3
0	8525	2077.965549857315	4
0	8530	2079.545700256113	3
0	8538	2080.377866866831	4
0	8540	2080.788602368767	5
0	8541	2081.119853717525	4
0	8548	2082.793023881636	3
0	8555	2084.495377889463	2
0	8561	2088.391749749837	1
0	8568	2089.698255160659	0
0	8582	2091.26680158898	1
0	8586	2092.245588594909	0
0	8611	2097.983496901552	1
0	8612	2097.984982140909	0
0	8621	2102.051043399866	1
0	8623	2102.127643564233	2
0	8624	2103.506759622157	1
0	8631	2104.563385265645	0
0	8637	2104.713559191252	1
0	8638	2104.713775299328	0
0	8679	2114.929229181156	1
0	8683	2116.387328920755	2
0	8687	2118.955840976033	1
0	8692	2119.457793136242	0
0	8709	2124.378240206108	1
0	8710	2125.742407351507	0
0	8721	2126.456926285592	1
0	8723	2127.475790751065	0
0	8761	2142.104427774247	1
0	8764	2143.749540659965	0
0	8772	2144.235368190186	1
0	8774	2144.541926601068	2
0	8775	2145.489711998293	1
0	8782	2147.241554162144	0
0	8795	2151.617728296881	1
0	8796	2151.946282769145	0
0	8862	2167.603005033475	1
0	8863	2168.916325502716	0
0	8881	2170.961210260633	1
0	8882	2171.320026542812	0
0	8886	2171.991189775968	1
0	8890	2173.726631110046	0
0	8901	2175.136465343592	1
0	8903	2175.317719415701	2
0	8905	2175.561864116856	3
0	8907	2176.231934906361	4
0	8908	2176.261852463329	3
0	8912	2176.514632359184	4
0	8914	2176.757446218337	5
0	8916	2177.122907023423	6
0	8920	2177.733171342629	7
0	8921	2178.032226212965	6
0	8928	2178.897916242802	5
0	8932	2179.249525423458	6
0	8938	2181.333522955814	7
0	8943	2181.746981707973	8
0	8944	2181.895693763726	7
0	8951	2183.103249959134	8
0	8952	2183.210999656321	7
0	8960	2185.917484421428	6
0	8967	2188.506093327627	5
0	8972	2188.585670701354	4
0	8979	2190.961945930903	3
0	8985	2192.40485688378	2
0	8992	2193.872817091318	3
0	8993	2194.682439107902	2
0	8999	2195.12415531866	1
0	9004	2195.182538929924	0
0	9020	2196.690234928518	1
0	9021	2196.792821142443	0
0	9032	2197.576956452231	1
0	9036	2199.070585346424	2
0	9038	2200.175373498537	1
0	9048	2206.644257236456	0
0	9060	2207.357922004408	1
0	9061	2209.744166460391	0
0	9098	2217.56281393046	1
0	9102	2219.010759505452	2
0	9104	2219.130495833802	3
0	9106	2221.312295044507	2
0	9113	2223.699115770197	3
0	9114	2224.239117803055	2
0	9119	2224.89196911808	1
0	9125	2226.204721095587	2
0	9126	2227.213497341842	1
0	9133	2227.700310724756	0
0	9137	2227.91113571018	1
0	9139	2228.081978135535	2
0	9149	2230.679846852296	3
0	9150	2231.153256498247	2
0	9155	2231.271823813689	1
0	9160	2232.275617406161	0
0	9171	2235.415863765299	1
0	9173	2236.368245162089	0
0	9184	2237.13910520094	1
0	9185	2237.693352340249	0
0	9189	2237.996098658504	1
0	9195	2240.769518118489	0
0	9261	2258.273137238673	1
0	9262	2259.418656735877	0
0	9269	2260.284050274562	1
0	9270	2260.932014385013	0
0	9292	2269.927385448487	1
0	9294	2270.0826760421	0
0	9300	2270.17972845506	1
0	9301	2270.277311260709	0
0	9307	2270.609124237609	1
0	9310	2272.62842388932	0
0	9333	2279.86094511883	1
0	9334	2281.323513970681	0
0	9362	2287.214437559538	1
0	9366	2287.741851655953	2
0	9368	2288.37836518439	3
0	9369	2288.883526960215	2
0	9376	2289.866693564633	3
0	9377	2290.887648756052	2
0	9383	2291.818978743705	1
0	9390	2293.375181838249	0
0	9426	2297.439249648724	1
0	9431	2298.891809253651	0
0	9464	2311.228649423258	1
0	9466	2314.953054481512	0
0	9496	2321.460165884043	1
0	9500	2321.921172816923	0
0	9510	2325.071971955545	1
0	9520	2328.318554312236	2
0	9524	2328.997911025089	3
0	9525	2329.763763280764	2
0	9530	2330.273828329367	1
0	9543	2331.344508726083	2
0	9544	2331.856257360503	1
0	9549	2332.064284720876	0
0	9592	2341.726425505069	1
0	9594	2341.848214369964	2
0	9599	2343.444581892422	1
0	9607	2345.384524553996	0
0	9621	2348.056088090338	1
0	9622	2350.236212126101	0
0	9631	2352.245018102855	1
0	9632	2352.253924019019	0
0	9638	2353.863553595544	1
0	9639	2354.428266012417	0
0	9652	2355.238949634867	1
0	9654	2355.907153683754	2
0	9659	2356.26834723026	3
0	9661	2356.286228951376	2
0	9666	2356.388774832932	1
0	9672	2356.782212400714	2
0	9674	2356.925181048933	3
0	9675	2357.978598692832	2
0	9684	2361.186148858341	1
0	9690	2362.901163435562	0
0	9701	2364.030490065453	1
0	9704	2364.993977740884	0
0	9725	2367.107342852376	1
0	9727	2367.475055416722	0
0	9741	2370.711184263012	1
0	9743	2372.214839493597	2
0	9748	2373.965723787784	3
0	9749	2374.027289809666	2
0	9754	2375.959926264987	1
0	9759	2376.596070614671	0
0	9765	2379.014310376427	1
0	9769	2380.311618919892	2
0	9770	2380.518862472025	1
0	9774	2381.298419883455	2
0	9776	2381.607572091399	3
0	9779	2384.877384411809	2
0	9783	2385.241395000104	3
0	9786	2386.289828581208	2
0	9791	2387.945508410514	1
0	9795	2388.133435316716	2
0	9800	2389.7471147803	1
0	9805	2391.067549379992	0
0	9828	2393.869712108367	1
0	9830	2394.579354667544	2
0	9834	2396.127810706843	3
0	9840	2397.820124639376	4
0	9842	2398.134017237293	5
0	9843	2398.384287379333	4
0	9847	2399.843842648577	5
0	9850	2402.137815082582	4
0	9859	2403.436278067836	3
0	9866	2406.92195920308	2
0	9871	2407.384860948604	1
0	9879	2413.111812891547	2
0	9881	2414.480872106138	3
0	9882	2415.16610493284	2
0	9889	2415.706363983309	3
0	9893	2417.187211551414	4
0	9895	2418.229002041938	5
0	9896	2418.907927948992	4
0	9901	2419.648441682729	3
0	9906	2419.649446347612	2
0	9915	2426.332930681893	3
0	9916	2426.556244194745	2
0	9921	2426.76763538341	1
0	9927	2427.279893291405	0
0	9933	2429.636809431858	1
0	9936	2430.243363239738	0
0	9966	2437.076317537113	1
0	9968	2438.479318075679	2
0	9976	2443.279593628825	3
0	9979	2445.540705482391	2
0	9985	2446.713553387044	1
0	9993	2448.45190290793	0
0	10006	2449.73683890469	1
0	10008	2450.144625746662	2
0	10010	2451.274011561657	1
0	10015	2452.132832285105	0
0	10029	2455.13783450492	1
0	10030	2455.272929050438	0
0	10044	2456.04999464964	1
0	10048	2458.965882599625	0
0	10054	2460.621638727662	1
0	10057	2461.505864906788	0
0	10077	2465.275646201563	1
0	10083	2466.061432516172	0
0	10089	2466.903567803014	1
0	10090	2466.95010280397	0
0	10096	2466.973767943153	1
0	10099	2467.941698598227	0
0	10111	2468.093335150704	1
0	10112	2468.482786498836	0
0	10131	2470.633300122097	1
0	10132	2470.702104560065	0
0	10149	2474.21904131979	1
0	10151	2475.167626515927	0
0	10161	2475.550385792781	1
0	10166	2477.345481575886	2
0	10167	2477.347754731111	1
0	10172	2477.71179137711	0
0	10208	2481.802866662298	1
0	10209	2484.078807742593	0
0	10218	2484.259324937857	1
0	10222	2485.334444714003	2
0	10230	2488.186584117582	1
0	10235	2488.699323582079	0
0	10248	2492.929953331329	1
0	10251	2496.085827557503	0
0	10278	2498.156490898066	1
0	10280	2499.562788155027	0
0	10297	2505.976662729928	1
0	10299	2506.336810907376	2
0	10300	2506.870709537311	1
0	10305	2506.92083901307	0
0	10329	2510.790498350665	1
0	10331	2513.39586761615	2
0	10333	2514.76234064757	3
0	10341	2516.11020721753	2
0	10347	2516.625786517539	3
0	10349	2518.009291725853	2
0	10356	2518.568265289583	3
0	10357	2518.656593843837	2
0	10363	2518.953512728202	1
0	10372	2520.533622307535	0
0	10383	2521.617360264561	1
0	10385	2521.654217314169	2
0	10386	2521.919808322563	1
0	10392	2522.349725294821	2
0	10394	2522.968911669495	3
0	10395	2523.188482369142	2
0	10401	2524.58487124294	3
0	10403	2525.24402947358	4
0	10405	2526.924592331001	5
0	10408	2528.481424368029	4
0	10414	2529.167209682959	5
0	10418	2530.135662571305	4
0	10424	2531.698860694517	3
0	10429	2532.046309279363	2
0	10434	2532.235512104192	1
0	10439	2532.768741314839	0
0	10445	2533.697022722404	1
0	10449	2537.039690281708	0
0	10461	2538.55671941054	1
0	10462	2539.108457854373	0
0	10475	2539.474473207036	1
0	10477	2540.029535158666	2
0	10478	2541.595989871411	1
0	10483	2541.832136803188	0
0	10497	2544.784284005285	1
0	10501	2545.608629728816	2
0	10503	2545.944221190804	1
0	10508	2546.293517369114	0
0	10512	2546.789208737886	1
0	10515	2548.479964553824	0
0	10519	2549.257171601413	1
0	10523	2550.762109419828	0
0	10538	2552.221973148131	1
0	10540	2553.085423823303	2
0	10542	2554.864105786904	1
0	10549	2555.256953679378	0
0	10564	2556.947947796157	1
0	10569	2557.988980508025	0
0	10577	2558.78663318157	1
0	10580	2559.321518250874	2
0	10582	2560.290858714192	1
0	10587	2560.474862378886	0
0	10601	2562.535040785932	1
0	10602	2563.028307894024	0
0	10625	2567.017813465878	1
0	10626	2567.457819355569	0
0	10633	2570.305345813856	1
0	10634	2570.960593530104	0
0	10646	2575.417537826424	1
0	10647	2576.098338603346	0
0	10659	2578.511400759162	1
0	10660	2579.030528518039	0
0	10666	2579.425319432811	1
0	10667	2579.552155333454	0
0	10673	2579.736248238488	1
0	10675	2579.856998122158	0
0	10684	2580.971081564674	1
0	10692	2583.571758916577	0
0	10731	2590.941092277327	1
0	10734	2591.660269856067	2
0	10735	2592.238960877904	1
0	10740	2593.166915279367	0
0	10746	2593.449607142942	1
0	10747	2594.441017086326	0
0	10756	2596.569177012853	1
0	10757	2596.853735281109	0
0	10783	2602.835935833726	1
0	10785	2603.057159313265	2
0	10789	2605.202506085636	3
0	10795	2606.218389364957	4
0	10797	2608.820549951191	5
0	10800	2610.111411672494	4
0	10805	2610.222023755317	3
0	10811	2611.300962486454	2
0	10817	2611.685287351895	1
0	10822	2615.579681417641	0
0	10826	2615.675634179352	1
0	10828	2616.329613285126	2
0	10832	2618.134144637577	1
0	10837	2618.225085685523	0
0	10841	2619.661042732247	1
0	10851	2624.104040818231	0
0	10871	2626.180772785158	1
0	10873	2626.829473711207	0
0	10889	2627.59567085888	1
0	10890	2628.296795304197	0
0	10909	2635.547838714446	1
0	10917	2637.968834813147	2
0	10921	2639.063965305929	3
0	10922	2639.222218038699	2
0	10927	2639.270316648057	1
0	10933	2639.850110302984	0
0	10939	2640.336243562845	1
0	10940	2640.951341082966	0
0	10961	2646.33511082449	1
0	10966	2647.553682732137	0
0	10975	2648.26954415091	1
0	10979	2648.43930307553	2
0	10982	2649.097821408181	1
0	10987	2649.41359979031	0
0	10997	2649.925061099198	1
0	10998	2650.252245768915	0
0	11015	2653.869789368588	1
0	11017	2654.049218754136	2
0	11020	2655.496387866268	1
0	11026	2655.883364501451	2
0	11028	2656.797211333837	1
0	11035	2658.204135460555	0
0	11041	2658.344371900348	1
0	11043	2658.44402846278	2
0	11045	2659.628252376442	1
0	11050	2661.492421448428	0
0	11054	2664.636113267622	1
0	11056	2665.257064694962	2
0	11058	2665.850389357806	3
0	11064	2669.218009374712	4
0	11065	2670.174081138761	3
0	11071	2672.608412207917	2
0	11078	2673.703943376101	3
0	11081	2674.556499794565	2
0	11089	2677.135750263207	1
0	11095	2677.682486401987	0
0	11110	2682.229494100902	1
0	11112	2683.487233456743	2
0	11113	2683.573486038728	1
0	11119	2684.442333184356	2
0	11121	2685.658981455436	1
0	11125	2685.7186777422	2
0	11128	2687.351808892356	1
0	11134	2688.276327211941	2
0	11136	2689.751851658676	1
0	11141	2690.086825723931	0
0	11149	2691.616126146655	1
0	11150	2692.267920824809	0
0	11167	2693.768658406327	1
0	11169	2695.006593557419	2
0	11172	2695.861760873279	1
0	11178	2696.715347303666	0
0	11243	2714.629344641599	1
0	11244	2714.632598128825	0
0	11334	2744.459074951947	1
0	11335	2744.901747637887	0
0	11339	2744.964714691201	1
0	11343	2747.582879943205	2
0	11346	2748.548731003666	1
0	11352	2750.173745560245	0
0	11363	2751.513626458185	1
0	11366	2752.825241715575	2
0	11367	2753.153236506012	1
0	11372	2754.70561900098	0
0	11378	2755.265898909642	1
0	11379	2755.705074542816	0
0	11383	2755.979077143943	1
0	11388	2757.537008167521	0
0	11395	2758.063392843112	1
0	11397	2758.142033180458	2
0	11398	2758.68887548661	1
0	11403	2759.20847361716	0
0	11454	2769.949698068741	1
0	11456	2771.394343808623	0
0	11462	2771.827981432263	1
0	11463	2771.837449446604	0
0	11505	2781.523462310659	1
0	11507	2781.799679242489	2
0	11512	2783.130216345659	1
0	11517	2783.464339116956	0
0	11525	2784.524661932828	1
0	11527	2786.484158639795	0
0	11538	2787.003506847449	1
0	11540	2787.132026049585	0
0	11553	2789.519709492151	1
0	11554	2789.817135544335	0
0	11571	2793.875723730894	1
0	11572	2794.866675794276	0
0	11578	2794.985531752123	1
0	11580	2795.402870663218	2
0	11582	2796.72678567682	1
0	11588	2797.533052655592	0
0	11672	2826.634941560907	1
0	11674	2826.753106795823	2
0	11681	2828.146382323721	1
0	11686	2828.282801239312	0
0	11693	2828.50443414564	1
0	11694	2828.650372799805	0
0	11705	2834.411581416107	1
0	11707	2834.871582202076	2
0	11708	2835.092800327803	1
0	11713	2835.81223243868	0
0	11740	2839.079492553588	1
0	11748	2844.547144474508	0
0	11768	2854.131563587418	1
0	11770	2854.711140541279	2
0	11772	2854.770376945631	3
0	11774	2856.468158614064	4
0	11775	2858.56104063322	3
0	11780	2859.459474091535	2
0	11793	2861.464381417717	1
0	11798	2861.983748918959	0
0	11805	2862.358009265837	1
0	11806	2862.505618959017	0
0	11813	2863.188237678817	1
0	11816	2863.571410215722	2
0	11817	2863.704891268796	1
0	11824	2865.499379564569	2
0	11827	2865.654062870014	1
0	11832	2865.691458165899	0
0	11846	2867.444573839082	1
0	11857	2868.874175663868	2
0	11858	2869.266721790396	1
0	11863	2869.522127491013	0
0	11867	2870.31203441509	1
0	11873	2873.26373357945	0
0	11897	2879.148265620071	1
0	11898	2880.133289745352	0
0	11906	2881.609602711084	1
0	11907	2882.068381763321	0
0	11915	2882.729105175419	1
0	11916	2882.871438208693	0
0	11927	2883.932706843016	1
0	11930	2884.177920211138	2
0	11932	2885.072472492095	3
0	11937	2887.186271861817	4
0	11938	2887.451716280927	3
0	11943	2887.47270645889	2
0	11949	2887.555005363695	3
0	11951	2888.180705761003	4
0	11957	2889.340200709938	3
0	11963	2889.414375949248	4
0	11966	2890.039746095608	3
0	11971	2890.047884213816	2
0	11975	2890.245832424551	3
0	11979	2891.12512180444	4
0	11983	2892.52427693051	3
0	11991	2893.402556873227	4
0	11993	2893.560318418812	5
0	11994	2893.822608130088	4
0	12004	2897.066913068711	3
0	12009	2900.640343778698	2
0	12015	2905.29334709637	1
0	12022	2905.634607935669	0
0	12031	2907.885484079427	1
0	12033	2908.418172269099	2
0	12037	2910.786157033729	1
0	12042	2910.858207376171	0
0	12061	2913.215196426685	1
0	12067	2914.878642726103	2
0	12068	2914.963154885512	1
0	12072	2914.993166562321	2
0	12075	2916.361306863221	1
0	12082	2917.366899852538	0
0	12095	2920.105544326772	1
0	12096	2920.372558820353	0
0	12126	2925.274041095598	1
0	12127	2925.540915605423	0
0	12135	2926.002838665856	1
0	12137	2926.5938511334	0
0	12167	2934.018288688571	1
0	12169	2934.78121615713	2
0	12170	2937.285779387881	1
0	12175	2937.66693714055	0
0	12181	2938.34007309299	1
0	12182	2938.519746522364	0
0	12195	2942.324285923114	1
0	12196	2942.345800493417	0
0	12216	2946.767327767173	1
0	12218	2947.351726528925	0
0	12222	2947.578681970789	1
0	12227	2950.14335430436	0
0	12254	2954.781052216467	1
0	12255	2955.198642048099	0
0	12265	2956.472588242025	1
0	12268	2957.537356795802	0
0	12281	2960.314389118697	1
0	12282	2961.79216218778	0
0	12288	2961.977129590577	1
0	12290	2962.453610881659	2
0	12291	2962.716408232391	1
0	12297	2963.211067827221	0
0	12303	2963.367227107905	1
0	12304	2963.972696698558	0
0	12414	3003.323276418135	1
0	12417	3004.195821714525	0
0	12468	3022.058043979176	1
0	12474	3023.235272507609	2
0	12475	3024.2681719007	1
0	12480	3024.735267478169	0
0	12487	3024.939744648035	1
0	12490	3026.602429270727	2
0	12491	3027.744654750862	1
0	12498	3028.953399077179	0
0	12504	3029.342491063358	1
0	12509	3031.584116664038	0
0	12515	3033.108040178219	1
0	12519	3033.473705441624	2
0	12522	3034.503976174654	1
0	12526	3034.799732935666	2
0	12532	3036.697097355987	3
0	12533	3036.811835990382	2
0	12540	3040.265847561963	1
0	12547	3040.430505791291	0
0	12570	3047.698635629	1
0	12571	3048.825934666403	0
0	12586	3051.994585430955	1
0	12590	3055.017170627054	2
0	12592	3055.14880479068	3
0	12594	3056.206243297663	4
0	12596	3056.721982274528	5
0	12597	3057.086845685772	4
0	12605	3058.925175007561	3
0	12610	3059.26647315387	2
0	12615	3061.613554792061	1
0	12619	3062.30658177415	2
0	12624	3063.956153214807	1
0	12629	3065.428973216345	0
0	12658	3071.522871186915	1
0	12659	3071.934622079195	0
0	12669	3072.858459036816	1
0	12672	3073.789553743267	0
0	12689	3074.835681346734	1
0	12691	3075.120430696375	2
0	12696	3078.007589901573	1
0	12702	3078.537783294978	2
0	12704	3079.892217185155	3
0	12706	3081.116448559974	2
0	12712	3081.975299443993	1
0	12722	3083.24581348658	2
0	12723	3083.588570447583	1
0	12728	3084.340888508842	0
0	12734	3085.505123342348	1
0	12736	3087.153941389209	2
0	12738	3088.858983577066	1
0	12744	3089.06022738205	0
0	12757	3089.868534792169	1
0	12758	3090.672389577714	0
0	12762	3092.856708985275	1
0	12768	3098.373136547036	2
0	12769	3098.650980290675	1
0	12774	3099.398006945901	0
0	12789	3101.332134713651	1
0	12790	3102.043236644674	0
0	12804	3104.378400225657	1
0	12807	3104.762724100258	2
0	12808	3106.046220534162	1
0	12813	3106.38926984541	0
0	12819	3106.855094481345	1
0	12827	3108.224229779581	0
0	12840	3110.015805711598	1
0	12841	3111.159041403964	0
0	12856	3116.066144220371	1
0	12861	3118.903531920022	2
0	12862	3119.807031206753	1
0	12867	3120.25989086146	0
0	12879	3121.486620369925	1
0	12882	3122.116016979151	2
0	12884	3124.220829747408	1
0	12891	3125.016293487915	0
0	12906	3126.15887597365	1
0	12909	3127.72985190622	0
0	12915	3127.742988032113	1
0	12917	3128.115382197712	0
0	12940	3132.436973166226	1
0	12945	3133.582155378962	0
0	12952	3135.404926000729	1
0	12953	3136.621130961114	0
0	12959	3137.145896906603	1
0	12961	3137.208313173585	2
0	12962	3137.568959386368	1
0	12969	3137.685927471807	0
0	12975	3138.080851635992	1
0	12977	3138.094176314443	2
0	12979	3138.614304340032	1
0	12984	3139.139348607117	0
0	12988	3140.391006226829	1
0	12993	3141.746791389663	0
0	13043	3157.392623800875	1
0	13044	3158.074673319887	0
0	13060	3159.483715348107	1
0	13061	3160.312278375931	0
0	13076	3161.738250527236	1
0	13077	3161.859450919121	0
0	13085	3162.032562772858	1
0	13088	3162.185639543541	2
0	13089	3163.093363860879	1
0	13099	3165.848346290974	0
0	13105	3166.307978433845	1
0	13107	3167.009198631045	2
0	13110	3168.192957091315	3
0	13111	3168.706989282089	2
0	13116	3168.73336651113	1
0	13124	3170.337804670462	2
0	13127	3171.92819925539	1
0	13133	3172.369493827178	0
0	13140	3173.291968573352	1
0	13141	3173.614438318417	0
0	13148	3173.681816606148	1
0	13149	3173.971136228138	0
0	13173	3182.843141220374	1
0	13174	3184.74972437388	0
0	13183	3186.332679799111	1
0	13188	3187.350645764627	2
0	13189	3188.818100823866	1
0	13196	3189.245852022783	2
0	13197	3190.85508234163	1
0	13203	3191.024307152021	0
0	13209	3191.475782411052	1
0	13211	3192.23307068459	0
0	13242	3201.771978741261	1
0	13244	3202.065345875872	0
0	13251	3204.918788265552	1
0	13253	3205.402370568261	2
0	13254	3205.529395386677	1
0	13260	3206.155815541653	2
0	13261	3206.464898672472	1
0	13267	3207.065217606484	2
0	13268	3208.031768748214	1
0	13275	3209.283479931122	2
0	13276	3209.889707705589	1
0	13281	3210.59126362444	0
0	13315	3217.286280780276	1
0	13316	3217.640644119588	0
0	13326	3220.025277149422	1
0	13331	3223.044539900847	0
0	13341	3224.820649683642	1
0	13343	3225.471593642654	2
0	13348	3227.579805894102	1
0	13354	3229.616414007927	0
0	13366	3235.115705607507	1
0	13370	3235.972877471852	2
0	13373	3237.05962524104	1
0	13378	3238.187279540361	0
0	13395	3247.012591586876	1
0	13396	3249.718269955028	0
0	13411	3251.308469503463	1
0	13417	3251.855955145419	2
0	13421	3253.021478087425	3
0	13423	3253.539010768058	4
0	13427	3253.922264014328	5
0	13428	3254.243582568246	4
0	13434	3255.514665972162	3
0	13439	3256.056754536868	2
0	13446	3256.347994655789	3
0	13447	3256.86316609873	2
0	13455	3259.229349426971	1
0	13463	3261.79999296794	0
0	13480	3265.121922011889	1
0	13488	3267.322575037404	2
0	13491	3269.388389738218	3
0	13492	3270.021727663326	2
0	13498	3271.754629712745	1
0	13503	3272.199812719651	0
0	13520	3273.695265797137	1
0	13524	3274.370206935258	0
0	13535	3274.766654975343	1
0	13536	3274.836233541345	0
0	13540	3275.510289496333	1
0	13546	3277.153596708843	0
0	13576	3284.141768455993	1
0	13577	3286.105263386484	0
0	13642	3305.969665467637	1
0	13644	3306.700641862653	0
0	13666	3310.58732475852	1
0	13667	3310.804368290328	0
0	13673	3316.908879289171	1
0	13674	3317.684618733891	0
0	13682	3319.156967828615	1
0	13683	3319.253313773804	0
0	13700	3324.949133815721	1
0	13702	3325.639161368694	2
0	13703	3328.406417456234	1
0	13708	3328.409823512019	0
0	13733	3332.969920339772	1
0	13736	3333.554975455734	0
0	13772	3345.506460995658	1
0	13773	3346.442300906566	0
0	13786	3348.480377124829	1
0	13789	3349.003236990235	0
0	13793	3349.659307318477	1
0	13795	3350.096761659943	2
0	13802	3352.246940835329	3
0	13804	3352.74737163926	4
0	13805	3353.920439941434	3
0	13812	3356.561269886046	2
0	13818	3358.282429396472	1
0	13826	3359.854322855156	0
0	13832	3361.191375009014	1
0	13834	3361.705660703178	0
0	13840	3362.203868103276	1
0	13844	3362.334060285995	2
0	13848	3363.701818347167	1
0	13854	3363.71626892154	2
0	13856	3365.542187505147	1
0	13862	3365.948832533655	2
0	13864	3366.401789605884	3
0	13865	3368.183073810636	2
0	13873	3368.287405815412	3
0	13876	3369.405050089258	2
0	13882	3369.72766546919	1
0	13887	3369.817452007371	0
0	13894	3370.339417472587	1
0	13897	3370.649301271178	2
0	13898	3372.95903058514	1
0	13903	3373.614853155219	0
0	13914	3374.420816448037	1
0	13915	3374.595096254256	0
0	13939	3377.775653020851	1
0	13940	3378.028884446097	0
0	13963	3382.517855526832	1
0	13971	3388.156319289284	0
0	13977	3388.396576255879	1
0	13980	3389.621734071952	0
0	14091	3424.814089517974	1
0	14092	3425.644556981717	0
0	14098	3425.858942927671	1
0	14102	3426.185005578985	0
0	14110	3427.321470197028	1
0	14111	3427.357846585887	0
0	14137	3433.377311447096	1
0	14142	3435.384548210799	2
0	14143	3436.006233824124	1
0	14149	3436.856872275542	0
0	14176	3439.76809707793	1
0	14177	3440.914429160408	0
0	14190	3445.924577400214	1
0	14192	3446.507629328697	2
0	14195	3447.67647645633	1
0	14201	3448.804212676154	0
0	14212	3449.75024965145	1
0	14214	3450.147930854355	0
0	14268	3462.479289833705	1
0	14270	3462.932634420558	0
0	14290	3467.604021338432	1
0	14292	3467.848015125061	2
0	14296	3468.029222402919	3
0	14298	3469.156680815989	2
0	14304	3469.338561838091	3
0	14306	3470.318005433345	2
0	14313	3470.89535364245	1
0	14323	3474.274711450012	0
0	14329	3474.286556854261	1
0	14330	3474.323936196729	0
0	14349	3475.426670325683	1
0	14351	3476.242343891506	0
0	14363	3477.918357421183	1
0	14365	3478.559992688334	0
0	14374	3479.921101025212	1
0	14381	3483.232041581914	0
0	14403	3487.801145302788	1
0	14411	3489.924279225781	0
0	14423	3490.89558595998	1
0	14424	3492.90914895714	0
0	14431	3493.200898239932	1
0	14435	3494.654146808609	0
0	14454	3500.71888850894	1
0	14455	3501.119108647324	0
0	14459	3501.367817730175	1
0	14464	3504.291692349965	0
0	14478	3507.289587761983	1
0	14479	3507.354819995653	0
0	14502	3513.756618534974	1
0	14503	3515.011969602644	0
0	14579	3549.043928123487	1
0	14583	3552.018832576375	2
0	14584	3552.036396697967	1
0	14590	3553.271565100883	2
0	14591	3553.347903532727	1
0	14596	3553.880994351806	0
0	14602	3555.498897947079	1
0	14603	3555.85189183226	0
0	14625	3561.542577938045	1
0	14626	3561.791431214738	0
0	14663	3572.733344136482	1
0	14666	3573.033574068908	2
0	14667	3573.296768001441	1
0	14672	3573.500251664023	0
0	14676	3574.330002453401	1
0	14681	3574.861723182742	2
0	14683	3575.717705354782	3
0	14684	3576.142680506407	2
0	14690	3578.275484147308	1
0	14696	3579.631294171807	2
0	14697	3579.753891541804	1
0	14701	3580.019228582355	2
0	14703	3580.109260349416	3
0	14705	3580.966910691962	4
0	14707	3581.695895239507	5
0	14710	3582.28213008466	4
0	14714	3583.861076137579	5
0	14716	3584.191407257681	6
0	14720	3585.372327605315	5
0	14725	3588.030477051074	4
0	14729	3588.08907159898	5
0	14733	3589.059861204579	6
0	14734	3589.368978476247	5
0	14739	3593.249680015473	4
0	14744	3594.591597170316	3
0	14751	3598.497537762742	2
0	14755	3598.864480253894	3
0	14759	3603.042199684542	2
0	14766	3603.996576090387	3
0	14768	3604.209051589076	4
0	14774	3605.915891842628	5
0	14775	3606.15292335837	4
0	14783	3606.565022331764	5
0	14785	3607.310679868173	6
0	14786	3608.587818629585	5
0	14793	3610.852596854113	6
0	14794	3610.944626973193	5
0	14802	3611.504131013954	4
0	14808	3611.806991577118	5
0	14811	3612.866851558793	6
0	14812	3613.00130093439	5
0	14818	3613.080049580826	6
0	14820	3613.482064604341	5
0	14826	3613.872712117292	6
0	14828	3614.227807239408	7
0	14829	3616.54708830978	6
0	14835	3616.906169205873	5
0	14842	3618.870157596395	6
0	14843	3618.966232387749	5
0	14848	3618.998203938997	4
0	14853	3619.897326044689	3
0	14860	3621.489750058287	2
0	14867	3623.570495078996	3
0	14868	3623.898257602591	2
0	14875	3626.718169311546	3
0	14876	3627.256112474823	2
0	14883	3627.502934655242	1
0	14889	3627.628791760944	0
0	14927	3634.18610376263	1
0	14930	3635.301339619763	0
0	14946	3638.628703099628	1
0	14949	3640.945230477638	0
0	14983	3645.88691321035	1
0	14986	3646.929482868834	0
0	14995	3648.359526395575	1
0	14997	3649.463961105491	2
0	15002	3651.733122508126	1
0	15009	3652.591238420841	0
0	15031	3657.436095529835	1
0	15032	3658.511293793521	0
0	15052	3660.646589233183	1
0	15056	3663.90887349043	2
0	15060	3669.326296828798	3
0	15061	3673.556528426382	2
0	15067	3673.789509494214	1
0	15073	3674.234306972992	0
0	15082	3676.682939363295	1
0	15084	3676.689322335256	2
0	15089	3679.95570028744	3
0	15090	3681.268762675836	2
0	15096	3682.479089458931	3
0	15097	3682.560170070231	2
0	15107	3687.104428099278	1
0	15113	3687.146707698546	2
0	15115	3687.61329568966	1
0	15120	3687.681872364462	0
0	15138	3690.066817266173	1
0	15143	3691.733469001412	2
0	15145	3692.871752964701	3
0	15146	3693.039403212072	2
0	15154	3695.076315171152	1
0	15159	3695.539473672774	0
0	15180	3697.227585371697	1
0	15182	3697.482402861108	2
0	15185	3698.553863906591	1
0	15190	3698.850357812002	0
0	15203	3706.893149678229	1
0	15210	3710.417080293688	0
0	15216	3710.789333785215	1
0	15219	3712.886958545993	0
0	15241	3715.324502027922	1
0	15243	3715.466207745837	2
0	15245	3716.275372027913	1
0	15250	3717.034232863777	0
0	15285	3725.565769554471	1
0	15287	3725.750707885851	2
0	15289	3726.283338685692	3
0	15294	3726.874013978821	2
0	15299	3727.045011043706	1
0	15305	3727.596680728146	2
0	15308	3729.558710696494	3
0	15312	3729.891989866408	2
0	15316	3730.703233162759	3
0	15318	3730.783308056334	4
0	15322	3733.292141121781	5
0	15326	3734.176178376816	6
0	15327	3734.411700273564	5
0	15334	3736.295790536133	4
0	15341	3737.183815308015	5
0	15342	3737.585891410798	4
0	15347	3738.099864147911	3
0	15352	3738.914091448169	2
0	15356	3739.882154444417	3
0	15361	3740.230438253448	4
0	15362	3741.865448832733	3
0	15367	3742.594155103122	2
0	15372	3743.99836083315	1
0	15379	3745.075608047601	0
0	15383	3745.476038858759	1
0	15385	3746.380964668787	2
0	15388	3747.980977974852	1
0	15393	3752.538358162039	0
0	15399	3752.85270186001	1
0	15400	3753.640989760226	0
0	15420	3757.424615950399	1
0	15423	3762.273916798855	0
0	15443	3765.517768938817	1
0	15444	3765.820813823127	0
0	15450	3766.277169934404	1
0	15451	3766.450067701475	0
0	15467	3769.799095340534	1
0	15470	3770.586100118709	0
0	15481	3773.091910659787	1
0	15489	3774.688077279412	2
0	15490	3775.778245074355	1
0	15495	3776.053264319664	0
0	15501	3777.512911222587	1
0	15503	3777.669507321832	2
0	15506	3779.173569669527	1
0	15511	3779.92566289396	0
0	15529	3788.847156734266	1
0	15533	3790.700334995563	2
0	15537	3793.199895006226	1
0	15546	3795.220789931694	0
0	15567	3798.715435886251	1
0	15568	3799.52776968807	0
0	15575	3800.301257173499	1
0	15576	3801.058363511859	0
0	15585	3802.511505464429	1
0	15589	3806.581394874769	0
0	15600	3810.022811264931	1
0	15606	3812.928924044209	2
0	15610	3815.200626284028	1
0	15617	3815.505331885829	2
0	15619	3816.405299384799	1
0	15625	3817.732508588848	2
0	15628	3818.272075598471	3
0	15630	3819.18914973971	4
0	15631	3819.8524863456	3
0	15637	3822.168911238092	2
0	15643	3824.271002619913	1
0	15649	3824.611962732566	0
0	15675	3830.393364340746	1
0	15676	3830.697718955594	0
0	15682	3830.791363702645	1
0	15684	3832.048332296417	0
0	15695	3832.848454421791	1
0	15699	3833.190244707359	2
0	15700	3833.288491666686	1
0	15706	3833.903850161032	2
0	15707	3833.950607524468	1
0	15712	3834.035891068385	0
0	15735	3838.454961871583	1
0	15737	3838.865369161253	2
0	15739	3839.448246683301	3
0	15741	3839.966456637624	2
0	15746	3841.178461091492	1
0	15754	3843.946826172297	2
0	15755	3844.441334167678	1
0	15763	3846.981281718483	0
0	15774	3848.617860196479	1
0	15775	3851.26281116201	0
0	15784	3853.617733745048	1
0	15787	3854.004784039473	0
0	15828	3861.820444878341	1
0	15829	3861.889937594826	0
0	15867	3869.397400812287	1
0	15868	3870.016850253186	0
0	15881	3870.776877374171	1
0	15882	3870.883817505619	0
0	15886	3871.411475788445	1
0	15888	3871.512537503679	2
0	15890	3872.227606945002	3
0	15895	3874.58279781582	2
0	15902	3876.166775528836	1
0	15908	3878.90228675338	2
0	15910	3879.360127978862	1
0	15919	3881.262008198871	0
0	15946	3885.68231290812	1
0	15950	3888.969594592356	2
0	15953	3890.309380010036	1
0	15959	3890.912512006762	0
0	15968	3891.722641375546	1
0	15971	3892.799206891743	0
0	15978	3892.914289852991	1
0	15979	3892.985043461206	0
0	15997	3896.250200322633	1
0	15999	3896.539505306946	2
0	16000	3896.861276036209	1
0	16008	3897.946449962564	0
0	16015	3899.160412509226	1
0	16016	3900.121436933231	0
0	16028	3900.908837898773	1
0	16029	3901.306214704111	0
0	16099	3922.989972764777	1
0	16100	3924.01820447772	0
0	16111	3928.763998703088	1
0	16114	3929.939970454646	0
0	16118	3930.251397172472	1
0	16123	3931.224526146343	2
0	16125	3932.310311302049	3
0	16128	3932.608673032761	4
0	16129	3933.359878594978	3
0	16134	3935.911482102718	2
0	16139	3936.016545175641	1
0	16145	3937.112289218433	2
0	16147	3937.348214830225	3
0	16149	3938.753211469368	2
0	16154	3939.094725262559	1
0	16159	3939.712247733787	0
0	16173	3941.632959755881	1
0	16174	3942.007361824653	0
0	16202	3945.880201875142	1
0	16205	3946.70970951674	2
0	16207	3947.419750072311	3
0	16212	3951.184285746957	4
0	16213	3951.371621769923	3
0	16218	3951.374624317856	2
0	16224	3951.688740149815	1
0	16231	3954.442545239882	0
0	16242	3957.231741438122	1
0	16247	3958.714611252447	0
0	16266	3962.96383780397	1
0	16268	3964.522757217048	0
0	16277	3965.153740760725	1
0	16281	3966.234544124712	0
0	16300	3970.882779795501	1
0	16302	3971.852404999411	2
0	16305	3972.640579404353	1
0	16312	3972.958774893757	2
0	16314	3973.09933310412	3
0	16315	3973.143485584234	2
0	16321	3973.669346306161	1
0	16326	3973.912970091022	0
0	16330	3975.195247264558	1
0	16338	3977.708516401166	2
0	16339	3977.927593268701	1
0	16347	3979.803736526666	0
0	16353	3980.895038965125	1
0	16355	3983.635355683752	0
0	16370	3986.356897882427	1
0	16372	3986.755779050566	2
0	16373	3987.058340972337	1
0	16378	3987.397235874593	0
0	16396	3989.053134569712	1
0	16398	3989.301159738374	2
0	16401	3991.120806580344	1
0	16407	3991.921724806625	2
0	16408	3992.289090250846	1
0	16414	3992.855922535977	2
0	16418	3993.557005056594	1
0	16424	3993.926468140619	0
0	16430	3995.637278330381	1
0	16432	3996.868980553206	0
0	16466	4003.599588589306	1
0	16467	4004.440033130487	0
0	16538	4027.26815662446	1
0	16539	4027.275970530173	0
0	16602	4048.946100437467	1
0	16603	4050.537183812682	0
0	16632	4057.281016535654	1
0	16634	4060.562351558972	2
0	16636	4060.971485096198	3
0	16637	4061.229397481305	2
0	16642	4061.240271625136	1
0	16649	4061.832487408852	0
0	16782	4110.225433430909	1
0	16786	4112.476051964341	0
0	16846	4127.012346395889	1
0	16847	4127.276858459663	0
0	16870	4135.736617800872	1
0	16872	4136.327859884851	0
0	16887	4137.261751835858	1
0	16889	4137.354091267448	2
0	16890	4137.5156834135	1
0	16896	4137.565297299252	2
0	16898	4138.175236965556	1
0	16903	4140.336188280754	0
0	16917	4143.137408140645	1
0	16919	4143.604619018874	0
0	16940	4146.658295750936	1
0	16943	4147.480960794667	2
0	16945	4149.060509317437	3
0	16946	4149.071708420967	2
0	16951	4149.163748947411	1
0	16957	4149.293915728027	0
0	16997	4159.704918446006	1
0	16999	4160.203020982792	2
0	17001	4160.425777712957	3
0	17002	4162.171264348546	2
0	17008	4162.476592519379	1
0	17015	4168.017538048972	0
0	17046	4179.726260057159	1
0	17048	4180.027860837359	2
0	17050	4181.351981366114	3
0	17052	4183.11049606299	4
0	17053	4184.467510450429	3
0	17058	4185.378768442004	2
0	17064	4186.246638343287	3
0	17066	4186.62917078386	4
0	17069	4187.704131295422	3
0	17075	4189.198453938766	4
0	17078	4190.194663725454	3
0	17082	4191.903251030079	4
0	17084	4193.005853926236	5
0	17088	4193.329099644693	6
0	17089	4194.007612460125	5
0	17093	4194.8276529164	6
0	17096	4196.075790417705	5
0	17104	4199.71136513325	4
0	17112	4200.748342600848	5
0	17115	4200.996226403638	4
0	17123	4203.872955331816	5
0	17124	4204.384680533999	4
0	17130	4204.407014252214	5
0	17132	4205.10937469162	4
0	17137	4206.963282682516	3
0	17143	4209.231609103715	2
0	17150	4210.247994817667	3
0	17151	4210.683748187123	2
0	17158	4211.853586557789	3
0	17159	4212.232229571671	2
0	17166	4212.677563361739	1
0	17170	4214.35655159401	2
0	17173	4217.179881365969	1
0	17180	4218.1398168293	0
0	17197	4219.487387430291	1
0	17198	4219.529661673329	0
0	17216	4227.453112908531	1
0	17220	4228.76157823293	0
0	17227	4229.735458464371	1
0	17229	4230.447682891745	0
0	17236	4231.412797583373	1
0	17237	4232.034915873167	0
0	17268	4237.228803727883	1
0	17269	4237.689888487269	0
0	17289	4240.248111184265	1
0	17290	4241.514340078347	0
0	17309	4244.951539730797	1
0	17311	4246.718758391321	0
0	17350	4260.435331972619	1
0	17351	4260.835536017987	0
0	17396	4269.478969159834	1
0	17398	4270.098140917594	0
0	17426	4274.608884074133	1
0	17427	4275.665572893134	0
0	17433	4275.930181542409	1
0	17435	4276.05959823539	2
0	17437	4276.858929359611	3
0	17442	4279.968705722094	2
0	17448	4280.222235104523	3
0	17450	4280.290207815616	4
0	17452	4280.790955243597	3
0	17465	4284.684334246656	4
0	17466	4284.949123026745	3
0	17472	4285.189785067858	2
0	17477	4285.47177397276	1
0	17482	4285.579540511803	0
0	17493	4286.950700717793	1
0	17494	4287.511028369373	0
0	17500	4289.625074644243	1
0	17504	4291.402086902233	2
0	17505	4292.253966277298	1
0	17509	4293.400761324319	2
0	17515	4295.758703931483	3
0	17517	4296.496580927409	4
0	17519	4297.71284632851	3
0	17525	4298.118086784643	4
0	17527	4299.287766053405	3
0	17532	4300.188412176058	2
0	17537	4301.228754074221	1
0	17549	4303.024679212032	2
0	17550	4306.627495646813	1
0	17559	4307.761331893465	0
0	17592	4315.809888825302	1
0	17598	4318.255385964691	0
0	17607	4319.628030226739	1
0	17610	4320.82519966369	2
0	17613	4321.133925861917	1
0	17618	4321.503469651848	0
0	17640	4324.139526959346	1
0	17642	4324.468371301196	2
0	17644	4325.157461127246	3
0	17646	4325.871771782161	2
0	17653	4326.362405576649	3
0	17654	4327.5789404769	2
0	17660	4328.002348138044	1
0	17667	4330.069301494512	2
0	17668	4330.133007762612	1
0	17673	4330.427170883723	0
0	17705	4336.682491365339	1
0	17706	4336.776598413429	0
0	17713	4337.582279702436	1
0	17714	4337.616885705352	0
0	17729	4339.797988718006	1
0	17732	4342.633509914558	0
0	17746	4346.97690402796	1
0	17750	4347.968572528997	2
0	17752	4348.594439583285	1
0	17758	4349.046639267406	0
0	17787	4355.49422414487	1
0	17791	4356.205227365464	2
0	17792	4356.306672001084	1
0	17801	4359.652323788365	2
0	17802	4359.75877919485	1
0	17809	4360.166389792473	2
0	17811	4360.449229455876	3
0	17817	4364.93762303104	4
0	17819	4365.636779494047	5
0	17820	4365.887829206791	4
0	17826	4367.25125606878	5
0	17827	4368.339406672833	4
0	17832	4370.077773133378	3
0	17839	4372.238605004304	2
0	17847	4373.227696178658	3
0	17848	4375.179299757282	2
0	17854	4375.770727266061	3
0	17855	4375.825318991902	2
0	17861	4376.026714532664	3
0	17863	4377.019365060446	4
0	17864	4377.337584355169	3
0	17870	4379.464260996922	2
0	17875	4380.377277376598	1
0	17880	4381.845797316478	0
0	17892	4383.121094321912	1
0	17894	4383.578905247903	2
0	17900	4388.05091056088	1
0	17908	4389.143019585888	2
0	17909	4389.418495074684	1
0	17914	4389.900760972747	0
0	17931	4392.291009516435	1
0	17932	4392.547809235132	0
0	17940	4393.223223279626	1
0	17941	4393.782792356346	0
0	17947	4394.138465764029	1
0	17952	4394.597181117452	0
0	17966	4398.382525022568	1
0	17972	4399.487812079706	2
0	17973	4399.969340352456	1
0	17978	4400.568124081854	0
0	17998	4402.163334516951	1
0	18000	4402.774856622042	0
0	18022	4405.075411408607	1
0	18027	4407.816198616029	0
0	18033	4408.023492733609	1
0	18034	4408.326484978846	0
0	18055	4411.553642526654	1
0	18060	4412.986183820268	0
0	18078	4415.761699813294	1
0	18080	4416.338635825705	0
0	18108	4422.279933048894	1
0	18109	4423.253250019488	0
0	18136	4430.752615091383	1
0	18140	4431.484674810173	2
0	18141	4432.12463818669	1
0	18147	4432.248851242981	2
0	18151	4433.669468118837	3
0	18152	4433.785026988539	2
0	18164	4436.856542868237	1
0	18169	4436.954754057657	0
0	18177	4439.192555203196	1
0	18178	4439.304384971346	0
0	18193	4442.085706939203	1
0	18196	4443.214633407117	0
0	18208	4444.760694908842	1
0	18210	4447.087103265243	2
0	18211	4447.440049431004	1
0	18217	4449.56703398434	0
0	18254	4457.617247718628	1
0	18256	4457.813119567076	2
0	18261	4459.906879192381	3
0	18263	4461.164507421225	4
0	18264	4461.828801271302	3
0	18271	4462.815380352901	4
0	18273	4463.278296685395	5
0	18276	4464.236205434877	4
0	18282	4466.157905192688	3
0	18287	4466.332303036888	2
0	18293	4467.536380253818	3
0	18294	4467.968581773922	2
0	18299	4468.98364991168	1
0	18303	4469.113528233486	2
0	18305	4469.752530850084	3
0	18309	4471.80940364902	2
0	18316	4473.018333187263	1
0	18325	4475.768601175995	0
0	18351	4478.849796584561	1
0	18355	4480.471925763313	2
0	18357	4482.998122811101	3
0	18363	4486.932957323753	2
0	18368	4486.969683289546	1
0	18376	4488.496398632209	0
0	18394	4489.078846493969	1
0	18397	4489.94900584159	2
0	18398	4491.554825081304	1
0	18404	4492.004975045994	0
0	18413	4492.229015372731	1
0	18415	4493.047890272503	2
0	18417	4493.120721790571	3
0	18420	4493.838785303413	2
0	18426	4494.133523016704	3
0	18427	4494.359191517178	2
0	18432	4494.930533105051	1
0	18437	4498.35566539639	0
0	18443	4498.726609508883	1
0	18445	4500.492683943062	0
0	18458	4501.406800855253	1
0	18462	4501.966700430853	2
0	18463	4503.02728903024	1
0	18470	4503.542987681872	2
0	18472	4504.089608770379	1
0	18478	4504.675790709005	0
0	18533	4521.913037299318	1
0	18535	4522.603879851773	0
0	18574	4530.362478744172	1
0	18577	4532.407636064058	0
0	18638	4551.813680473147	1
0	18640	4552.641691337349	2
0	18641	4552.840672460316	1
0	18646	4553.385939259336	0
0	18693	4567.415407810713	1
0	18695	4568.480768026955	2
0	18696	4568.763315344214	1
0	18704	4569.654866061435	0
0	18718	4571.475134878621	1
0	18719	4572.677521196135	0
0	18730	4573.696195202085	1
0	18734	4575.984276921211	0
0	18743	4576.853539643008	1
0	18747	4579.043141666167	0
0	18753	4579.568935805826	1
0	18754	4579.570001085343	0
0	18780	4582.350615557006	1
0	18781	4582.538060338186	0
0	18790	4582.982052124303	1
0	18795	4585.545587376607	2
0	18797	4587.325027523811	3
0	18798	4587.839814341743	2
0	18803	4588.355320107248	1
0	18809	4589.227244527587	2
0	18811	4589.764684672084	1
0	18818	4591.301902526088	2
0	18819	4591.356010466398	1
0	18824	4591.621948563639	0
0	18830	4592.483982725046	1
0	18831	4592.924530146099	0
0	18845	4596.949953391808	1
0	18846	4598.523709568192	0
0	18870	4602.847602150926	1
0	18872	4604.066502548074	2
0	18874	4604.098734631104	3
0	18875	4604.651961047239	2
0	18882	4605.995763063494	3
0	18883	4606.371097629968	2
0	18888	4606.548979359831	1
0	18894	4606.793389887297	0
0	18900	4607.273818139733	1
0	18902	4607.40084527942	2
0	18903	4608.31330728	1
0	18908	4609.351884846649	0
0	18916	4610.367047842814	1
0	18917	4611.230307174004	0
0	18927	4612.263427467356	1
0	18930	4612.546660338576	2
0	18932	4613.163160229851	3
0	18933	4613.944878321462	2
0	18939	4614.749025388156	1
0	18947	4616.069919659621	2
0	18948	4616.332748650488	1
0	18956	4617.865643216473	2
0	18957	4618.193731534835	1
0	18961	4618.384764654592	2
0	18963	4618.787250995494	3
0	18965	4619.98880461952	4
0	18967	4620.706227677992	5
0	18969	4622.043510358174	6
0	18972	4623.287317615023	5
0	18977	4623.894737376289	4
0	18984	4624.212277609878	3
0	18988	4624.832685656122	4
0	18995	4627.232049580401	5
0	18997	4627.435616522984	4
0	19003	4628.341455523555	3
0	19009	4628.711584013062	2
0	19016	4630.197689039711	3
0	19017	4630.288742899033	2
0	19022	4631.693148632197	1
0	19032	4634.296550067937	0
0	19043	4635.125175474834	1
0	19045	4635.521863613991	0
0	19051	4637.775045774656	1
0	19052	4637.906509000952	0
0	19072	4641.014380901406	1
0	19076	4641.902266422527	0
0	19089	4643.245987440292	1
0	19090	4643.464604500952	0
0	19102	4644.968096023633	1
0	19104	4646.864152904064	2
0	19105	4648.247401817883	1
0	19110	4648.580466418517	0
0	19126	4654.25324818431	1
0	19127	4656.250442081167	0
0	19139	4656.904678806598	1
0	19142	4658.547344357685	0
0	19151	4659.435540449685	1
0	19152	4659.815327080107	0
0	19158	4660.216349980387	1
0	19162	4660.386068904482	0
0	19169	4661.258169817598	1
0	19170	4661.710225894934	0
0	19176	4661.832205159392	1
0	19178	4662.138017710025	2
0	19180	4663.247902648622	3
0	19181	4666.515083145014	2
0	19186	4666.642502494991	1
0	19191	4668.588513771033	0
0	19199	4671.155081253236	1
0	19200	4672.012455394774	0
0	19218	4676.478456623135	1
0	19220	4676.615551942087	2
0	19222	4676.934984460571	3
0	19225	4678.597272460657	4
0	19227	4679.229454866264	3
0	19233	4679.682004173585	4
0	19235	4679.879299416047	5
0	19236	4680.507088874634	4
0	19243	4680.667539139933	5
0	19245	4680.726116049537	6
0	19248	4681.686000766767	7
0	19250	4682.262111606904	8
0	19251	4682.612753629573	7
0	19257	4683.476597500952	8
0	19263	4685.437590784896	9
0	19264	4688.188636538209	8
0	19271	4689.405002556135	7
0	19277	4689.732998675004	6
0	19282	4689.872582778396	5
0	19288	4690.808702493266	4
0	19294	4691.610088631692	3
0	19299	4692.073208299142	2
0	19303	4692.195670984606	3
0	19306	4692.585362812214	2
0	19310	4692.599049870618	3
0	19314	4694.020297615494	2
0	19324	4695.569991588381	3
0	19328	4697.584987997541	4
0	19329	4699.509644882993	3
0	19337	4701.11747622516	2
0	19343	4701.127456731074	3
0	19344	4701.320764885629	2
0	19349	4701.55033103965	1
0	19354	4702.136616420136	0
0	19363	4705.028952074189	1
0	19365	4705.661135330325	0
0	19408	4715.268723417717	1
0	19410	4716.286817397972	2
0	19411	4717.680671416865	1
0	19416	4717.755332104396	0
0	19463	4732.151202787637	1
0	19464	4732.226371249499	0
0	19488	4738.241733689221	1
0	19492	4739.395232822154	0
0	19512	4741.532018344259	1
0	19517	4744.122044482247	0
0	19524	4745.202207113438	1
0	19527	4745.679664198416	0
0	19536	4746.629458067095	1
0	19540	4747.289978506279	2
0	19541	4748.602039409772	1
0	19549	4749.792900337392	0
0	19573	4754.606525033191	1
0	19576	4757.765218037957	0
0	19582	4758.491777838555	1
0	19583	4758.93074216393	0
0	19598	4761.033891090433	1
0	19601	4761.697212566307	0
0	19607	4761.729212486483	1
0	19611	4762.577804169695	0
0	19619	4763.34320533814	1
0	19622	4763.659498784315	2
0	19623	4763.805076010268	1
0	19632	4764.491149336906	2
0	19633	4765.727289887484	1
0	19640	4766.052999346919	2
0	19643	4766.672914513703	1
0	19652	4770.622621950912	0
0	19664	4773.658409798989	1
0	19665	4774.809822130908	0
0	19676	4775.500924344633	1
0	19677	4775.568948604125	0
0	19681	4775.612730598906	1
0	19684	4778.405990988516	0
0	19688	4778.854478546654	1
0	19691	4779.196774058034	0
0	19698	4780.008469638982	1
[...]
5	112606	27533.035802733459	43.627350651368
5	112611	27533.707503477385	38.643083674856
5	112620	27539.420249978156	42.833364217569
5	112625	27539.787123527514	14.885380417913
5	112632	27541.335624107948	16.3097299323
5	112637	27541.596424932194	15.735942174033
5	112650	27546.055381202552	19.110231702603
5	112675	27551.389074929514	21.928049242349
5	112688	27553.944246468324	18.707285600968
5	112708	27558.248419370189	21.835900833671
5	112716	27560.115285864388	19.985225847003
5	112738	27563.238022246836	18.26132278761
5	112743	27563.848135802836	17.157262863821
5	112753	27568.371033393541	16.323877389745
5	112771	27570.935957029704	18.473033746125
5	112776	27571.102917999105	18.210386242948
5	112783	27575.07540541461	19.297821370666
5	112804	27577.386918972782	16.485273178178
5	112835	27582.012225666227	6.811587354184
5	112864	27591.15956905329	8.644330684679
5	112869	27591.184091957414	3.014321720135
5	112874	27592.565860353896	2.821549686249
5	112880	27593.987168963238	4.128676222258
5	112887	27596.461492052373	5.457983000954
5	112894	27598.462045543256	4.302729760017
5	112912	27603.416683170366	4.469095815019
5	112923	27604.377071886284	4.814180240703
5	112929	27608.00811013415	8.389529397236
5	112936	27608.807329272253	0.485048093656
5	112967	27615.37309654919	1.536909696467
5	112996	27626.954179742328	10.446855329608
5	113091	27651.836827443653	26.721060786485
5	113115	27657.207640900398	24.107054230717
5	113120	27658.527841689933	15.074535024758
5	113126	27660.661790682648	11.881594912212
5	113150	27665.760104673526	0.589393113162
5	113181	27671.994960463997	5.505442691363
5	113187	27673.463284952827	5.738667924642
5	113199	27677.402300796109	3.891033976948
5	113272	27694.645426668063	15.018680994397
5	113286	27699.225856035792	15.289621097857
5	113300	27702.247175206358	16.885514501174
5	113304	27703.61076633403	3.812836357261
5	113323	27714.327498768727	2.136814039373
5	113343	27720.277663026212	1.523143268443
5	113375	27728.679823686851	4.814451626718
5	113380	27729.431048506159	3.035010984713
5	113384	27730.215140575359	2.486321552879
5	113430	27752.311548807428	0.397960802919
5	113463	27764.654017701098	0.844858638324
5	113478	27767.433481830736	0.817544106294
5	113500	27772.507410902649	2.318329367568
5	113575	27784.547017977732	8.674118295484
5	113616	27799.342301710646	23.329549415458
5	113626	27803.408112775842	8.638376038809
5	113689	27822.485901968905	0.322782039777
5	113719	27834.505707817906	1.298155151741
5	113764	27850.998623064051	5.928495850087
5	113857	27876.029689676911	1.765496504098
5	113866	27881.134986017446	0.557895137747
5	113890	27885.483660443464	3.831588637496
5	113921	27891.373056466665	9.397145121416
5	113961	27912.61777817689	0.806628295338
5	113987	27917.195926293039	2.515607581102
5	114027	27927.215695538561	0.735199368708
5	114039	27929.440596627055	2.832084310918
5	114085	27937.547469787223	9.90527840572
5	114090	27939.084890356847	6.458628548024
5	114094	27946.034007988851	11.424329694733
5	114105	27950.022903575711	3.350887601506
5	114126	27957.662156542409	1.801209864267
5	114141	27963.265069958487	2.490803092568
5	114160	27968.84007937537	4.139732423217
5	114191	27972.905101846713	2.065096592879
5	114198	27975.055544261437	3.951635770341
5	114219	27982.009572553207	6.893367093865
5	114238	27984.265094600711	6.828571252813
5	114246	27986.982212305565	7.928035014391
5	114258	27993.461426152198	9.45026540912
5	114277	27995.889064650044	9.031937951751
5	114286	28000.671951081446	10.788175947183
5	114306	28005.058103065873	9.46237220282
5	114311	28007.988200144344	6.330064082954
5	114318	28012.513999106613	1.993927994938
5	114343	28018.340675789822	5.266156219492
5	114430	28041.020911961113	27.903731111559
5	114441	28043.467169327423	27.184165785383
5	114446	28044.690373727542	25.29390990068
5	114453	28048.242709521629	22.560236553076
5	114463	28049.456060409561	22.042499537952
5	114470	28050.839203070949	20.290227743416
5	114496	28056.181898688742	0.742910226953
5	114501	28057.25028563036	1.558648813895
5	114522	28060.41471452717	0.367312662319
5	114532	28063.362766240724	3.231533535629
5	114549	28066.769698498297	2.529585345975
5	114629	28085.239370430967	19.785549561855
5	114641	28089.861342273646	24.32538344867
5	114660	28094.792252319213	23.464700110258
5	114665	28096.544060449037	14.830892648081
5	114670	28097.93763468376	14.169279131025
5	114678	28102.249259007039	14.788007093252
5	114688	28103.188770103517	11.799782843062
5	114722	28110.054458907339	5.008592819389
5	114729	28114.087501389829	5.735077578646
5	114733	28114.439569305321	5.290865349431
5	114763	28135.419747832943	5.690089043752
5	115043	28207.236912803596	72.878830360098
5	115051	28208.227681741695	71.538473985588
5	115079	28210.206363404465	71.717532890188
5	115085	28210.518034367309	66.33233620375
5	115094	28211.792674274258	65.354712489821
5	115101	28212.206341252224	65.161956860578
5	115113	28215.089019004368	59.30154024758
5	115127	28219.875558081345	63.474478532214
5	115165	28225.356840866628	58.203950628744
5	115175	28226.126863919584	57.367928362354
5	115180	28227.528926517715	54.150969889226
5	115192	28229.115861872258	53.180688102014
5	115213	28234.752099725019	57.748080524831
5	115232	28238.042890848941	59.392619940865
5	115240	28239.435414342547	54.442280024225
5	115247	28241.311960379072	51.975228089929
5	115263	28242.594671536112	52.011522784872
5	115274	28245.217286006012	51.609847060709
5	115279	28245.674114675596	47.272142704773
5	115290	28249.171864916493	50.213865740148
5	115306	28252.78401296915	49.453614696836
5	115311	28253.368495011855	44.392914971872
5	115317	28255.458719740103	44.245991618379
5	115328	28258.056695197103	44.856312685969
5	115349	28265.31724983976	47.039626131991
5	115356	28266.008330397316	46.979528846141
5	115366	28267.904499662889	43.385761421034
5	115373	28269.305740624169	41.496989276233
5	115383	28270.258899307485	41.725520898121
5	115392	28273.146641099497	41.432827547061
5	115403	28274.966682749762	36.846965850236
5	115418	28283.42976849878	41.583101390879
5	115443	28288.796300632172	46.711019176064
5	115450	28289.908605587362	43.68137122637
5	115458	28291.467091432506	40.846989675511
5	115471	28293.235034968115	42.042683825099
5	115476	28293.945102223801	42.636824688194
5	115487	28303.637147852873	45.770025156859
5	115505	28306.981671335343	43.199158619209
5	115515	28308.297453614956	35.462271554986
5	115522	28312.318622786086	35.995633916946
5	115529	28315.350666339479	27.371175851997
5	115544	28321.490088647029	33.145299930211
5	115591	28328.014572452984	39.200306755201
5	115611	28332.347783937042	36.614134439877
5	115648	28341.866613050394	30.4335060931
5	115662	28349.237579000194	33.24388956236
5	115718	28359.741326034538	42.415119614489
5	115730	28363.165575210048	41.456930061474
5	115741	28364.26511655156	42.48087548744
5	115746	28365.436662707432	43.600054966472
5	115755	28367.402704994909	42.612058179603
5	115773	28370.357972251373	45.229813808927
5	115778	28372.34200405573	44.077096515876
5	115794	28376.985582128813	47.405351918037
5	115877	28408.096385346773	77.435606544907
5	115890	28409.61798679734	63.696927495321
5	115929	28416.260584154836	57.973792571628
5	115936	28418.203494498372	58.460268005283
5	115945	28418.4919879603	50.798862983032
5	115955	28418.719216063311	43.477383514966
5	115961	28419.045560767665	36.674109455189
5	115970	28420.572350802257	36.734862581066
5	115985	28424.924338754122	34.650715206499
5	116010	28430.943932980132	35.321110172003
5	116051	28439.886023577235	43.768520777873
5	116074	28443.063944695335	34.79764550047
5	116115	28453.180933950491	44.508329980916
5	116121	28455.884739636393	46.230927143679
5	116126	28457.239202261917	44.207790408886
5	116135	28459.387956078642	43.648957654732
5	116147	28461.862659266854	41.673285243413
5	116167	28468.557646297752	36.034943540718
5	116195	28472.275942831893	25.03075326025
5	116201	28473.133994259744	25.694050760083
5	116210	28477.109165230681	27.182292266964
5	116227	28482.966127415801	31.611813045526
5	116234	28484.41640508185	26.678945585283
5	116253	28487.66896762664	23.641323728182
5	116261	28489.329499831167	19.688545997339
5	116285	28493.929206147173	23.817312527343
5	116319	28501.148031514852	11.280544483156
5	116326	28501.483139137814	10.823558948206
5	116342	28509.682175004122	17.274825175526
5	116357	28510.347461305844	11.077584471453
5	116375	28516.391257010388	0.080486787718
5	116382	28523.403781446324	4.816345464415
5	116389	28524.908300224832	1.068130049638
5	116432	28537.078644759283	4.407831830469
5	116455	28544.294224771126	7.672027360287
5	116461	28544.705163560038	6.22339016173
5	116471	28549.952004266934	6.282657076521
5	116490	28555.67005325015	1.220488535762
5	116558	28579.022105619315	1.360449550772
5	116579	28583.319841170785	3.04321655903
5	116613	28594.247030206643	3.841910412452
5	116675	28610.449523992916	8.399084192755
5	116698	28615.652406824695	8.769026625432
5	116703	28616.137606793391	4.045955380721
5	116712	28618.833372910652	5.106944824662
5	116731	28625.16348890666	8.088079028724
5	116752	28633.212954218365	11.412332702778
5	116760	28637.211063386684	12.959967645376
5	116771	28638.39951693624	13.272559685602
5	116784	28641.485556244077	15.536367967223
5	116823	28653.750448025348	14.572727773547
5	116904	28666.425136138583	25.822821838707
5	116910	28667.444040326822	25.119908836039
5	116916	28669.410243833252	20.084050791349
5	116925	28670.667009515974	20.404092997434
5	116953	28674.643599904458	18.941797830148
5	116975	28677.348053454776	15.824886288682
5	116984	28678.390831713099	14.177938683239
5	117040	28694.635019179952	22.757935008952
5	117066	28699.059885758346	27.068037751562
5	117082	28699.688079218491	26.362712872244
5	117091	28702.746548633898	28.634574946552
5	117101	28705.146722425869	29.596384900267
5	117130	28710.638499238274	34.558702562732
5	117158	28714.837499715503	36.403688780237
5	117163	28715.043318989544	35.037558106808
5	117168	28716.982153641446	34.365876423916
5	117177	28719.635561574438	34.539711996068
5	117189	28722.73143613053	37.568279427148
5	117196	28723.25078357448	33.415114737439
5	117205	28726.675142008788	32.620021989014
5	117229	28732.558098732553	38.053852369245
5	117240	28733.489828612224	32.000922581435
5	117247	28734.755950159557	21.748552991742
5	117258	28736.321743215071	18.916979287023
5	117268	28739.623734522048	17.631746022652
5	117287	28741.237081800791	13.308111518197
5	117300	28747.549439387504	16.413326231203
5	117418	28774.738725771917	33.569018000307
5	117435	28779.24472128059	36.096385290174
5	117469	28787.141679293055	39.762425641212
5	117480	28787.888312105176	39.400420478735
5	117490	28789.28441203438	35.267886133818
5	117495	28789.695808193396	28.645475478667
5	117502	28790.749291846119	27.142568910947
5	117513	28794.234075838737	30.117627302671
5	117518	28794.300639348657	19.24632401329
5	117528	28796.394023844549	21.089444275959
5	117544	28799.078209295696	21.653756922873
5	117558	28803.846353660092	23.763028249313
5	117567	28806.35780256376	19.1679740305
5	117578	28807.814765583716	20.138622328136
5	117587	28811.257562550074	21.479949722363
5	117597	28811.953114491728	20.950800389951
5	117605	28814.389426182656	20.708225143108
5	117618	28817.34566941997	19.146677244568
5	117635	28825.705360219469	26.878782562063
5	117644	28830.844973804426	31.370071346807
5	117661	28835.545893876678	33.168005873843
5	117686	28838.761875428631	33.911199499463
5	117696	28839.218598228857	18.331905494396
5	117713	28845.492940974934	24.229759276459
5	117811	28864.316769160411	34.907133138041
5	117901	28884.417021929146	38.891575515415
5	117906	28884.521770836676	31.039871557978
5	117911	28884.785090899515	29.358547746649
5	117920	28886.075932117298	29.561249761199
5	117939	28889.144755054392	29.957644770364
5	117946	28890.954106970394	27.576247789483
5	117956	28892.479726990267	28.852248314804
5	117975	28903.935867151877	30.102322127487
5	118073	28930.857413811685	55.156482783795
5	118079	28931.438563113128	52.810788164968
5	118090	28934.522246088812	52.340002213446
5	118109	28936.244940519265	42.872291004122
5	118116	28939.031692439908	42.809175924307
5	118133	28946.847566490287	45.487191202848
5	118190	28957.935279098937	50.74703491489
5	118202	28962.941224480682	55.461581703181
5	118212	28963.547524194694	55.902239365279
5	118217	28964.802696653833	54.378340417865
5	118228	28971.824058133058	60.959109503531
5	118247	28976.582765047134	52.792341288766
5	118256	28978.919492154322	43.020274836883
5	118275	28981.628209661633	44.615526130928
5	118282	28982.917407338883	38.044382064554
5	118293	28988.528892114026	35.22702458191
5	118298	28989.606314451774	32.087572456635
5	118311	28992.120804508307	33.169767526433
5	118373	29006.797183716826	45.016971313173
5	118378	29006.858871157478	17.209238136874
5	118387	29011.172998582155	19.590432045718
5	118407	29015.416422982929	23.004395411518
5	118417	29017.647505832828	21.85272474667
5	118429	29020.580854480107	2.904118097814
5	118440	29027.701600974441	9.965107182845
5	118453	29030.684641396165	11.465506634898
5	118458	29030.986814981031	10.158634055789
5	118467	29034.669293601717	6.881256908553
5	118485	29038.23440924732	6.401038304803
5	118492	29040.55094001736	1.680584982172
5	118605	29065.668886454788	0.394697688224
5	118620	29070.017189062084	1.866426028065
5	118636	29073.952006041626	0.886651789703
5	118662	29080.081998360188	3.503336063855
5	118673	29082.095073932601	1.802142422002
5	118684	29084.510423769049	2.363078323078
5	118695	29085.383347129786	0.861250754377
5	118723	29094.727038306737	1.637251704117
5	118770	29103.880821282343	0.517662787466
5	118774	29105.194765516169	1.814641618501
5	118814	29118.992697756772	4.545329842746
5	118860	29143.885336262103	6.345107130007
5	118922	29151.314671218841	12.866643237782
5	118930	29153.252029644344	13.478265511798
5	118955	29160.296870226607	19.274045087952
5	118964	29162.164607277954	4.151622862907
5	118983	29167.450865758775	7.753270967374
5	118987	29169.678502888782	5.784508211517
5	119010	29184.286685498292	4.525619710617
5	119035	29188.999256727974	4.969155654788
5	119098	29203.305260750687	9.063250551972
5	119104	29204.542295162938	7.895601863882
5	119109	29205.320381099932	8.261247998197
5	119145	29213.068687042577	1.996719323376
5	119165	29225.081359513275	7.803659609809
5	119193	29228.168732192749	2.293020988545
5	119289	29259.581371498496	0.564998669812
5	119305	29265.822841059056	0.754071465989
5	119342	29275.562395616801	2.139009058798
5	119349	29276.351341373626	1.993784016118
5	119359	29278.729136774205	4.135650308738
5	119370	29284.188518538025	3.62948362385
5	119383	29286.738994989934	2.500920404388
5	119415	29297.957862338348	2.371005159253
5	119455	29307.189122414316	0.12385114951
5	119471	29310.976070574218	0.60620437096
5	119478	29311.970738601741	0.463984532182
5	119496	29319.189567985401	0.511594834733
5	119518	29327.865176445591	2.934082261178
5	119576	29336.96000237407	9.305120254304
5	119589	29341.343458975553	6.881741025858
5	119602	29343.630905480599	8.013245392951
5	119609	29344.302537401093	8.538130254747
5	119622	29344.934338102877	2.731924922411
5	119629	29346.40447598146	1.827214538378
5	119667	29352.828381612651	0.18854442446
5	119677	29357.609115426889	3.137770712112
5	119697	29363.182235784879	5.566244235632
5	119702	29363.848409088798	3.49396824294
5	119707	29365.367611804636	3.494679716527
5	119711	29369.388124623657	6.394579151953
5	119732	29382.394377466582	4.326902815943
5	119791	29394.792214140857	11.821519193806
5	119850	29411.308142992799	4.976839844181
5	119858	29412.244291776467	0.161869003955
5	119918	29423.386445724212	5.761762463164
5	119923	29424.775901862573	3.701881040018
5	119930	29425.735031882709	3.113219446877
5	119934	29425.867295104467	2.553942683024
5	119969	29439.725046256687	1.543587176206
5	120005	29445.933002422329	0.757057743935
5	120029	29450.350455791272	0.228312905756
5	120053	29456.92836862084	3.000974186125
5	120065	29460.076627927008	5.620069722374
5	120074	29462.329406762384	6.58681471305
5	120095	29466.976298962702	5.750076083873
5	120118	29478.001882966182	1.825924010372
5	120144	29482.369672950747	2.540762561374
5	120149	29483.524663713676	3.52633486435
5	120156	29486.244360680067	0.21953471974
5	120172	29490.889036192813	1.592157411422
5	120196	29498.155057398945	0.321240073797
5	120220	29507.776435121691	5.183465332422
5	120251	29514.422810679978	9.06136811043
5	120277	29521.255965082825	1.797826025887
5	120299	29527.549781751544	0.063058654429
5	120313	29534.862622913029	0.993817727189
5	120340	29541.386585826649	2.015596516267
5	120381	29554.185435209218	11.224886811728
5	120464	29571.921691633895	28.903529383863
5	120471	29572.705987840172	27.82449200865
5	120479	29579.398710144746	26.114313251661
5	120492	29584.452008151686	30.951493307283
5	120508	29588.651454469842	34.804788954604
5	120513	29591.10895742675	29.703237984222
5	120529	29596.082266016308	27.940398523493
5	120576	29603.841765174447	25.192846522628
5	120583	29606.690575859263	26.002923876611
5	120599	29610.823691150458	27.8526826054
5	120632	29619.84833312019	24.05553786647
5	120666	29627.537328965503	31.15532356883
5	120675	29630.299068203599	29.519510452611
5	120688	29632.746400735539	23.92437980821
5	120709	29636.272370254746	21.896172447694
5	120722	29637.882865073864	20.90438520542
5	120731	29640.966138450034	11.312579605521
5	120742	29641.67648704748	5.427988517716
5	120746	29641.677901824037	4.829039381795
5	120759	29648.427365664651	1.475136915615
5	120768	29652.909789352472	5.022468209779
5	120778	29654.831149674391	3.632725176288
5	120802	29662.466097517003	0.324254194125
5	120816	29670.257185868086	1.91629646814
5	120830	29673.793889474759	5.034614435172
5	120878	29680.627107286759	1.862858910563
5	120885	29681.489884829553	0.937834489873
5	120915	29690.669148973678	6.507024362391
5	120931	29695.727821288884	11.024288431991
5	120944	29698.628531177345	11.152254349124
5	120953	29698.943740408641	4.520063071969
5	121002	29710.130237906577	0.269752727533
5	121022	29718.467848036117	0.943322364246
5	121026	29720.265896732502	2.278569772914
5	121036	29725.797107356043	2.456436933478
5	121045	29729.219660634876	4.725260156962
5	121068	29735.477953751988	4.086795855839
5	121072	29736.68626313951	2.39937365615
5	121093	29743.936715257034	1.400787799347
5	121115	29747.793369803259	4.413288330526
5	121194	29764.643908536346	18.197827650136
5	121202	29765.566593174351	16.754208821173
5	121208	29766.524703168351	11.447375071826
5	121213	29767.628722173542	10.053461089969
5	121218	29770.880565202979	11.212052947244
5	121225	29774.712533737916	14.654701761782
5	121237	29778.257481817956	17.855048703296
5	121242	29778.585337144032	14.195647986109
5	121253	29780.25485052647	15.610241558186
5	121284	29785.330863424008	6.069316033418
5	121297	29793.597492428374	9.882309971063
5	121322	29798.833342277416	14.250662932352
5	121330	29800.851207074842	3.671577346784
5	121337	29803.706685066237	5.284666465405
5	121350	29806.177807595598	7.650129621479
5	121370	29811.187940828939	10.895321560338
5	121410	29822.097575699776	6.259057868573
5	121417	29824.271945507909	7.745710548838
5	121424	29828.229062637442	5.344141983745
5	121437	29835.290888067848	10.771171061533
5	121464	29841.628265729456	10.595269155958
5	121528	29853.40346407181	18.273246982489
5	121535	29854.065900744244	15.167817034791
5	121553	29856.951460705504	6.982271156097
5	121600	29870.227914141446	7.390704586263
5	121641	29879.091331613396	0.284237894105
5	121648	29880.030817195329	0.026483683376
5	121668	29883.948577180798	1.711512357235
5	121709	29890.738612694319	4.164142827575
5	121720	29896.881137163533	0.431946771757
5	121778	29914.758601169799	2.841629102512
5	121831	29928.010809383026	0.9879737574
5	121839	29929.018808271838	0.063010503346
5	121847	29930.077308783164	0.503617536575
5	121871	29934.719063042173	3.601092840416
5	121893	29937.409758235068	5.894041602973
5	121898	29937.643509521189	4.551383672022
5	121910	29943.645268346204	9.444398643178
5	121941	29950.405309946183	16.039546282173

