version 2
run Second-n3-3-20191016-17:03:44-1552
attr configname Second-n3
attr datetime 20191016-17:03:44
attr experiment Second-n3
attr inifile omnetpp.ini
attr iterationvars ""
attr iterationvarsf ""
attr measurement ""
attr network org.omnetpp.queueing.Pizza
attr processid 1552
attr repetition 3
attr replication ""
attr resultdir results
attr runnumber 3
attr seedset 3
param **.PS.maxInventoriedPS 3
param **.U1.interArrivalTime exponential(3s)
param **.U2.interArrivalTime exponential(5s)
param **.PS.serviceTimeForInventoryU1 exponential(1.0s)
param **.PS.serviceTimeForInventoryU2 exponential(1.2s)
param **.PS.serviceTimeDirectU1 exponential(1.4s)
param **.PS.serviceTimeDirectU2 exponential(1.4s)
param **.PS.probabilityProducing 0.7
param **.CS.serviceTimeU1 exponential(1.1s)
param **.CS.serviceTimeU2 exponential(1.4s)

vector 0 Pizza.EntryQueueU1 queueLength:vector ETV
attr interpolationmode sample-hold
attr title "queue length, vector"
vector 1 Pizza.CS queueLength:vector ETV
attr interpolationmode sample-hold
attr title "queue length, vector"
vector 2 Pizza.EntryQueueU2 queueLength:vector ETV
attr interpolationmode sample-hold
attr title "queue length, vector"
vector 3 Pizza.sink lifeTime:vector ETV
attr interpolationmode none
attr title "lifetime of arrived jobs, vector"
attr unit s
vector 4 Pizza.sink lifeTimeU2:vector ETV
attr interpolationmode none
attr title "lifetime of arrived jobs, vector"
attr unit s
vector 5 Pizza.sink lifeTimeU1:vector ETV
attr interpolationmode none
attr title "lifetime of arrived jobs, vector"
attr unit s
0	0	0	0
0	5	2.400847172678	1
0	9	3.432143397568	2
0	11	4.111238126736	1
0	16	4.156865278345	0
0	37	10.135435936346	1
0	45	12.171015222698	2
0	46	14.544762745751	1
0	52	14.626153979526	2
0	54	15.111007312304	1
0	59	16.082734051264	0
0	65	16.235103274289	1
0	66	16.270428637503	0
0	72	18.053853411842	1
0	76	19.151275241333	2
0	78	19.243322097533	1
0	82	19.904199110127	2
0	89	21.450452234178	1
0	94	25.274381729508	0
0	115	28.168853548627	1
0	118	29.054988707499	0
0	131	32.305706955495	1
0	133	33.790864079367	0
0	144	34.124535847799	1
0	146	34.398347809865	2
0	148	36.612973321249	1
0	154	37.107919170832	0
0	161	37.937493518909	1
0	162	38.400105413589	0
0	168	39.078133816967	1
0	171	39.613434488594	0
0	178	41.094001286221	1
0	183	41.537814431899	0
0	197	42.861146948872	1
0	199	42.94025977935	2
0	200	43.607571359533	1
0	206	46.359113807823	0
0	213	46.801661533403	1
0	215	47.776040455827	2
0	219	48.441633659722	3
0	221	48.935765858334	4
0	224	49.219208043465	3
0	234	50.753588505927	2
0	241	51.958628592465	1
0	246	52.452385069028	0
0	286	62.843021653181	1
0	293	66.723288100144	2
0	296	67.348979838454	3
0	297	67.398302975153	2
0	302	67.606401530631	1
0	308	67.631222508743	2
0	311	68.570457354232	3
0	312	69.310708180892	2
0	318	70.392903950415	3
0	319	70.504823074594	2
0	324	70.753276367697	1
0	328	71.650468613501	2
0	330	71.769555556189	3
0	334	72.233671157382	4
0	336	72.384738438494	5
0	337	72.527368884326	4
0	342	73.175277536978	3
0	346	73.276749546562	4
0	349	75.002935811782	3
0	354	78.671625823924	2
0	359	79.367100692757	1
0	363	80.117372462721	2
0	365	80.295767463359	3
0	369	80.712375910422	4
0	371	81.45160439194	5
0	376	83.786156838491	6
0	377	83.847516292852	5
0	382	84.03625773271	4
0	386	84.345266805674	5
0	389	86.143088259584	4
0	393	86.253673698855	5
0	395	86.454251553385	6
0	398	87.102914296918	5
0	403	89.669978387732	4
0	409	90.033844625961	5
0	413	91.814748439382	4
0	418	92.387524944305	3
0	422	92.503518378931	4
0	427	93.005918679911	3
0	433	94.823102039813	4
0	435	95.323888685819	5
0	439	97.383386394883	6
0	441	97.706833603394	5
0	446	99.326318511015	4
0	452	100.791235989144	5
0	454	101.50523512478	4
0	460	101.871986936537	5
0	461	101.87626331799	4
0	469	103.848207030303	5
0	472	105.600075657024	4
0	478	107.56068290515	3
0	483	108.959201457451	2
0	488	109.319478766047	1
0	496	110.019592394108	2
0	498	110.320932934124	3
0	500	110.821300877047	2
0	505	111.662963529096	1
0	512	112.910831967421	0
0	530	114.896002357399	1
0	532	115.979262855453	0
0	544	116.479365033432	1
0	545	117.339326619408	0
0	552	118.269611594067	1
0	556	119.648489854805	2
0	559	121.535333936996	1
0	565	121.604018730595	2
0	567	123.37476276925	3
0	568	123.905528940972	2
0	573	123.993067438158	1
0	579	124.471163047317	2
0	580	124.592772870334	1
0	584	124.706885218919	2
0	588	125.316071034093	3
0	589	125.411698896967	2
0	595	127.021087230931	3
0	600	129.927889532114	4
0	602	130.441125273405	5
0	603	130.629520876224	4
0	611	132.392875567502	3
0	616	132.427434928627	2
0	623	133.145712309998	1
0	628	133.826675239281	0
0	640	135.10298072479	1
0	644	136.133411943628	0
0	656	136.750767629276	1
0	658	137.625059012234	0
0	695	141.249318526138	1
0	699	141.935775005064	0
0	705	142.869396514861	1
0	707	143.059943948901	2
0	710	143.278849036656	3
0	711	143.711649687538	2
0	720	147.614617199224	1
0	725	148.304080510334	0
0	736	148.756102459335	1
0	742	150.320130589538	2
0	744	151.219380140136	1
0	750	152.601636898072	0
0	763	156.371304649264	1
0	765	156.453516519011	2
0	766	158.133071776874	1
0	774	159.996784068345	0
0	797	164.327234350154	1
0	798	164.802411804773	0
0	807	165.948831487312	1
0	808	166.391446790635	0
0	838	172.731420388127	1
0	840	173.1369465023	2
0	842	173.427434145557	1
0	848	175.150401674751	0
0	862	178.677011007177	1
0	863	181.179264138117	0
0	869	181.25798226322	1
0	873	182.540761748216	0
0	884	183.608376186527	1
0	888	184.543874677853	0
0	929	189.391355431755	1
0	930	190.078056601635	0
0	961	198.236626924398	1
0	964	199.205364826369	0
0	991	205.964113534693	1
0	992	206.080867038215	0
0	1011	207.595156783935	1
0	1019	209.585118155989	0
0	1030	209.950799165293	1
0	1032	210.678888462019	0
0	1082	230.494844772866	1
0	1086	233.394285612045	2
0	1089	235.044277590111	1
0	1095	235.062619048018	2
0	1100	236.526029285101	1
0	1105	236.899635241329	0
0	1115	239.288600635636	1
0	1116	239.293031855921	0
0	1129	240.709910247639	1
0	1131	240.844890598205	2
0	1133	241.623377286158	1
0	1142	242.99285948595	0
0	1166	248.18896548306	1
0	1167	249.037940121681	0
0	1173	249.074920194158	1
0	1175	249.644973861222	0
0	1186	251.439955824967	1
0	1188	252.141819418669	0
0	1241	266.821750605848	1
0	1245	267.119482019089	2
0	1247	267.706668950495	3
0	1249	268.647641632869	4
0	1250	271.186229073319	3
0	1255	271.621012593794	2
0	1264	272.214956182403	3
0	1268	275.119670826172	4
0	1269	275.245253016341	3
0	1275	276.113672069239	2
0	1280	276.281991487805	1
0	1285	276.487763780792	0
0	1291	277.232883513462	1
0	1294	278.965361475251	0
0	1301	279.826560946098	1
0	1302	281.920192979233	0
0	1320	283.798537031615	1
0	1321	283.823865249985	0
0	1371	292.671067582755	1
0	1373	293.612156635995	2
0	1378	296.956161623538	1
0	1383	297.756946854858	0
0	1396	299.097874157224	1
0	1399	299.991864908727	0
0	1420	304.49490051323	1
0	1422	305.490479328614	2
0	1423	305.808344117287	1
0	1429	306.554422983734	0
0	1443	309.054432000035	1
0	1445	309.5006699004	0
0	1452	310.769546639513	1
0	1458	312.364870938263	0
0	1485	319.155494978787	1
0	1488	320.084219277378	0
0	1509	323.848576594558	1
0	1514	327.074724289855	0
0	1520	327.397995255245	1
0	1521	328.81384258714	0
0	1527	329.414866632926	1
0	1528	329.702796265024	0
0	1534	329.926310935478	1
0	1536	330.447069940028	0
0	1542	330.697655707728	1
0	1543	331.150193162874	0
0	1558	333.846022209167	1
0	1559	335.375277751689	0
0	1635	355.932126373386	1
0	1637	356.225783875761	2
0	1639	356.915313553661	3
0	1645	359.39655678486	4
0	1646	360.032289935198	3
0	1652	360.366858660807	2
0	1659	360.655846692543	3
0	1660	360.66424325502	2
0	1668	362.564608575644	3
0	1671	364.697593573111	2
0	1676	365.780325826713	1
0	1683	367.568475096292	0
0	1689	367.759239095794	1
0	1690	367.908932985686	0
0	1718	375.081259793512	1
0	1719	376.334366114044	0
0	1727	377.1834104519	1
0	1728	378.011699261881	0
0	1742	379.427235792534	1
0	1745	380.131112047186	2
0	1747	380.397616641168	3
0	1749	381.265036188281	4
0	1750	381.898528677458	3
0	1755	382.241351112321	2
0	1764	385.797100136697	1
0	1769	386.111709886863	0
0	1773	387.082221281841	1
0	1777	389.102323509616	2
0	1783	390.941870784321	3
0	1784	390.991014621951	2
0	1792	392.894447928433	1
0	1797	392.972252993795	0
0	1816	396.348906889565	1
0	1817	396.396459493587	0
0	1824	397.132558605606	1
0	1827	397.788347134984	0
0	1842	400.589699412043	1
0	1844	403.086684457675	2
0	1847	404.753725366514	1
0	1853	405.360230391983	0
0	1862	406.004491881284	1
0	1865	406.945508228991	0
0	1884	410.472094672537	1
0	1888	412.750441848123	2
0	1890	412.949841773202	3
0	1892	413.939928604961	4
0	1893	414.217430909128	3
0	1899	414.279705523259	4
0	1900	414.88103722377	3
0	1906	414.934494690213	4
0	1908	416.01184245546	3
0	1913	416.810955803026	2
0	1918	416.918298194262	1
0	1922	417.67671521424	2
0	1930	420.045411701502	3
0	1935	421.443898162832	4
0	1937	421.457483997747	5
0	1938	421.755368282305	4
0	1944	421.81297279114	5
0	1945	422.537051952287	4
0	1951	422.558126819581	5
0	1954	423.666007943916	4
0	1960	425.409761428854	3
0	1965	426.189224481283	2
0	1973	428.050805483691	3
0	1975	429.025811124439	2
0	1980	429.670919397275	1
0	1987	429.852112312105	2
0	1988	429.919598144067	1
0	1997	430.279950948352	0
0	2046	439.871088814181	1
0	2048	440.496799691121	0
0	2067	442.888595164892	1
0	2068	443.721922661857	0
0	2077	444.243105820488	1
0	2082	446.333201991002	0
0	2137	461.147180810181	1
0	2143	463.793367146855	2
0	2144	465.754380995598	1
0	2150	465.894808249662	2
0	2152	465.962373854865	3
0	2154	466.056233803085	4
0	2156	466.342080174859	3
0	2161	466.348881314174	2
0	2167	467.713843054952	1
0	2174	468.049256595011	2
0	2176	468.853516766716	1
0	2183	469.902011955253	0
0	2189	470.184266245409	1
0	2190	471.612038876116	0
0	2196	472.499042597712	1
0	2198	472.636139639991	2
0	2200	472.735852578996	3
0	2202	475.191150322438	2
0	2207	476.160301557713	1
0	2214	476.697526319666	2
0	2215	477.100503712859	1
0	2220	477.457917869916	0
0	2249	483.845818969927	1
0	2250	483.992762180012	0
0	2267	487.07953693239	1
0	2268	487.271253371635	0
0	2296	496.06299456754	1
0	2301	498.016543989125	0
0	2320	500.973419015843	1
0	2321	501.101599981912	0
0	2336	505.216326584469	1
0	2338	505.254619857416	0
0	2362	511.746024161749	1
0	2365	511.955101515108	0
0	2381	514.897849539698	1
0	2386	516.64016840979	0
0	2423	535.389000930136	1
0	2424	535.806313159388	0
0	2454	542.274536553489	1
0	2457	543.388326965571	0
0	2476	544.778709472062	1
0	2480	546.450248138557	0
0	2491	547.017285415053	1
0	2494	547.313434340112	2
0	2496	547.393795326145	3
0	2497	549.128745840373	2
0	2503	549.265742873548	3
0	2505	549.696329049873	4
0	2510	550.608205500817	3
0	2515	550.669928752158	2
0	2520	551.206781790974	1
0	2524	551.276962088302	2
0	2527	551.714909110151	1
0	2533	556.056999507212	0
0	2577	566.225457093413	1
0	2581	567.856607062381	2
0	2585	570.638434087676	3
0	2586	570.927824097414	2
0	2592	573.467216769512	1
0	2598	574.097672100144	2
0	2601	574.180378299225	3
0	2602	575.318411428137	2
0	2607	575.521800032966	1
0	2613	577.375632616341	0
0	2619	577.719275758524	1
0	2620	578.308655982603	0
0	2624	578.570921293516	1
0	2629	580.109089217592	0
0	2680	597.197094598094	1
0	2682	597.690742618904	2
0	2683	598.326516707454	1
0	2689	598.702810292394	2
0	2692	599.246353229334	1
0	2698	601.608096181719	0
0	2713	604.297521179192	1
0	2714	604.8296082645	0
0	2722	606.072331279635	1
0	2724	606.590861737705	2
0	2725	607.686536982419	1
0	2730	608.018708844419	0
0	2736	608.074264029348	1
0	2737	608.219012783518	0
0	2745	609.802801722642	1
0	2750	612.264732482344	0
0	2766	613.012367973919	1
0	2768	613.248000860677	0
0	2790	618.469431479823	1
0	2792	620.453686248594	0
0	2821	627.179478981276	1
0	2824	630.293231315267	0
0	2833	631.132321583961	1
0	2837	631.577096128145	2
0	2840	632.448253188373	3
0	2841	634.794915012384	2
0	2847	635.168440322484	3
0	2849	635.869391258812	2
0	2857	637.701468750007	3
0	2858	638.926338584377	2
0	2863	639.28968569521	1
0	2870	639.727298703504	0
0	2926	654.009928005156	1
0	2927	654.697592973479	0
0	2934	655.235739162401	1
0	2935	655.872029162827	0
0	2954	662.729230851452	1
0	2956	664.085643829466	2
0	2960	665.690290077207	3
0	2967	668.259190309075	2
0	2973	669.067269406256	1
0	2980	670.030483112792	2
0	2982	670.895619985424	3
0	2985	671.926801311004	2
0	2991	672.108697069159	3
0	2992	673.068504442644	2
0	2998	673.805979868165	1
0	3003	674.273006597743	0
0	3011	676.118227925031	1
0	3013	678.077363988143	2
0	3016	679.192643253312	1
0	3023	681.161614421651	2
0	3024	681.652329013463	1
0	3032	685.65485666345	0
0	3054	690.091484014016	1
0	3055	692.89994980193	0
0	3061	693.095412278868	1
0	3062	693.111446224788	0
0	3076	695.899745755416	1
0	3078	696.970559747617	2
0	3079	700.273648179523	1
0	3087	700.318018660536	2
0	3089	701.461594368734	1
0	3094	701.621095267988	0
0	3113	705.30446337698	1
0	3116	705.786611993394	0
0	3125	706.240084098832	1
0	3129	706.771630144924	2
0	3131	707.234113694939	3
0	3133	708.01944451525	2
0	3139	708.911447854449	1
0	3144	708.978360007001	0
0	3151	709.905021379347	1
0	3155	710.654697383757	0
0	3172	713.606767144441	1
0	3178	715.610479617689	0
0	3203	719.153719097621	1
0	3204	720.752311283598	0
0	3240	726.459130999817	1
0	3241	726.9709218388	0
0	3245	727.530830539442	1
0	3250	730.795506992412	0
0	3269	736.095369864442	1
0	3271	736.46848317779	2
0	3274	737.897048957678	1
0	3281	739.43655511449	0
0	3285	740.298474892923	1
0	3288	741.981476214594	0
0	3294	748.210270071332	1
0	3295	748.281886932911	0
0	3299	749.28431156976	1
0	3301	749.745662261713	2
0	3306	751.218765310898	1
0	3312	752.609596905815	0
0	3333	755.465421068727	1
0	3336	757.347804111416	0
0	3342	757.442266655816	1
0	3343	757.451866275139	0
0	3419	779.381106452933	1
0	3421	779.61583121103	2
0	3422	781.192894271281	1
0	3431	782.921638662395	0
0	3437	783.077104851071	1
0	3439	783.408941696177	2
0	3440	784.610406728667	1
0	3445	785.739107263716	0
0	3468	787.970661988359	1
0	3469	788.170837578918	0
0	3473	788.919690414485	1
0	3476	792.626202740078	0
0	3480	795.042284440786	1
0	3482	795.811043530562	2
0	3484	795.843335297612	3
0	3489	796.4826219065	2
0	3495	797.409151842001	3
0	3497	797.614264006866	2
0	3504	798.179262068187	1
0	3509	798.767889100142	0
0	3516	801.560196968167	1
0	3517	801.56768316911	0
0	3532	802.90481571612	1
0	3533	802.974672918643	0
0	3544	806.289423207747	1
0	3550	807.433666560799	2
0	3551	807.530799777196	1
0	3557	807.920357247858	2
0	3560	809.700056363428	1
0	3569	813.218005323384	2
0	3572	814.893497081329	1
0	3577	815.086998107033	0
0	3581	815.17795637029	1
0	3587	815.776064160702	2
0	3591	817.010062792504	1
0	3599	818.505063801305	0
0	3626	828.190332304951	1
0	3627	828.692525334786	0
0	3633	828.947800583795	1
0	3634	830.011466336623	0
0	3667	838.50252563551	1
0	3669	838.732635128996	2
0	3670	839.572315733731	1
0	3675	839.987463322565	0
0	3692	843.048117484156	1
0	3693	843.075404231946	0
0	3700	843.649362024477	1
0	3705	846.826114277157	0
0	3718	851.595351126653	1
0	3721	852.111473364295	0
0	3745	860.379114417989	1
0	3746	860.746804735095	0
0	3768	863.56137298884	1
0	3770	863.590788698014	2
0	3772	863.668542008957	3
0	3777	865.078930583647	2
0	3786	865.418218338482	3
0	3787	865.441011258439	2
0	3793	867.305632286648	1
0	3798	867.750300914648	0
0	3809	868.365945888267	1
0	3810	868.405265601142	0
0	3817	869.01264480425	1
0	3818	869.098255968853	0
0	3836	873.249133770636	1
0	3837	873.764123069599	0
0	3843	874.272295083061	1
0	3849	876.124372744299	2
0	3850	876.613176962346	1
0	3855	877.526344797709	0
0	3868	880.222458179707	1
0	3870	881.699045484466	2
0	3871	882.034989728715	1
0	3880	885.635659282302	0
0	3895	888.780121048303	1
0	3896	888.842906118359	0
0	3907	889.473525760282	1
0	3908	890.10997293547	0
0	3928	890.68428403322	1
0	3929	891.041580736086	0
0	3938	891.493490159823	1
0	3941	892.140684862146	2
0	3942	892.267624973055	1
0	3950	892.602109215944	2
0	3952	893.379324264076	1
0	3957	893.910686709619	0
0	3975	896.54342817437	1
0	3976	896.551774909984	0
0	3997	903.984215808167	1
0	3999	904.671167867867	2
0	4002	905.265546318503	1
0	4008	906.07445471649	2
0	4012	907.336797905537	3
0	4014	907.536658195686	4
0	4015	907.676111900623	3
0	4021	909.311844802381	2
0	4027	913.04856381871	3
0	4030	915.375803624617	2
0	4034	915.695473806235	3
0	4038	917.82667412456	4
0	4042	918.787058038156	3
0	4048	919.371397535752	2
0	4052	920.781686983301	3
0	4054	922.731328964215	4
0	4056	924.660931648273	5
0	4059	925.358303296079	4
0	4067	929.576094523479	5
0	4068	930.20099177826	4
0	4076	933.514908971005	3
0	4084	933.971256076562	4
0	4086	935.848237703458	3
0	4093	937.575635768914	2
0	4099	937.851665784454	1
0	4104	938.375501269803	0
0	4134	942.082873557981	1
0	4137	943.054034138308	0
0	4151	943.480481425278	1
0	4152	945.095159914847	0
0	4164	946.89755670539	1
0	4165	947.427185363879	0
0	4177	948.344155424957	1
0	4178	948.394747991694	0
0	4189	949.537249350939	1
0	4190	950.417803467429	0
0	4215	957.130076479023	1
0	4217	957.470510022471	2
0	4220	958.153860377476	1
0	4226	959.488412185853	0
0	4247	961.391705246394	1
0	4248	961.99394281027	0
0	4270	965.725711737298	1
0	4273	966.479879845829	0
0	4292	969.444640978638	1
0	4296	970.989861122191	2
0	4297	972.437608049866	1
0	4304	972.905892805579	2
0	4305	973.481193427617	1
0	4310	973.633015059088	0
0	4319	973.905996822542	1
0	4323	974.456451032379	0
0	4339	979.369086862336	1
0	4343	979.654447008514	2
0	4346	981.099935518837	1
0	4351	981.942673519287	0
0	4373	984.821530495	1
0	4374	985.441398809021	0
0	4395	995.277708217565	1
0	4396	995.811975133961	0
0	4424	1001.234095605192	1
0	4425	1001.260227367551	0
0	4432	1002.352744017164	1
0	4433	1002.379920743973	0
0	4441	1002.844746337716	1
0	4443	1003.85813669832	0
0	4466	1010.588993258727	1
0	4468	1011.769709910713	0
0	4482	1014.07392000805	1
0	4483	1014.697439166025	0
0	4504	1016.74207168609	1
0	4506	1016.903413073188	2
0	4507	1016.994318173463	1
0	4513	1017.515275763713	0
0	4517	1018.95683798799	1
0	4523	1019.421029518655	0
0	4537	1022.955222202664	1
0	4538	1023.553022733674	0
0	4569	1041.336211714444	1
0	4571	1042.008984302788	0
0	4584	1045.141853691428	1
0	4586	1046.586505020528	2
0	4589	1048.494910342105	3
0	4590	1049.870558288596	2
0	4595	1050.243189543443	1
0	4604	1053.643409482851	0
0	4625	1056.437124612096	1
0	4626	1056.709961897609	0
0	4639	1058.18133859757	1
0	4643	1059.430654429744	2
0	4644	1059.627927079355	1
0	4649	1059.774202884437	0
0	4674	1066.249883898526	1
0	4676	1066.830656543013	2
0	4677	1067.133333261329	1
0	4683	1067.764817699451	0
0	4695	1071.690323963753	1
0	4698	1073.815517292051	0
0	4763	1088.425845101038	1
0	4764	1089.280784634417	0
0	4779	1091.944643580089	1
0	4781	1092.065204063878	2
0	4782	1096.085390747332	1
0	4788	1096.499028659017	0
0	4801	1099.879270793118	1
0	4809	1100.871154027093	0
0	4820	1101.818598620304	1
0	4824	1103.863965677049	0
0	4888	1118.952109124932	1
0	4890	1119.199050664438	2
0	4892	1119.844602342518	3
0	4894	1120.935626915872	2
0	4900	1121.19724013026	3
0	4903	1124.395965389591	4
0	4904	1124.858576997775	3
0	4910	1126.050612145075	2
0	4915	1126.453206528293	1
0	4924	1128.278183995731	0
0	4933	1128.936168386836	1
0	4937	1132.185175226045	0
0	4948	1134.427002008359	1
0	4956	1137.90474878516	0
0	5035	1154.529342097228	1
0	5037	1154.727826392848	2
0	5038	1155.628445128546	1
0	5044	1156.516650943368	0
0	5056	1157.915306630314	1
0	5057	1158.87046552082	0
0	5107	1173.365479810037	1
0	5112	1174.630441795059	2
0	5113	1175.098926192283	1
0	5118	1175.164611502894	0
0	5126	1176.262795978452	1
0	5127	1176.714807247032	0
0	5139	1178.525334473781	1
0	5143	1180.416316170277	0
0	5161	1181.793366432481	1
0	5163	1182.017298385766	2
0	5164	1183.538906847976	1
0	5170	1184.442646504183	0
0	5176	1185.02818604865	1
0	5177	1187.046748280009	0
0	5184	1188.575931117594	1
0	5187	1189.357316694468	0
0	5259	1204.385024682999	1
0	5261	1206.238712113962	0
0	5267	1206.884343089027	1
0	5269	1207.300126548821	0
0	5278	1209.436689789621	1
0	5281	1210.215151396362	0
0	5290	1211.07190924696	1
0	5296	1214.052448240906	0
0	5313	1216.651182507854	1
0	5315	1216.955371648626	2
0	5320	1219.197452833464	1
0	5325	1219.633564971025	0
0	5334	1223.03987310104	1
0	5338	1226.429948851224	0
0	5357	1229.427385141261	1
0	5367	1231.972679848978	2
0	5368	1233.079524815857	1
0	5374	1233.306374586821	2
0	5375	1234.326362610661	1
0	5380	1234.535890736011	0
0	5409	1241.75206980291	1
0	5411	1242.287164768859	2
0	5413	1243.568553841731	3
0	5414	1243.888870476276	2
0	5419	1244.118992648267	1
0	5425	1244.709748313875	0
0	5436	1245.699106852747	1
0	5443	1246.529971290554	2
0	5445	1246.922368918345	1
0	5450	1247.688724012855	0
0	5456	1248.893077499565	1
0	5457	1249.297665959014	0
0	5474	1252.771345015759	1
0	5475	1253.149763898474	0
0	5499	1255.296140954547	1
0	5503	1255.993885168287	2
0	5504	1257.161813526054	1
0	5510	1258.195574430461	0
0	5550	1267.869127607424	1
0	5554	1270.777013019973	2
0	5555	1270.977588442156	1
0	5560	1271.231450385058	0
0	5566	1271.525919826039	1
0	5568	1272.444947299347	0
0	5574	1272.60180542784	1
0	5579	1274.14460355738	2
0	5582	1276.954836667707	1
0	5587	1279.046226622146	0
0	5630	1293.831984016942	1
0	5631	1294.556243229784	0
0	5663	1301.113925770315	1
0	5665	1301.887435392934	2
0	5666	1302.991270004533	1
0	5672	1304.257660505112	0
0	5695	1312.685918241609	1
0	5697	1312.993826021167	2
0	5698	1313.024888665548	1
0	5706	1315.31035722092	0
0	5723	1320.163336006742	1
0	5728	1321.893890977278	2
0	5730	1322.292644239917	3
0	5731	1322.300658939041	2
0	5739	1322.650280075148	1
0	5745	1323.14476588867	2
0	5746	1325.610427051228	1
0	5753	1326.379403951001	0
0	5759	1326.426383759994	1
0	5760	1326.756181318672	0
0	5764	1327.388671564248	1
0	5766	1327.714936920833	2
0	5768	1328.600689944559	3
0	5771	1329.80716788145	2
0	5775	1330.100194760091	3
0	5778	1330.757876826326	2
0	5782	1331.129312101573	3
0	5787	1331.942799379057	4
0	5795	1335.68373785881	5
0	5796	1335.949544524817	4
0	5802	1337.305389943642	3
0	5808	1337.501926539974	4
0	5811	1338.47357572428	3
0	5819	1340.384979294483	2
0	5824	1340.933728671392	1
0	5828	1343.241553759693	2
0	5833	1343.452983836568	3
0	5835	1343.772958109844	2
0	5841	1344.430244557401	3
0	5843	1345.54185184595	2
0	5848	1345.594377267919	1
0	5853	1346.511949128941	0
0	5859	1350.336683519496	1
0	5860	1350.358811608269	0
0	5882	1352.341480401621	1
0	5885	1352.898941830345	2
0	5886	1353.126747566683	1
0	5891	1354.520921469858	0
0	5898	1355.039917898654	1
0	5899	1355.687456603569	0
0	5917	1357.156758900613	1
0	5921	1357.953009412453	0
0	5951	1365.233309663791	1
0	5952	1367.465663927553	0
0	5960	1369.959412423706	1
0	5961	1371.850211190182	0
0	5967	1372.198991313392	1
0	5969	1374.140851356518	0
0	5977	1374.31841600725	1
0	5979	1375.381895654084	2
0	5982	1376.363482124806	1
0	5988	1377.17479001333	2
0	5989	1377.469508207165	1
0	5994	1378.381068359619	0
0	6013	1382.684861590352	1
0	6020	1385.411716562451	0
0	6026	1385.852032616477	1
0	6030	1386.877875970709	0
0	6036	1387.255003982885	1
0	6037	1387.321278927739	0
0	6061	1389.772445847691	1
0	6063	1391.686830210931	2
0	6070	1396.217257469673	1
0	6076	1396.732704519623	0
0	6091	1402.886613695681	1
0	6093	1403.455607523826	2
0	6094	1405.086012430866	1
0	6100	1405.190616985426	2
0	6102	1405.393992037127	3
0	6105	1405.937041416092	2
0	6110	1406.017850531135	1
0	6119	1407.268090665849	2
0	6123	1408.066088828002	1
0	6129	1408.313362194673	2
0	6130	1409.640528117459	1
0	6136	1409.822951025288	2
0	6138	1410.496664090327	3
0	6140	1411.808756664678	2
0	6146	1412.193817650309	1
0	6151	1412.234370022769	0
0	6162	1412.591378285364	1
0	6167	1414.858885869377	0
0	6176	1417.322651324334	1
0	6177	1419.103809788847	0
0	6209	1428.216579522244	1
0	6213	1428.729426090964	2
0	6214	1429.316281608825	1
0	6220	1429.572028833893	0
0	6234	1432.161905164482	1
0	6238	1432.794918134556	2
0	6240	1433.394801074689	3
0	6242	1434.079298234135	2
0	6251	1438.175997365069	1
0	6257	1438.482695169586	0
0	6271	1439.633830191995	1
0	6273	1440.169771694261	2
0	6275	1440.45709417878	3
0	6277	1440.681030160212	2
0	6284	1441.739221874266	1
0	6290	1441.919750729314	2
0	6293	1442.397486055156	1
0	6300	1443.809815383647	0
0	6304	1444.208686032171	1
0	6308	1444.443127950784	0
0	6319	1446.39768802718	1
0	6321	1446.773231005607	0
0	6351	1451.558538269279	1
0	6354	1454.312510531104	0
0	6366	1455.968420711906	1
0	6367	1455.969925005582	0
0	6387	1460.171160563113	1
0	6388	1460.699030107814	0
0	6402	1463.280863935171	1
0	6406	1465.721683245059	2
0	6407	1468.413061847791	1
0	6414	1468.954524660015	2
0	6415	1468.976019561951	1
0	6420	1469.255424347038	0
0	6432	1469.677180303787	1
0	6434	1470.624400469023	0
0	6463	1482.601840354196	1
0	6466	1484.480003185996	0
0	6480	1486.750539436855	1
0	6482	1487.247661564384	2
0	6484	1487.295432300642	3
0	6488	1487.926575377226	4
0	6489	1488.506993510024	3
0	6495	1489.100714560918	2
0	6504	1490.347794124222	3
0	6505	1490.502014869028	2
0	6510	1490.659660579221	1
0	6515	1490.678405418955	0
0	6532	1495.588367195716	1
0	6535	1496.843738427105	0
0	6539	1496.975338358394	1
0	6542	1497.647789517068	0
0	6546	1497.877667918913	1
0	6551	1498.829264215043	0
0	6565	1500.271890921164	1
0	6567	1501.016331264514	2
0	6570	1502.189799471083	1
0	6577	1502.446107259542	2
0	6578	1503.513300596129	1
0	6583	1503.522964763437	0
0	6597	1509.234735869354	1
0	6599	1511.530340184633	0
0	6605	1513.513313172251	1
0	6608	1514.513235350397	0
0	6646	1530.268517015989	1
0	6647	1531.008015004672	0
0	6664	1533.851959703138	1
0	6665	1536.498308055801	0
0	6700	1545.088387015771	1
0	6701	1545.11253449748	0
0	6716	1548.541176025849	1
0	6717	1548.577153550195	0
0	6742	1556.528677853247	1
0	6744	1558.615716442196	0
0	6753	1561.547384594489	1
0	6754	1561.734000310272	0
0	6769	1563.586535945438	1
0	6770	1563.907366525019	0
0	6782	1564.780227268848	1
0	6785	1565.336966084036	0
0	6805	1572.507862111382	1
0	6806	1573.042792990045	0
0	6857	1586.317280743314	1
0	6860	1588.162703798019	0
0	6899	1596.062064253055	1
0	6901	1596.675576893957	0
0	6916	1603.63709153515	1
0	6917	1603.741606121997	0
0	6932	1606.476242255831	1
0	6933	1606.705340389231	0
0	7025	1637.0177855257	1
0	7033	1638.483620065273	0
0	7061	1643.794062628431	1
0	7065	1644.575384517042	2
0	7067	1645.396904525649	3
0	7069	1645.905691578044	4
0	7071	1646.086370606954	5
0	7072	1646.411164522967	4
0	7078	1647.06512811487	5
0	7082	1648.797856927993	6
0	7085	1649.347664551844	5
0	7091	1649.502423244291	6
0	7094	1650.413203877782	5
0	7101	1651.220479759659	4
0	7106	1651.301286387358	3
0	7112	1651.451546664182	4
0	7115	1651.635039326138	5
0	7117	1653.522398870207	6
0	7119	1653.523935345144	7
0	7121	1655.355936748835	6
0	7126	1655.938864253743	5
0	7132	1656.340891736808	6
0	7134	1656.978781965781	5
0	7139	1657.548052180727	4
0	7145	1658.622951397482	5
0	7146	1658.637522341193	4
0	7153	1660.494948884668	5
0	7155	1660.969974170953	6
0	7157	1661.382891020528	7
0	7158	1663.08742887051	6
0	7164	1663.811757993043	5
0	7172	1664.164017088267	6
0	7173	1664.693335567035	5
0	7177	1664.908916159033	6
0	7181	1665.694640267942	7
0	7183	1665.729583313752	8
0	7184	1666.192198149035	7
0	7193	1667.534498252597	6
0	7200	1668.715236524045	5
0	7206	1671.486476074086	4
0	7211	1671.542687735768	3
0	7218	1672.289395218075	2
0	7223	1672.539422131862	1
0	7228	1673.746891679642	0
0	7232	1674.742591992166	1
0	7235	1675.767405002005	0
0	7239	1675.837705505851	1
0	7242	1676.822316236712	0
0	7264	1685.108759387106	1
0	7265	1685.274873544341	0
0	7301	1689.902370468945	1
0	7306	1691.340623063472	2
0	7307	1691.514847641902	1
0	7312	1692.310534705329	0
0	7320	1692.604248081806	1
0	7321	1692.64444214508	0
0	7339	1695.025462936831	1
0	7343	1696.764122688577	2
0	7344	1697.065171030752	1
0	7350	1697.799101977612	2
0	7351	1698.043858239187	1
0	7356	1698.301254752841	0
0	7360	1698.720329576958	1
0	7367	1699.891746328407	2
0	7368	1702.041294271411	1
0	7373	1702.133879772045	0
0	7388	1703.99923146223	1
0	7392	1707.763504958647	0
0	7398	1707.916010915253	1
0	7400	1709.243237242968	0
0	7406	1710.325355194009	1
0	7411	1712.572357891831	0
0	7425	1713.59800697062	1
0	7427	1714.00816352431	2
0	7432	1719.221299353941	1
0	7438	1719.357844098541	2
0	7439	1719.52117831785	1
0	7445	1719.562429859564	2
0	7446	1719.635748592913	1
0	7455	1721.252222380917	0
0	7473	1724.499639457262	1
0	7476	1726.593237755082	0
0	7490	1730.114257883164	1
0	7492	1730.912338429078	2
0	7493	1731.226520548671	1
0	7499	1732.057845520236	2
0	7506	1733.467185245699	1
0	7512	1735.166304351108	0
0	7552	1740.927584347916	1
0	7553	1741.004271794361	0
0	7564	1742.102905232854	1
0	7566	1742.17488110337	2
0	7568	1742.667845264986	3
0	7572	1746.302573463634	2
0	7578	1747.899746688879	1
0	7584	1748.240960595253	2
0	7585	1748.296716660893	1
0	7589	1748.40936871729	2
0	7593	1749.813306407915	3
0	7594	1750.024816146403	2
0	7599	1752.532817323975	1
0	7604	1754.039368982099	0
0	7608	1754.086616731934	1
0	7611	1754.467563726567	0
0	7659	1774.63582707707	1
0	7660	1774.97197320478	0
0	7682	1783.120271814856	1
0	7684	1783.318281258049	2
0	7685	1783.485655007663	1
0	7690	1783.594238502749	0
0	7736	1801.957233826778	1
0	7737	1805.186731986533	0
0	7784	1818.44034417128	1
0	7786	1819.010105202327	2
0	7789	1819.556859973723	1
0	7795	1819.864523603653	0
0	7821	1823.855087644017	1
0	7823	1824.098941270815	2
0	7824	1824.408178200385	1
0	7829	1824.824322879648	0
0	7840	1827.585467860646	1
0	7842	1830.433607593676	0
0	7860	1833.320965337263	1
0	7862	1833.391121534877	2
0	7864	1833.409018374804	3
0	7865	1833.453611756344	2
0	7870	1833.764829860134	1
0	7876	1834.510680541881	2
0	7877	1834.802763973424	1
0	7881	1837.771754736286	2
0	7885	1838.019722647175	1
0	7891	1838.78041615532	2
0	7893	1840.857966410992	1
0	7899	1842.742102082689	0
0	7910	1845.407589087779	1
0	7912	1846.024895117787	2
0	7916	1847.875066567392	3
0	7919	1849.562533002721	4
0	7923	1849.96616853578	3
0	7929	1851.700158067651	4
0	7930	1851.759956028369	3
0	7937	1855.18367722656	4
0	7940	1855.596335687748	3
0	7945	1855.681794723285	2
0	7950	1856.025315880134	1
0	7956	1857.524459627521	2
0	7962	1859.822973237238	1
0	7967	1859.996146296456	0
0	7983	1862.604975642414	1
0	7988	1865.031030497129	2
0	7989	1865.281894402299	1
0	7994	1865.487627585792	0
0	8000	1865.623324320884	1
0	8001	1866.631093515235	0
0	8007	1867.390940559485	1
0	8010	1868.856666137668	0
0	8020	1869.839266238664	1
0	8021	1870.133921443479	0
0	8028	1872.752015869469	1
0	8029	1873.082172732237	0
0	8035	1875.104289731282	1
0	8037	1875.348357842112	0
0	8050	1876.944766104764	1
0	8052	1878.550869496981	0
0	8085	1881.778260522812	1
0	8089	1883.442262438423	0
0	8109	1888.884332749945	1
0	8111	1889.147837328791	0
0	8151	1897.85250303023	1
0	8155	1899.810543973002	2
0	8157	1900.034516662412	3
0	8160	1901.606930531711	2
0	8165	1901.69723388709	1
0	8174	1902.849030825739	2
0	8177	1903.273900856177	3
0	8179	1903.557316684823	4
0	8180	1904.347025714251	3
0	8186	1905.294714682355	2
0	8192	1906.094818511973	1
0	8197	1906.206088070715	0
0	8203	1906.395371938167	1
0	8204	1906.53887581482	0
0	8208	1906.862923601437	1
0	8214	1908.500229158058	2
0	8215	1908.671352383089	1
0	8223	1910.581261738565	2
0	8224	1910.835639541548	1
0	8230	1912.723627155089	2
0	8232	1913.213770534964	1
0	8237	1913.945182266461	0
0	8241	1914.373730444623	1
0	8244	1916.09597182639	0
0	8266	1919.013022712187	1
0	8267	1919.079284010322	0
0	8290	1921.483036653693	1
0	8291	1921.762447351391	0
0	8316	1935.246435974913	1
0	8317	1936.637361480593	0
0	8324	1940.091062250685	1
0	8325	1940.290114859583	0
0	8394	1964.614108838139	1
0	8396	1965.341484755147	2
0	8398	1965.685812828716	3
0	8399	1965.811972536349	2
0	8406	1966.105015429377	3
0	8408	1966.439425994652	2
0	8415	1967.222493591062	3
0	8417	1967.51638037333	4
0	8419	1967.695646367249	5
0	8422	1968.693825599964	4
0	8427	1968.829166158226	3
0	8433	1969.752217572427	4
0	8434	1969.864694184449	3
0	8439	1971.274777566967	2
0	8443	1971.960396878694	3
0	8445	1972.518955251656	4
0	8448	1973.697884346206	3
0	8452	1974.181840024872	4
0	8454	1974.644640908479	5
0	8457	1975.125983685071	4
0	8464	1977.23644078975	3
0	8470	1978.889801684487	4
0	8472	1978.988163175816	5
0	8475	1979.964925879153	4
0	8479	1983.860844178004	5
0	8481	1984.410173237115	6
0	8485	1984.824515507484	7
0	8489	1987.125841694382	6
0	8494	1987.605836376592	5
0	8501	1989.368481780682	4
0	8506	1989.49507659809	3
0	8512	1990.28799293877	4
0	8514	1991.547580987479	3
0	8519	1991.99381063814	2
0	8524	1993.859459149996	1
0	8530	1994.550745063559	2
0	8532	1994.556344200603	3
0	8535	1995.594413508977	4
0	8537	1998.417464932938	5
0	8538	1998.553684714496	4
0	8545	1999.436641204326	3
0	8552	2001.983396838247	2
0	8558	2003.008130098682	3
0	8561	2003.423164146681	2
0	8566	2003.453089526321	1
0	8571	2005.011913249683	0
0	8615	2016.065656963638	1
0	8620	2018.889397720588	0
0	8626	2019.233904026045	1
0	8630	2021.486071533355	2
0	8633	2021.896473675316	1
0	8638	2021.997438976966	0
0	8644	2022.835964200805	1
0	8646	2022.98441299027	0
0	8653	2023.208150893823	1
0	8654	2023.305605281419	0
0	8669	2025.188360258338	1
0	8670	2025.812287032345	0
0	8678	2027.268616307466	1
0	8679	2029.997161904861	0
0	8704	2032.534948468847	1
0	8709	2038.413564549487	0
0	8729	2046.336943729495	1
0	8730	2047.187703468798	0
0	8761	2051.592302782161	1
0	8762	2051.936637108039	0
0	8795	2069.326143202514	1
0	8796	2070.683736209177	0
0	8809	2074.624459068537	1
0	8811	2075.021280007178	2
0	8812	2075.429710141861	1
0	8816	2076.412101647754	2
0	8818	2076.621311283222	3
0	8824	2078.210835394031	4
0	8826	2078.320614238845	5
0	8831	2079.5402316417	6
0	8832	2079.919803678258	5
0	8840	2081.95982255943	6
0	8842	2082.936273938292	7
0	8844	2083.075757473898	8
0	8846	2084.99608261311	9
0	8847	2085.419908592764	8
0	8852	2087.729362353262	7
0	8856	2088.330439350087	8
0	8861	2089.962642121566	7
0	8866	2091.096880289884	6
0	8874	2095.43416520203	7
0	8877	2096.414404206351	6
0	8882	2098.15578807823	5
0	8888	2099.524150669379	6
0	8890	2099.632135907937	7
0	8893	2100.662000505589	6
0	8899	2105.244787909219	5
0	8907	2105.671139692851	6
0	8909	2106.791743931782	7
0	8911	2108.771384780432	6
0	8917	2109.988854433071	5
0	8922	2109.997099207688	4
0	8927	2110.276441878846	3
0	8932	2110.456523202414	2
0	8936	2110.48150738698	3
0	8941	2111.22305085937	2
0	8946	2112.028020683107	1
0	8955	2113.554551457688	0
0	8959	2114.761576397258	1
0	8962	2115.995231874002	0
0	9005	2130.394191586072	1
0	9009	2131.787657591553	0
0	9016	2132.965870116124	1
0	9017	2132.974365916391	0
0	9029	2133.612548512887	1
0	9030	2135.90644065907	0
0	9055	2141.544846643597	1
0	9057	2142.284207046657	2
0	9058	2143.666171694723	1
0	9065	2144.059925951977	0
0	9074	2145.679370961161	1
0	9076	2145.704444852155	2
0	9077	2146.23047252816	1
0	9084	2147.915735701957	0
0	9100	2153.003523283733	1
0	9101	2153.006571841746	0
0	9112	2153.328450413575	1
0	9114	2154.769114176166	0
0	9126	2155.460381962181	1
0	9128	2156.871994952038	2
0	9130	2157.596969904358	3
0	9132	2158.065322037294	4
0	9135	2159.776941439312	3
0	9141	2160.548758467096	4
0	9143	2161.729055036647	3
0	9149	2162.244254302117	4
0	9151	2162.440105809413	5
0	9153	2162.54723294045	6
0	9155	2162.771576664527	7
0	9156	2163.003144877524	6
0	9161	2163.058824267127	5
0	9167	2163.783295411045	4
0	9172	2164.16104180828	3
0	9179	2165.123211450203	2
0	9186	2165.493898796036	1
0	9192	2165.956346817335	0
0	9203	2167.742861267585	1
0	9204	2167.761361905243	0
0	9219	2169.258505821227	1
0	9224	2170.520292233502	2
0	9226	2170.983297414915	3
0	9227	2172.24334013301	2
0	9232	2172.546344633917	1
0	9237	2173.080324974483	0
0	9246	2174.582664666195	1
0	9249	2176.428890686063	0
0	9253	2177.652790392288	1
0	9258	2179.903452185501	0
0	9283	2189.271745727987	1
0	9285	2189.82696991297	2
0	9286	2190.10712388418	1
0	9292	2193.312061213571	0
0	9303	2195.186148771221	1
0	9304	2195.901013532537	0
0	9323	2201.103693737654	1
0	9325	2201.726405943405	2
0	9327	2203.045329907956	3
0	9328	2203.839269263716	2
0	9334	2206.254604179725	1
0	9343	2207.826216728345	0
0	9365	2209.320829493738	1
0	9370	2211.265651300433	0
0	9385	2214.520864786921	1
0	9388	2215.933689278413	0
0	9400	2218.007952936077	1
0	9401	2219.142487535333	0
0	9418	2227.624422736536	1
0	9420	2228.242742041003	2
0	9422	2229.11278745677	3
0	9423	2229.333905066234	2
0	9429	2231.061476290921	1
0	9437	2232.504255269456	2
0	9439	2233.481143683315	3
0	9440	2233.649679342565	2
0	9446	2234.197713479366	1
0	9452	2234.568611967946	0
0	9458	2235.564730500943	1
0	9459	2236.076907392567	0
0	9473	2238.941697794729	1
0	9474	2239.717721109582	0
0	9520	2253.865408190961	1
0	9522	2255.526745510957	0
0	9545	2258.44666078615	1
0	9547	2259.027031894612	0
0	9592	2270.103965980607	1
0	9593	2272.441536864333	0
0	9608	2275.221834291177	1
0	9611	2276.283792457802	0
0	9618	2276.561360907202	1
0	9620	2276.824134309136	2
0	9621	2277.154999555345	1
0	9628	2278.337852755472	2
0	9630	2280.918970086879	1
0	9635	2280.920764205064	0
0	9666	2287.371972140803	1
0	9669	2289.270727108249	2
0	9670	2289.564971074173	1
0	9676	2289.79237696737	2
0	9677	2290.110039168513	1
0	9683	2290.910493395135	2
0	9684	2290.961923871995	1
0	9690	2291.301328039337	0
0	9760	2305.43956661938	1
0	9763	2306.665688514786	0
0	9777	2309.272450134492	1
0	9779	2309.485300313764	2
0	9781	2310.486323861245	1
0	9787	2312.057000026764	0
0	9803	2315.225403392578	1
0	9805	2315.332741171438	2
0	9806	2315.73371014783	1
0	9813	2316.226089936976	2
0	9815	2318.213501100849	1
0	9820	2318.868702128332	0
0	9840	2322.322390168028	1
0	9842	2323.444391203322	2
0	9843	2323.489397319528	1
0	9851	2326.089028815129	0
0	9872	2330.042606884738	1
0	9873	2330.307133777304	0
0	9936	2351.548476191219	1
0	9937	2351.566941066365	0
0	9943	2351.659943795588	1
0	9946	2352.761126448741	0
0	9968	2357.29275698709	1
0	9971	2358.875021526274	2
0	9972	2359.054455991846	1
0	9978	2359.904151952713	0
0	10042	2377.978246421797	1
0	10043	2378.643358595608	0
0	10060	2383.277145561067	1
0	10061	2384.382640358385	0
0	10069	2387.086752620443	1
0	10072	2388.117323201926	2
0	10074	2388.758102622309	3
0	10075	2388.777461605259	2
0	10080	2388.982841474301	1
0	10085	2388.999730784374	0
0	10100	2390.302863406753	1
0	10102	2390.312212230858	2
0	10106	2391.747801960155	1
0	10113	2394.722204503633	2
0	10114	2396.067564162035	1
0	10119	2396.555159348919	0
0	10174	2406.338032426539	1
0	10177	2407.156333092742	0
0	10188	2407.420050639725	1
0	10190	2407.514489203551	2
0	10194	2408.447930128505	1
0	10200	2408.509232490073	2
0	10205	2410.826541051899	1
0	10212	2412.432032129871	0
0	10226	2414.476192570462	1
0	10227	2415.475487940301	0
0	10233	2415.983582532421	1
0	10235	2417.020251495963	0
0	10247	2419.349782126357	1
0	10248	2419.384911383308	0
0	10255	2420.464275572987	1
0	10259	2421.613021553266	2
0	10261	2421.689916976345	3
0	10262	2421.835018478837	2
0	10272	2423.394423245054	1
0	10279	2424.938472810659	0
0	10290	2425.646760860331	1
0	10293	2428.540152188713	0
0	10304	2429.703495409858	1
0	10306	2431.020152498349	0
0	10336	2435.450148167546	1
0	10342	2438.062526509079	2
0	10343	2439.517321176461	1
0	10348	2439.71432971399	0
0	10360	2441.452965194017	1
0	10361	2441.597797945596	0
0	10398	2447.243247112579	1
0	10399	2447.330515880272	0
0	10409	2448.521063925457	1
0	10410	2449.068694954372	0
0	10425	2452.202706158792	1
0	10426	2453.820876027216	0
0	10454	2464.477081235435	1
0	10456	2465.328282294244	0
0	10469	2467.841318630563	1
0	10475	2469.913488062886	0
0	10501	2473.362754603083	1
0	10506	2474.344854910334	2
0	10509	2475.953212810647	3
0	10511	2477.087959687483	4
0	10514	2478.054433079871	3
0	10520	2478.257215467116	4
0	10521	2478.57967901988	3
0	10526	2479.163120857958	2
0	10532	2480.658491581712	1
0	10537	2481.518187457661	0
0	10544	2483.743481713255	1
0	10547	2486.506709501358	0
0	10618	2510.762437651167	1
0	10620	2511.240987642722	2
0	10622	2511.48243518929	3
0	10625	2515.408580174089	2
0	10631	2516.388766727199	3
0	10635	2517.140951078825	2
0	10642	2518.251012897806	1
0	10647	2518.383418188159	0
0	10672	2523.219471005872	1
0	10673	2523.301058015789	0
0	10680	2524.056529112015	1
0	10681	2525.712960099477	0
0	10694	2529.972522881323	1
0	10695	2530.396434817671	0
0	10704	2531.9349400972	1
0	10708	2532.754518869847	2
0	10710	2534.107800341596	1
0	10718	2534.610422490178	0
0	10727	2535.796968590931	1
0	10731	2536.866598109545	2
0	10733	2537.398867837283	3
0	10736	2537.753771944181	4
0	10737	2537.971938309563	3
0	10742	2538.299649955247	2
0	10749	2538.815576709824	3
0	10750	2539.19744885644	2
0	10759	2540.931895740185	1
0	10766	2542.468107285785	0
0	10793	2549.899238433313	1
0	10794	2549.930650330604	0
0	10825	2556.103250150231	1
0	10829	2556.32286319932	2
0	10830	2557.17073367912	1
0	10835	2557.474667769406	0
0	10858	2561.029600174538	1
0	10859	2561.597967071226	0
0	10905	2574.485065413502	1
0	10906	2574.805904367593	0
0	10929	2582.114164790253	1
0	10931	2582.557856965362	2
0	10932	2582.823655865115	1
0	10939	2583.178663895278	0
0	10994	2603.514936411619	1
0	10995	2603.840275619888	0
0	11002	2605.860382755425	1
0	11003	2605.994612469566	0
0	11033	2615.505893061707	1
0	11034	2615.589015669273	0
0	11073	2620.49709936263	1
0	11074	2621.45493983659	0
0	11099	2632.131019583409	1
0	11101	2633.224434352085	2
0	11102	2634.06832988008	1
0	11107	2634.651477513548	0
0	11127	2635.43996974848	1
0	11128	2636.934354552768	0
0	11135	2637.363467764471	1
0	11136	2637.379364684262	0
0	11198	2651.642339026515	1
0	11201	2652.152966565195	0
0	11207	2653.307697902778	1
0	11211	2654.499126541472	2
0	11212	2654.506699458879	1
0	11216	2654.643293683738	2
0	11223	2657.397513894337	3
0	11224	2657.586178730167	2
0	11229	2658.460549035149	1
0	11239	2661.702788979782	2
0	11240	2662.946456744836	1
0	11248	2665.27236978893	0
0	11254	2665.698184674479	1
0	11255	2666.006113074391	0
0	11259	2667.728393085211	1
0	11265	2673.354302104239	2
0	11267	2673.633596727601	1
0	11272	2673.7252374929	0
0	11276	2674.073411836662	1
0	11278	2674.105400221148	2
0	11280	2675.387315090016	3
0	11287	2677.387009187837	2
0	11291	2677.579388218839	3
0	11296	2678.559182833906	2
0	11301	2680.221967835048	1
0	11306	2683.552260087862	0
0	11310	2684.710278154227	1
0	11314	2685.981136869176	2
0	11315	2686.104551143441	1
0	11321	2689.856256425315	0
0	11358	2696.852202771323	1
0	11360	2698.122884436144	2
0	11362	2698.326455941768	3
0	11366	2699.455818589428	4
0	11368	2700.894371822564	5
0	11370	2701.486441737052	6
0	11371	2701.559885569449	5
0	11377	2702.345830893137	6
0	11379	2702.666786060048	5
0	11384	2702.767580743307	4
0	11389	2702.87141395593	3
0	11396	2703.520303948481	2
0	11401	2703.532446620357	1
0	11407	2703.541863385251	2
0	11409	2705.111915268445	1
0	11413	2705.509773981712	2
0	11419	2706.433238657277	1
0	11424	2706.47354658662	0
0	11440	2709.876313195615	1
0	11443	2711.044989594826	0
0	11449	2712.332300853782	1
0	11451	2713.463370419235	2
0	11452	2714.017547635413	1
0	11456	2715.224815880244	2
0	11459	2716.471777519287	1
0	11463	2717.945535107639	2
0	11467	2719.41759554855	3
0	11468	2720.034846799615	2
0	11473	2721.059325686123	1
0	11478	2721.350750367742	0
0	11485	2723.210655273883	1
0	11486	2723.771718180392	0
0	11512	2728.464028883816	1
0	11514	2728.686864262902	2
0	11519	2732.407388536189	1
0	11530	2734.477778543756	0
0	11548	2739.82212349741	1
0	11554	2742.793393519895	0
0	11561	2743.278220935426	1
0	11563	2743.677381243733	2
0	11564	2744.128283775709	1
0	11571	2744.648722920933	0
0	11580	2747.174725160183	1
0	11581	2747.453462765969	0
0	11598	2749.853442868104	1
0	11600	2750.966086681681	0
0	11660	2773.017270560889	1
0	11664	2773.902194175703	2
0	11666	2775.020482125539	3
0	11668	2775.451948951948	4
0	11669	2776.044370678497	3
0	11675	2776.552425607557	2
0	11682	2777.712318346631	1
0	11689	2778.400985493109	2
0	11691	2779.109979048101	1
0	11696	2779.660240409385	0
0	11723	2787.240291437185	1
0	11727	2788.08650505882	2
0	11728	2788.667031554021	1
0	11733	2789.17553965355	0
0	11739	2789.211936640518	1
0	11742	2789.539645442951	0
0	11748	2789.570635146196	1
0	11749	2789.740291446387	0
0	11789	2802.558634520631	1
0	11792	2804.31059280072	0
0	11808	2806.902170229496	1
0	11812	2809.813681932051	2
0	11814	2809.867193321996	3
0	11816	2811.003042831206	2
0	11825	2811.759457803087	3
0	11826	2812.023626569787	2
0	11831	2812.446574729052	1
0	11836	2813.822468378965	0
0	11878	2819.66694408703	1
0	11879	2820.038963209707	0
0	11886	2820.942043958259	1
0	11888	2821.390740442671	2
0	11889	2821.640755605799	1
0	11895	2821.723281554	2
0	11896	2822.036042881366	1
0	11902	2822.203823951094	0
0	11916	2824.260887613858	1
0	11921	2828.400360421113	0
0	11936	2829.605518233633	1
0	11938	2830.298800149349	2
0	11940	2830.688927537067	3
0	11942	2832.361982553023	4
0	11949	2833.537514059364	5
0	11951	2834.061036747617	6
0	11953	2834.174814516627	7
0	11955	2835.389297212941	6
0	11960	2835.717271984176	5
0	11966	2836.043980586002	6
0	11968	2837.018448196975	7
0	11972	2838.679081458299	8
0	11973	2839.448757152669	7
0	11978	2839.488739308198	6
0	11983	2839.964343067651	5
0	11991	2842.149917574523	4
0	11997	2842.623834637866	3
0	12003	2843.569436523612	2
0	12009	2844.821107151297	1
0	12014	2846.015661226659	0
0	12030	2849.604973039308	1
0	12032	2849.755575430002	2
0	12035	2850.94574291033	1
0	12040	2851.095166638067	0
0	12053	2853.094146059993	1
0	12057	2854.146370342804	2
0	12059	2854.5024342578	3
0	12064	2856.046846964502	4
0	12065	2856.354808680236	3
0	12070	2857.481585140658	2
0	12075	2857.951087027543	1
0	12081	2859.813723890133	0
0	12087	2859.841399276851	1
0	12091	2862.076712163279	0
0	12117	2867.194584277955	1
0	12121	2868.300338478011	2
0	12122	2869.231514774044	1
0	12127	2869.752469290149	0
0	12133	2869.770562717826	1
0	12135	2870.503576205926	2
0	12139	2871.498192409901	3
0	12140	2871.602959298267	2
0	12146	2873.179636342668	1
0	12153	2873.993981410577	2
0	12160	2877.672131722721	1
0	12167	2879.470159026671	2
0	12168	2885.550719086652	1
0	12174	2885.81556691346	2
0	12177	2887.021476265591	1
0	12182	2887.202930902904	0
0	12196	2888.328079620018	1
0	12200	2890.006362025258	0
0	12206	2890.130732312024	1
0	12212	2891.491841860781	0
0	12221	2894.825154275096	1
0	12223	2895.279446866794	2
0	12225	2896.189787594203	3
0	12231	2899.529929659375	2
0	12236	2899.679214744904	1
0	12247	2902.043590335581	0
0	12253	2902.860991322842	1
0	12256	2904.503288698961	0
0	12277	2906.127774319481	1
0	12278	2906.210249465639	0
0	12285	2906.879597164302	1
0	12289	2911.187869865768	0
0	12302	2912.765160228118	1
0	12304	2913.06565214967	2
0	12308	2915.066495220907	1
0	12316	2919.188629254434	0
0	12339	2921.539206883039	1
0	12340	2922.011551578342	0
0	12361	2923.759994333543	1
0	12362	2924.003317949914	0
0	12385	2930.291230367605	1
0	12388	2931.779130957156	0
0	12400	2934.997737203554	1
0	12404	2937.025173029091	2
0	12409	2941.427591741521	1
0	12414	2941.640627577165	0
0	12426	2942.859424355221	1
0	12429	2945.087592876271	0
0	12457	2949.73350832491	1
0	12461	2954.249097369913	0
0	12470	2954.913662242381	1
0	12472	2956.198419460482	2
0	12477	2958.549402830442	3
0	12479	2960.172072414572	4
0	12480	2960.903787066913	3
0	12485	2961.955265685794	2
0	12490	2963.363768478473	1
0	12498	2964.213199857849	0
0	12508	2966.290491959655	1
0	12512	2966.790141338757	2
0	12513	2968.949571223836	1
0	12520	2969.615642552105	2
0	12521	2971.33394585636	1
0	12529	2972.488771969445	2
0	12531	2972.796458183065	3
0	12533	2973.496324873183	4
0	12535	2975.47709667075	3
0	12541	2975.58060454454	4
0	12542	2975.906943638854	3
0	12548	2976.344619885901	2
0	12553	2976.431161023158	1
0	12557	2976.543039268607	2
0	12564	2980.530518576262	1
0	12574	2982.812382058016	0
0	12598	2986.695577015497	1
0	12599	2986.772184670189	0
0	12619	2989.470828658332	1
0	12620	2992.147582111269	0
0	12635	2998.677720371444	1
0	12637	2998.832662641728	2
0	12641	3000.753545103735	3
0	12646	3002.42913428206	2
0	12652	3003.645622027009	1
0	12657	3004.283139598123	0
0	12668	3007.558661550556	1
0	12671	3009.258003974408	0
0	12684	3010.201215802559	1
0	12689	3011.968346357349	0
0	12693	3013.612518029171	1
0	12695	3015.346445220722	2
0	12697	3015.838452789383	3
0	12699	3017.30391298118	4
0	12706	3018.310059871551	3
0	12713	3018.709096355065	2
0	12718	3022.268192888407	1
0	12723	3024.0166089219	0
0	12751	3026.844327306788	1
0	12752	3027.950613451661	0
0	12773	3031.080963635859	1
0	12775	3034.800298092993	0
0	12804	3043.143636921301	1
0	12805	3043.383673572507	0
0	12837	3062.806087054442	1
0	12838	3062.937239011155	0
0	12868	3080.490010039535	1
0	12869	3081.083792845523	0
0	12986	3108.077395251387	1
0	12991	3109.077279893393	2
0	12992	3110.288173887291	1
0	12997	3110.885157371293	0
0	13013	3115.6142689779	1
0	13015	3117.962517438405	0
0	13030	3118.843263334175	1
0	13031	3119.351623055213	0
0	13037	3119.570024020639	1
0	13039	3119.80803894239	0
0	13086	3134.564595003685	1
0	13090	3136.568171539814	2
0	13092	3137.258747727999	3
0	13094	3141.133100717971	4
0	13096	3141.656120938938	5
0	13097	3144.593173834688	4
0	13103	3146.346111226468	3
0	13108	3147.330364896213	2
0	13115	3149.006462598651	1
0	13122	3149.874712212336	2
0	13123	3149.890998684284	1
0	13131	3151.383209908808	0
0	13158	3156.726132219886	1
0	13159	3157.520100029769	0
0	13180	3161.419439696318	1
0	13182	3162.8476376104	0
0	13191	3163.926287060264	1
0	13193	3166.811384695651	2
0	13194	3167.569540236319	1
0	13201	3168.890560991158	2
0	13202	3169.742054621971	1
0	13207	3170.064018105186	0
0	13213	3170.681661998434	1
0	13214	3171.143151348232	0
0	13220	3171.434538185993	1
0	13221	3171.606389423922	0
0	13228	3172.297071305254	1
0	13232	3173.733449776568	0
0	13238	3173.905105359855	1
0	13240	3174.039453213303	2
0	13243	3174.694369792698	1
0	13250	3176.447441630987	0
0	13254	3178.087100923765	1
0	13257	3178.341667406888	0
0	13263	3179.001258975177	1
0	13269	3180.584774854567	2
0	13270	3182.379950367087	1
0	13276	3182.605407833674	2
0	13277	3182.704568860948	1
0	13285	3186.239146857061	0
0	13291	3186.881534953161	1
0	13292	3188.5271470409	0
0	13305	3191.092947896588	1
0	13307	3191.109650447784	2
0	13309	3191.203245883131	3
0	13314	3193.057352507493	2
0	13319	3193.27177776034	1
0	13324	3193.852293633801	0
0	13336	3195.39265522953	1
0	13338	3198.479420472295	2
0	13339	3199.115575736628	1
0	13345	3200.045657585243	2
0	13346	3200.184344331842	1
0	13361	3203.065064732175	2
0	13362	3203.273884881181	1
0	13368	3204.53208498295	2
0	13371	3207.048202810997	1
0	13375	3207.709822812335	2
0	13378	3208.852945550563	1
0	13382	3210.732882150356	2
0	13385	3212.8059792586	1
0	13391	3214.953023786365	2
0	13392	3215.081100400106	1
0	13404	3219.477300178399	0
0	13416	3221.083764039967	1
0	13417	3221.787764019988	0
0	13436	3224.652638873432	1
0	13439	3226.18111699034	0
0	13486	3236.387812833198	1
0	13490	3237.273621619893	2
0	13491	3237.900991086823	1
0	13496	3238.227556191685	0
0	13505	3238.628156803492	1
0	13507	3239.652924006742	2
0	13513	3241.241235375325	3
0	13518	3243.491614874895	2
0	13523	3244.127611080403	1
0	13532	3247.731342867019	0
0	13543	3248.639554248938	1
0	13544	3249.368393578789	0
0	13553	3250.017542251119	1
0	13557	3251.116178141036	0
0	13582	3256.444250771668	1
0	13583	3256.814781783981	0
0	13594	3258.325670614385	1
0	13596	3258.330200580385	2
0	13598	3258.573307709616	3
0	13599	3259.496485331114	2
0	13607	3259.731433373889	3
0	13608	3259.737553501405	2
0	13613	3260.592414408318	1
0	13619	3261.205887953145	0
0	13635	3264.151992231067	1
0	13636	3265.435974195669	0
0	13658	3267.97433402458	1
0	13659	3269.201415254968	0
0	13665	3269.254466115059	1
0	13667	3270.040653600927	0
0	13682	3272.19116964125	1
0	13686	3273.691533509888	0
0	13696	3275.270371003193	1
0	13700	3278.955450482978	2
0	13701	3279.05657211349	1
0	13708	3280.867592215405	0
0	13722	3281.79579610732	1
0	13725	3282.193433737028	0
0	13733	3283.997515910113	1
0	13734	3284.915038178895	0
0	13759	3287.467118306277	1
0	13762	3288.740522056316	0
0	13768	3289.793250471628	1
0	13772	3289.844591157991	2
0	13773	3289.95295441453	1
0	13777	3291.200725894537	2
0	13781	3291.693226504025	1
0	13786	3292.558567933504	0
0	13818	3300.198621064541	1
0	13819	3300.693665854508	0
0	13860	3308.443992410846	1
0	13869	3312.939501902437	0
0	13876	3314.425949443874	1
0	13877	3314.453691502468	0
0	13897	3319.067743779737	1
0	13903	3320.240722673513	2
0	13906	3321.932450411328	1
0	13914	3326.169872370059	0
0	13926	3327.79556736092	1
0	13928	3327.90740523254	2
0	13929	3328.081509051066	1
0	13935	3328.145603679764	2
0	13936	3328.320973272368	1
0	13941	3329.549576992406	0
0	13955	3333.750991656351	1
0	13956	3334.113508836029	0
0	13962	3334.46782317032	1
0	13963	3334.813711213903	0
0	13969	3335.415916620564	1
0	13973	3337.333950023631	0
0	13979	3337.602426606319	1
0	13980	3337.865786448318	0
0	13991	3339.575883380835	1
0	13992	3339.700978604145	0
0	14016	3343.269562896689	1
0	14023	3344.846966889458	2
0	14025	3344.920485946995	3
0	14028	3346.783408393575	2
0	14034	3347.196196727467	3
0	14036	3347.202288528318	4
0	14039	3349.129219644043	3
0	14044	3349.552308101223	2
0	14049	3350.902341078539	1
0	14054	3352.151364930365	0
0	14078	3355.99866721969	1
0	14079	3357.185626006253	0
0	14097	3358.330418538848	1
0	14099	3359.863280905368	2
0	14102	3360.369693747165	3
0	14105	3363.096848962504	2
0	14110	3363.498722675809	1
0	14119	3365.817984656533	0
0	14141	3369.290467135703	1
0	14143	3371.426571580983	2
0	14145	3371.744533934594	3
0	14149	3372.961974954343	4
0	14152	3374.907263282691	3
0	14161	3375.703120053394	2
0	14167	3377.70986145481	1
0	14172	3377.751169815045	0
0	14190	3380.767127630213	1
0	14193	3381.523155082578	0
0	14200	3382.331767375591	1
0	14202	3382.410645273968	2
0	14206	3382.765766014932	3
0	14207	3383.069404194986	2
0	14214	3384.451615933427	3
0	14216	3385.583368669849	2
0	14222	3386.042444087346	1
0	14227	3386.340928316847	0
0	14233	3387.570222172431	1
0	14234	3388.405387648543	0
0	14253	3392.782185715993	1
0	14255	3395.277061005863	0
0	14275	3399.353411653097	1
0	14276	3399.874440402033	0
0	14295	3401.837292267519	1
0	14298	3402.894739436885	0
0	14366	3414.407074931784	1
0	14368	3415.11921861737	0
0	14399	3421.475709258213	1
0	14402	3422.58923054408	0
0	14409	3422.821839997353	1
0	14411	3423.148944804069	2
0	14412	3423.654578576664	1
0	14417	3423.711187860458	0
0	14432	3427.612222033153	1
0	14438	3430.200205521979	0
0	14449	3431.634898064263	1
0	14454	3433.901927504867	0
0	14493	3447.635830935194	1
0	14495	3447.673032972673	2
0	14499	3448.54018919626	3
0	14502	3449.517028005201	2
0	14507	3449.920867039807	1
0	14513	3450.557355291838	2
0	14514	3451.24597074204	1
0	14520	3452.505453706269	0
0	14537	3457.03728604777	1
0	14539	3457.919887802241	2
0	14541	3458.860293633811	3
0	14546	3460.673120368237	2
0	14551	3461.508209627834	1
0	14555	3463.317949095868	2
0	14557	3464.263953178979	3
0	14561	3465.20327480409	4
0	14563	3465.932755958228	5
0	14566	3467.680253788389	4
0	14571	3467.812083843091	3
0	14576	3467.912733035221	2
0	14582	3468.996716220148	1
0	14587	3469.240671750134	0
0	14591	3469.960469331255	1
0	14595	3471.458155171987	2
0	14597	3473.372106018731	3
0	14603	3475.868374340552	2
0	14608	3475.901858205512	1
0	14614	3477.122825136465	2
0	14615	3477.182314585909	1
0	14621	3478.32192880028	0
0	14639	3479.481255567603	1
0	14643	3481.071738414723	0
0	14664	3487.574832809562	1
0	14670	3488.294957114019	0
0	14695	3491.641630123734	1
0	14699	3492.747777220595	2
0	14700	3492.843957129751	1
0	14706	3493.86589715196	0
0	14713	3496.903498084889	1
0	14716	3497.380570963434	0
0	14791	3521.873478882962	1
0	14793	3522.900353440753	2
0	14795	3523.077327213894	3
0	14796	3523.210525805973	2
0	14801	3523.243645120135	1
0	14807	3525.672880265402	0
0	14823	3535.136349267984	1
0	14824	3536.263931353867	0
0	14831	3538.160029163327	1
0	14832	3538.271268559405	0
0	14879	3554.770863417666	1
0	14885	3555.870597423512	2
0	14887	3557.110139527174	1
0	14893	3557.743478705327	0
0	14902	3561.224183341518	1
0	14903	3561.575487370587	0
0	14909	3561.701912447022	1
0	14910	3563.608657746431	0
0	14921	3564.652799688756	1
0	14922	3565.184060328765	0
0	14938	3566.499876090681	1
0	14939	3566.564631341136	0
0	14943	3566.723242265274	1
0	14945	3567.386453171133	2
0	14948	3568.138706794672	1
0	14956	3571.522066544591	0
0	15000	3585.369354896756	1
0	15003	3586.393975317199	0
0	15011	3588.148675046405	1
0	15014	3589.140631042086	0
0	15059	3603.997281542752	1
0	15060	3605.265008093436	0
0	15071	3607.468275600873	1
0	15073	3607.953802739693	2
0	15078	3609.328253320256	1
0	15084	3609.454320148331	2
0	15085	3609.993006958703	1
0	15091	3610.446855133161	2
0	15092	3610.510417316515	1
0	15099	3612.121968391368	2
0	15100	3612.217894785176	1
0	15105	3612.229313423422	0
0	15109	3612.253966295153	1
0	15111	3612.386287527622	2
0	15117	3616.944764744689	1
0	15124	3618.586992252773	2
0	15126	3619.084648506239	3
0	15127	3620.230631158422	2
0	15134	3622.334543390179	1
0	15139	3622.473685048649	0
0	15175	3625.779364953108	1
0	15178	3626.46687171932	0
0	15195	3629.700569920873	1
0	15197	3630.439797794698	2
0	15199	3630.475599805049	3
0	15202	3631.173222163267	2
0	15207	3631.286202533073	1
0	15212	3632.90580849852	0
0	15238	3638.800532625716	1
0	15240	3641.062208415383	2
0	15242	3641.728828408733	3
0	15244	3642.799695989839	4
0	15247	3644.176776646393	3
0	15252	3644.824907692659	2
0	15259	3644.914526258962	3
0	15261	3645.436487925028	4
0	15263	3648.117792857646	3
0	15269	3648.860703592901	2
0	15275	3649.192265566361	3
0	15277	3649.458260444889	2
0	15284	3650.804745939122	1
0	15291	3651.908512103564	0
0	15310	3656.395425232374	1
0	15314	3657.057438246872	0
0	15342	3663.368191240932	1
0	15344	3664.571525155842	0
0	15408	3677.203796476445	1
0	15410	3677.776580031545	2
0	15411	3679.181761923107	1
0	15416	3679.211961621751	0
0	15461	3688.640647924025	1
0	15466	3689.626552612015	0
0	15520	3704.102365386352	1
0	15526	3706.576371781774	2
0	15527	3707.009761557777	1
0	15532	3707.334959911633	0
0	15539	3708.415588830297	1
0	15540	3708.511041606306	0
0	15589	3722.32777133533	1
0	15596	3724.409193865465	0
0	15602	3725.01403348533	1
0	15605	3725.551923283479	0
0	15626	3732.066471380342	1
0	15630	3732.336107967778	2
0	15632	3732.342886268101	3
0	15633	3732.942215725569	2
0	15638	3732.997913013656	1
0	15647	3735.95263103666	0
0	15672	3740.761042569044	1
0	15674	3741.203137080746	2
0	15680	3742.211119800087	1
0	15685	3743.51927930866	0
0	15696	3743.88025181338	1
0	15698	3743.882082186508	2
0	15700	3746.469201103282	3
0	15703	3746.939909861789	4
0	15705	3747.515373280943	5
0	15707	3747.878119229125	4
0	15712	3748.086197857332	3
0	15718	3748.484967305742	4
0	15720	3749.99682862182	3
0	15726	3751.234022336078	2
0	15733	3752.44737848149	3
0	15735	3753.574009299478	4
0	15738	3753.992332328432	3
0	15747	3756.190068299187	2
0	15753	3756.298451013005	3
0	15754	3756.406908705676	2
0	15760	3757.272269581617	3
0	15761	3757.834237179086	2
0	15767	3758.352659325662	3
0	15769	3758.987292554149	4
0	15773	3759.67201323109	5
0	15774	3760.2457283415	4
0	15782	3762.935688048834	3
0	15787	3763.532713507265	2
0	15792	3763.907029688036	1
0	15798	3763.940999464138	2
0	15804	3766.725735599559	1
0	15810	3767.058602470643	2
0	15812	3767.499790258944	1
0	15816	3767.860656684467	2
0	15821	3768.201321473934	3
0	15822	3769.695496908553	2
0	15834	3772.957747319321	1
0	15839	3774.025779767275	0
0	15851	3775.319637582922	1
0	15852	3775.546635212152	0
0	15858	3775.563343629649	1
0	15859	3776.177352696513	0
0	15879	3779.663124853249	1
0	15881	3779.934985224916	2
0	15882	3782.336534631357	1
0	15887	3782.588216958895	0
0	15891	3783.117344606089	1
0	15894	3783.349288057866	0
0	15898	3784.208113512815	1
0	15901	3785.759066878659	0
0	15925	3787.557563108302	1
0	15926	3788.825885119147	0
0	15948	3792.35999185423	1
0	15950	3793.471010034513	2
0	15956	3794.82177112744	3
0	15957	3795.0463501229	2
0	15964	3795.507377885313	3
0	15965	3795.730791337685	2
0	15973	3797.404377182985	3
0	15975	3797.499878241382	4
0	15976	3798.264180811709	3
0	15982	3800.168899505819	2
0	15990	3800.303938281068	1
0	15997	3801.478652995834	2
0	15999	3801.604173919143	3
0	16000	3801.84978034308	2
0	16005	3801.983568500054	1
0	16010	3803.841557800136	0
0	16035	3808.766199764126	1
0	16037	3809.243823030759	2
0	16038	3809.614822466414	1
0	16043	3810.197710976097	0
0	16055	3811.014463413451	1
0	16057	3813.142117151528	0
0	16063	3813.319710674941	1
0	16064	3813.486371472883	0
0	16071	3813.708517511429	1
0	16072	3813.906185689102	0
0	16084	3815.713068060425	1
0	16087	3815.850871066388	2
0	16089	3817.050299547457	3
0	16092	3817.638405919744	2
0	16097	3818.180635574553	1
0	16103	3820.83683085616	0
0	16120	3826.720081633689	1
0	16127	3829.420424782949	0
0	16137	3831.847093225127	1
0	16140	3833.228548837986	2
0	16142	3833.703816138693	3
0	16147	3835.146995200958	2
0	16152	3835.497826983606	1
0	16159	3836.209600785847	0
0	16165	3836.552078879532	1
0	16166	3836.814529874872	0
0	16178	3838.604483917773	1
0	16182	3838.947213321481	0
0	16209	3842.76365778624	1
0	16214	3846.486482278153	0
0	16221	3847.534528229695	1
0	16222	3848.34086549874	0
0	16231	3850.729951252163	1
0	16234	3852.782983565084	0
0	16245	3853.537230059437	1
0	16249	3856.598131219675	2
0	16251	3857.829219964685	3
0	16253	3857.971810403666	4
0	16255	3858.04687312517	5
0	16259	3858.410162491795	6
0	16261	3858.553869836681	7
0	16263	3859.214441427164	6
0	16269	3860.350181107392	5
0	16275	3861.470860402856	4
0	16280	3861.588704020536	3
0	16285	3863.1854499348	2
0	16289	3865.097801475807	3
0	16291	3865.559980762282	4
0	16296	3868.994636818788	3
0	16302	3869.313627554305	4
0	16303	3870.162584819913	3
0	16309	3871.242359775586	2
0	16314	3872.114886672382	1
0	16318	3872.600219389293	2
0	16320	3872.805903353896	3
0	16323	3873.402151176246	2
0	16331	3874.133472043377	3
0	16333	3874.408520924834	2
0	16342	3877.053960731227	1
0	16349	3878.255883061045	0
0	16363	3880.72200099469	1
0	16364	3881.797720769308	0
0	16385	3883.521119620918	1
0	16387	3885.003041558277	2
0	16388	3885.054048105309	1
0	16395	3886.546212777451	2
0	16398	3887.53984235672	1
0	16404	3887.857311256531	0
0	16415	3889.500626936931	1
0	16416	3890.124650888446	0
0	16430	3891.338502023707	1
0	16433	3892.07059456947	0
0	16444	3896.767324496272	1
0	16446	3897.966541779987	2
0	16448	3898.059374288369	3
0	16451	3898.858130209658	2
0	16456	3899.339507852515	1
0	16460	3900.496502992338	2
0	16465	3904.409333456794	1
0	16477	3905.971672961135	2
0	16479	3907.421249965614	3
0	16480	3908.459339203985	2
0	16489	3911.105756522036	1
0	16494	3911.200855375362	0
0	16510	3913.658073398651	1
0	16513	3913.974207016632	2
0	16515	3917.081353103692	1
0	16521	3917.719960819568	2
0	16523	3919.076701282821	1
0	16530	3919.417375109111	2
0	16532	3921.229298063567	3
0	16533	3921.544785621692	2
0	16538	3921.864573182834	1
0	16543	3922.073533594963	0
0	16553	3924.752185719037	1
0	16556	3926.24513393134	0
0	16566	3928.140782240121	1
0	16568	3928.289099828211	2
0	16571	3929.636580393342	1
0	16576	3929.66209407386	0
0	16583	3931.532135840251	1
0	16585	3931.634199973624	2
0	16587	3932.101989561649	3
0	16590	3932.129722012338	2
0	16596	3932.531310062028	3
0	16598	3933.506226056163	2
0	16604	3933.588074658596	3
0	16609	3934.261494310999	2
0	16614	3935.205085638574	1
0	16619	3935.263003548391	0
0	16628	3937.151744458268	1
0	16631	3938.499551304373	0
0	16653	3947.176469305395	1
0	16658	3949.920765816491	0
0	16702	3956.333120881682	1
0	16707	3957.0714541599	0
0	16747	3965.593932938196	1
0	16749	3965.815122666819	2
0	16752	3967.579418043017	1
0	16758	3968.688854715141	0
0	16770	3971.270266301158	1
0	16774	3975.41531472892	2
0	16775	3976.570295071093	1
0	16781	3976.572452559698	2
0	16783	3976.923245054661	3
0	16787	3978.001904000861	2
0	16793	3980.234153886831	1
0	16799	3980.351695883147	2
0	16802	3980.745302392555	1
0	16809	3981.784560740776	0
0	16852	3989.80073185159	1
0	16855	3989.994631832047	2
0	16856	3990.15447717244	1
0	16864	3991.80436304246	2
0	16866	3992.301763989747	3
0	16868	3992.531108972859	4
0	16871	3993.738357566745	3
0	16876	3993.920208663827	2
0	16881	3994.244478511823	1
0	16889	3995.613224116838	2
0	16892	3996.352498080091	3
0	16893	3997.292692421254	2
0	16898	3997.964672199945	1
0	16904	3998.229414401171	2
0	16905	3998.37442700692	1
0	16913	3998.835758193906	2
0	16915	3999.626359818045	1
0	16920	4001.605102760336	0
0	16932	4005.127336055848	1
0	16937	4008.017473320296	0
0	16948	4009.179781953226	1
0	16950	4010.063289594778	0
0	16970	4013.382451822013	1
0	16971	4014.931272389922	0
0	17018	4033.99475793118	1
0	17019	4035.493866417232	0
0	17036	4040.553738173292	1
0	17038	4042.713209149493	0
0	17075	4052.816381751348	1
0	17076	4052.867760890204	0
0	17082	4053.157173490438	1
0	17083	4053.211482174869	0
0	17115	4062.624674582344	1
0	17117	4063.403698120621	2
0	17118	4063.472018243547	1
0	17125	4064.331336109231	0
0	17168	4080.100209985619	1
0	17170	4081.313719168322	2
0	17171	4081.713123335495	1
0	17176	4081.826664245482	0
0	17189	4082.691545598044	1
0	17191	4083.451041163103	2
0	17193	4084.868530916266	1
0	17198	4084.968169331533	0
0	17202	4087.353861278399	1
0	17205	4088.116985454586	0
0	17211	4089.659374376345	1
0	17215	4090.418868969578	0
0	17251	4098.201395915576	1
0	17253	4099.307680227028	0
0	17276	4101.989333154482	1
0	17282	4103.632821230502	2
0	17286	4104.416005623817	3
0	17288	4105.42517296664	4
0	17289	4107.126547635143	3
0	17294	4107.240133564255	2
0	17302	4109.183657925	1
0	17310	4109.86873115503	2
0	17311	4109.912756474767	1
0	17318	4111.320537484154	2
0	17321	4112.770548115729	1
0	17327	4112.978672891053	0
0	17346	4117.496714750846	1
0	17347	4117.573107152006	0
0	17373	4126.511984081424	1
0	17376	4127.574974755635	0
0	17388	4130.279246546846	1
0	17390	4130.411400455695	2
0	17391	4130.45500531041	1
0	17396	4130.866696292181	0
0	17402	4130.89432159012	1
0	17403	4130.969510569686	0
0	17439	4142.858165795877	1
0	17440	4143.640355168887	0
0	17464	4146.610329401753	1
0	17467	4147.819394509671	2
0	17469	4148.183141162974	3
0	17470	4148.429052397449	2
0	17475	4148.789216968974	1
0	17480	4149.013445753314	0
0	17494	4151.501256153487	1
0	17495	4151.906846119535	0
0	17527	4158.340105628631	1
0	17529	4159.10410659423	0
0	17559	4166.572174568396	1
0	17560	4167.061915897991	0
0	17568	4167.248966904149	1
0	17569	4167.273192465491	0
0	17585	4170.007337245003	1
0	17587	4170.973089036948	2
0	17588	4171.449523723879	1
0	17594	4172.035683663483	0
0	17605	4173.468881408039	1
0	17606	4174.585305354387	0
0	17660	4202.062033025516	1
0	17665	4203.744659410446	0
0	17698	4212.232553548918	1
0	17700	4212.311840107784	2
0	17702	4212.312961964942	3
0	17703	4212.388707865778	2
0	17711	4212.563362231785	1
0	17717	4213.216856554844	2
0	17721	4214.05326758506	3
0	17722	4214.272470757089	2
0	17727	4215.165454629251	1
0	17733	4215.931725494784	0
0	17784	4227.501016993998	1
0	17786	4230.600879009227	0
0	17792	4230.615419488284	1
0	17796	4231.799665580711	0
0	17802	4232.203521628404	1
0	17803	4234.182541933097	0
0	17809	4234.642522886073	1
0	17810	4234.686438183275	0
0	17821	4236.074265449122	1
0	17824	4236.919555355635	0
0	17832	4240.039886088697	1
0	17835	4240.22674433384	2
0	17836	4241.190075747689	1
0	17841	4241.314157282344	0
0	17864	4243.694646847539	1
0	17868	4244.588294249199	0
0	17879	4245.698760057535	1
0	17883	4246.048572639935	2
0	17884	4248.201566104972	1
0	17892	4249.054654179787	0
0	17903	4250.354261113313	1
0	17905	4251.69268456795	2
0	17907	4252.488706630142	1
0	17913	4253.059045471384	2
0	17914	4253.843585428392	1
0	17920	4255.934987693496	0
0	17931	4257.913873411311	1
0	17934	4260.395314795612	0
0	17945	4261.341327131785	1
0	17948	4262.94170680206	0
0	17955	4264.783095775603	1
0	17959	4265.773619670885	0
0	17975	4268.155918137449	1
0	17981	4269.059774115469	0
0	17987	4269.152310131485	1
0	17990	4269.372794625996	0
0	18011	4272.452546329346	1
0	18013	4272.951935319144	0
0	18028	4276.790358641622	1
0	18030	4276.992462241278	2
0	18034	4280.136214641441	3
0	18036	4280.196757676825	4
0	18038	4282.667398077179	5
0	18043	4284.545230818069	4
0	18048	4285.209225531819	3
0	18056	4285.658627515892	4
0	18057	4286.277125342369	3
0	18062	4286.472450749116	2
0	18070	4290.710203783259	3
0	18071	4291.249708273256	2
0	18079	4293.479098919569	1
0	18083	4295.29712948319	2
0	18086	4295.416581690714	1
0	18090	4296.583233036312	2
0	18097	4301.374310596467	1
0	18101	4301.521828153535	2
0	18104	4304.614008954925	1
0	18108	4304.943885623498	2
0	18112	4306.287749749275	3
0	18113	4306.991986858389	2
0	18117	4307.239814316954	3
0	18121	4308.141971911702	2
0	18126	4308.250223918774	1
0	18130	4308.714770938996	2
0	18133	4312.09892645836	1
0	18137	4312.314639978843	2
0	18141	4316.02010139118	3
0	18142	4316.596082333946	2
0	18147	4318.729810193593	1
0	18151	4318.856301471649	2
0	18154	4320.702818116146	1
0	18159	4321.657002691614	0
0	18163	4323.26628479479	1
0	18165	4323.321910275658	2
0	18171	4323.612648431217	3
0	18172	4324.568976831177	2
0	18177	4326.923901509626	1
0	18182	4327.712269196505	0
0	18188	4330.388232678011	1
0	18189	4331.36168634142	0
0	18193	4331.682471855534	1
0	18199	4334.136464548164	2
0	18202	4335.114866104066	1
0	18209	4337.722999213059	0
0	18217	4342.516903192934	1
0	18218	4343.029262639581	0
0	18242	4355.738860406743	1
0	18246	4357.494818766038	0
0	18272	4360.203926808439	1
0	18274	4361.404702679045	2
0	18276	4361.56547564638	3
0	18277	4361.702438846315	2
0	18282	4361.759409270962	1
0	18288	4365.96489906466	2
0	18290	4366.162646622094	3
0	18295	4368.068167893198	4
0	18296	4368.143613333647	3
0	18302	4368.230022581262	4
0	18303	4368.881100179225	3
0	18311	4374.478601869416	2
0	18317	4375.071929345214	3
0	18318	4375.148551585246	2
0	18323	4375.278358411941	1
0	18333	4377.934544327708	0
0	18339	4378.086950120711	1
0	18345	4379.636353721044	2
0	18346	4379.806657758579	1
0	18351	4381.865781585819	0
0	18357	4382.805229937607	1
0	18358	4383.369300651636	0
0	18377	4384.364444513046	1
0	18378	4384.568047762997	0
0	18397	4388.086664489836	1
0	18398	4388.293107720819	0
0	18418	4392.201429098763	1
0	18422	4396.776058267761	0
0	18436	4398.487303986011	1
0	18439	4399.05677639151	0
0	18445	4399.933296472313	1
0	18454	4401.083069091038	0
0	18463	4401.679270419806	1
0	18465	4404.400946786034	2
0	18467	4405.094885694944	3
0	18471	4406.04184397306	4
0	18472	4406.328270806789	3
0	18483	4407.997924916776	2
0	18489	4408.523444618858	3
0	18490	4408.595004024654	2
0	18495	4408.951034037083	1
0	18502	4409.975413195043	0
0	18547	4415.946563237483	1
0	18550	4417.605316718414	0
0	18572	4420.157038094284	1
0	18577	4421.434440868904	0
0	18586	4422.688962858656	1
0	18588	4424.042463230663	2
0	18592	4424.149470647006	1
0	18597	4424.326964368692	0
0	18633	4433.741303181572	1
0	18636	4435.407606622585	0
0	18681	4448.655122532797	1
0	18682	4449.109981187072	0
0	18698	4452.103768808512	1
0	18701	4452.413578573519	2
0	18703	4452.423324812183	3
0	18706	4455.268559760579	4
0	18709	4455.536594934263	3
0	18714	4456.417645408574	2
0	18719	4457.30788779902	1
0	18727	4458.646960758002	2
0	18729	4458.910389005894	3
0	18731	4459.395966378726	4
0	18732	4459.712464620769	3
0	18736	4459.758330259191	4
0	18743	4464.440130177397	5
0	18744	4465.493127715703	4
0	18749	4465.494284030463	3
0	18753	4466.345597551658	4
0	18758	4467.150470080402	3
0	18763	4467.810538386578	2
0	18768	4468.643028434541	1
0	18772	4468.753764695063	2
0	18777	4470.059853870599	1
0	18783	4470.169341375412	2
0	18787	4470.909871518477	3
0	18788	4471.639700012045	2
0	18793	4471.933036583671	1
0	18802	4472.990097302268	2
0	18803	4473.91091682493	1
0	18809	4474.695574993985	0
0	18843	4480.863756658636	1
0	18844	4480.988018945415	0
0	18860	4482.441933675606	1
0	18861	4483.061333396725	0
0	18908	4493.515848295221	1
0	18910	4494.1367020827	2
0	18911	4494.835742058133	1
0	18918	4496.152142527179	0
0	18922	4496.272424169347	1
0	18924	4496.801556427282	2
0	18929	4500.161439974223	1
0	18933	4500.592108179753	2
0	18936	4501.917825884875	1
0	18942	4503.387542599273	0
0	18983	4510.673861127433	1
0	18984	4511.418217769562	0
0	19006	4516.477291721771	1
0	19007	4516.980743168739	0
0	19019	4519.659263168024	1
0	19023	4520.579530477352	0
0	19035	4521.392123418332	1
0	19036	4521.540459235764	0
0	19057	4529.645313942236	1
0	19058	4529.903228987922	0
0	19066	4530.346558204784	1
0	19067	4530.36116195942	0
0	19080	4532.951503813984	1
0	19084	4533.227121896708	2
0	19086	4533.822205867477	3
0	19088	4535.385758232094	4
0	19090	4535.46053889713	5
0	19091	4535.617189928813	4
0	19097	4535.696937433133	3
0	19102	4535.868323656245	2
0	19109	4537.60514399271	3
0	19110	4538.559716265405	2
0	19115	4538.832568789234	1
0	19119	4539.291139508551	2
0	19123	4539.931127354	3
0	19125	4540.02742887112	4
0	19126	4542.12679709399	3
0	19130	4542.567002266857	4
0	19132	4543.258123908494	5
0	19134	4544.993696484138	6
0	19139	4547.837896405326	5
0	19143	4548.718392055748	6
0	19148	4549.309157411547	5
0	19155	4551.701444868823	6
0	19157	4551.766838404715	7
0	19161	4552.397078934257	6
0	19168	4552.763935104683	5
0	19174	4553.257307354253	4
0	19179	4553.372638053877	3
0	19183	4554.321874045426	4
0	19185	4555.287361396547	5
0	19190	4556.166874223464	6
0	19191	4558.916875723734	5
0	19196	4559.866602088551	4
0	19200	4559.950042680782	5
0	19204	4560.981567149269	4
0	19210	4561.135011073736	5
0	19211	4561.794096630047	4
0	19218	4562.509798409114	3
0	19223	4562.688394828874	2
0	19228	4564.738804611758	1
0	19238	4568.942736445506	0
0	19263	4574.448220759029	1
0	19266	4574.735097585724	2
0	19268	4576.627450929795	1
0	19276	4578.351754456671	2
0	19278	4579.8298780672	1
0	19287	4581.171261840719	0
0	19312	4584.758048464541	1
0	19315	4587.64842601468	0
0	19331	4589.994345889676	1
0	19332	4590.084155840021	0
0	19339	4590.944742528809	1
0	19341	4591.600496484642	0
0	19368	4594.208468932036	1
0	19370	4594.812075587128	2
0	19372	4595.128664790851	3
0	19380	4597.468512300093	2
0	19389	4598.319875195802	3
0	19390	4598.925253993997	2
0	19398	4599.40177816021	3
0	19400	4601.012572549738	2
0	19405	4601.888320896178	1
0	19411	4602.260695602034	0
0	19417	4602.301976578107	1
0	19420	4604.278410963193	0
0	19426	4604.97263637395	1
0	19429	4606.206511905623	0
0	19460	4611.391794987754	1
0	19462	4612.340827442042	2
0	19463	4612.548189794793	1
0	19473	4613.703828165729	0
0	19492	4617.091964992918	1
0	19496	4618.673556049791	2
0	19498	4618.962257099079	3
0	19499	4619.313235144577	2
0	19504	4619.419797990655	1
0	19511	4619.85203575355	2
0	19514	4619.926335369275	3
0	19516	4620.412484867729	4
0	19517	4620.544627523305	3
0	19523	4621.304806377478	2
0	19529	4621.421135648076	3
0	19533	4624.260264912035	2
0	19546	4630.576503753015	1
0	19551	4630.687069530491	0
0	19558	4631.552904613224	1
0	19559	4632.104900529494	0
0	19575	4638.228942865732	1
0	19577	4638.858474278118	2
0	19579	4641.185141672623	3
0	19584	4642.104253984437	2
0	19591	4642.456164687974	3
0	19592	4642.514086112268	2
0	19597	4643.280123346978	1
0	19604	4647.97464477574	0
0	19615	4648.745915093028	1
0	19616	4649.049321792573	0
0	19620	4649.198686769981	1
0	19622	4650.589978592306	2
0	19626	4652.124297825068	3
0	19627	4652.259148304706	2
0	19632	4652.989055650157	1
0	19641	4656.513444288276	0
0	19671	4661.690174522912	1
0	19672	4662.286383130549	0
0	19678	4662.999410380656	1
0	19680	4664.816844162866	0
0	19700	4667.632450996182	1
0	19702	4670.426582110891	2
0	19704	4671.138606163839	3
0	19706	4671.561962084576	4
0	19707	4674.7664854216	3
0	19713	4676.019491289022	2
0	19718	4676.154283835154	1
0	19724	4676.433070941581	2
0	19726	4677.350328411576	1
0	19731	4679.566072727617	0
0	19742	4683.264848233718	1
0	19745	4685.24825113185	0
0	19756	4686.620248862307	1
0	19759	4687.949619558541	0
0	19768	4689.194951369001	1
0	19772	4690.699572695779	0
0	19778	4691.416701421962	1
0	19780	4691.722507885549	2
0	19781	4692.283568392472	1
0	19787	4692.471948067998	2
0	19789	4694.392442990611	1
0	19795	4696.252238480157	2
0	19796	4696.372899612253	1
0	19800	4696.458755980895	2
0	19805	4698.414622352042	3
0	19806	4698.506255618386	2
0	19812	4701.562094353096	1
0	19817	4702.352452675259	0
0	19821	4704.037391301527	1
0	19825	4704.766509464192	0
0	19860	4712.87626389941	1
0	19863	4713.988901631664	0
0	19889	4720.269432429687	1
0	19892	4720.600550204398	0
0	19917	4723.560523457246	1
0	19920	4724.983705060614	0
0	19931	4725.612718865153	1
0	19933	4726.294421221919	2
0	19936	4727.400540135949	1
0	19942	4727.697455941463	2
0	19946	4728.018652134119	1
0	19951	4728.900435549318	0
0	19957	4729.851529924616	1
0	19960	4730.098791368373	2
0	19961	4730.235698676407	1
0	19968	4732.587761818724	2
0	19969	4733.435479347068	1
0	19975	4734.428720263648	0
0	19990	4738.355621508551	1
0	19992	4740.015414124378	0
0	20024	4744.527062459109	1
0	20028	4746.505882044441	2
0	20044	4751.887827711897	3
0	20045	4752.665739679904	2
0	20050	4753.067451912937	1
0	20055	4753.452889464683	0
0	20079	4758.315825332213	1
0	20081	4758.584800421904	2
0	20083	4760.254154526793	3
0	20089	4763.40554763552	4
0	20090	4763.527524850058	3
0	20095	4763.765921916859	2
0	20100	4763.80404308995	1
0	20105	4764.183342049834	0
0	20132	4772.269170379586	1
0	20134	4772.498903094178	2
0	20135	4772.939288009607	1
0	20140	4773.119092243077	0
0	20166	4777.939067023303	1
0	20167	4780.275764549323	0
0	20173	4780.661964523603	1
0	20177	4781.091573532601	2
0	20178	4781.68687279476	1
0	20185	4783.236500063603	0
0	20194	4783.576486291511	1
0	20197	4785.752363311736	0
0	20204	4786.270049200789	1
0	20205	4786.43053516287	0
0	20211	4786.616802775777	1
0	20212	4787.106399544388	0
0	20216	4787.798642016018	1
0	20218	4788.225721261877	2
0	20222	4789.727300589657	3
0	20223	4790.053625863391	2
0	20229	4790.744295312312	1
0	20240	4793.232404232614	0
0	20261	4794.55927337649	1
0	20262	4794.606629086667	0
0	20275	4795.725514304805	1
0	20276	4796.277954282871	0
0	20290	4799.109032826961	1
0	20295	4799.620125993462	2
0	20297	4799.743624405063	3
0	20299	4800.807348045343	2
0	20304	4801.92516719235	1
0	20309	4803.160935372276	0
0	20326	4806.229633763203	1
0	20329	4806.51209295449	0
0	20352	4817.748314644811	1
0	20358	4819.861658387576	2
0	20359	4819.91467542895	1
0	20364	4820.027398052119	0
0	20378	4821.18387787506	1
0	20383	4822.606524506234	0
0	20405	4827.023681877034	1
0	20406	4827.10216020396	0
0	20429	4837.260129788359	1
0	20430	4839.952290458355	0
0	20446	4842.856609399258	1
0	20447	4843.866749890113	0
0	20453	4843.945052414297	1
0	20454	4844.205732111614	0
0	20470	4845.859234758901	1
0	20472	4847.647208046998	2
0	20478	4852.540751565222	3
0	20480	4852.766098324932	4
0	20485	4855.250943379769	5
0	20487	4856.358060141935	4
0	20496	4863.220871785929	5
0	20497	4863.762578959908	4
0	20502	4863.862318956019	3
0	20508	4864.213383809295	2
0	20516	4864.821079389511	3
0	20520	4867.253536292659	4
0	20525	4869.423860157092	3
0	20531	4869.999101053573	2
0	20538	4870.404775730989	1
0	20543	4870.729991684521	0
0	20551	4872.789910122463	1
0	20556	4875.062901242574	0
0	20583	4877.85791677309	1
0	20585	4880.702725484213	2
0	20586	4880.712016302864	1
0	20592	4881.4492918663	0
0	20600	4883.607711527449	1
0	20602	4883.667241776416	2
0	20604	4883.915149400626	3
0	20605	4884.19974224743	2
0	20611	4885.082947273229	1
0	20616	4885.114596921905	0
0	20624	4886.323036391798	1
0	20627	4888.191381164652	0
0	20671	4897.759685786247	1
0	20673	4897.95255710812	2
0	20674	4898.710510252376	1
0	20679	4898.94415559605	0
0	20692	4899.909853463966	1
0	20694	4900.029607903205	2
0	20698	4902.810063953536	3
0	20700	4902.984925299021	4
0	20704	4903.814569413803	5
0	20705	4904.544865407299	4
0	20710	4904.565890599376	3
0	20715	4904.759584049638	2
0	20722	4905.651039278034	1
0	20729	4906.078755746567	0
0	20735	4906.413671254275	1
0	20737	4906.420553874127	2
0	20740	4907.902328601092	1
0	20746	4908.161027286606	0
0	20768	4911.962920646296	1
0	20769	4912.421868167865	0
0	20807	4922.24357119911	1
0	20810	4922.821908798382	0
0	20825	4925.472459153447	1
0	20828	4927.919966345138	0
0	20864	4940.477676667572	1
0	20865	4940.51526610203	0
0	20894	4950.741961610091	1
0	20896	4951.642164215256	2
0	20897	4952.037182917244	1
0	20902	4952.801050723502	0
0	20943	4960.309486618304	1
0	20945	4962.186779794897	0
0	20993	4972.213771746675	1
0	20995	4972.786332881103	2
0	20997	4974.657549119974	3
0	20999	4974.898771472219	4
0	21000	4975.239705843877	3
0	21005	4975.465352715566	2
0	21010	4976.660095865622	1
0	21015	4976.731040654385	0
0	21019	4977.409512073854	1
0	21023	4977.755469625463	2
0	21025	4978.179862572233	1
0	21037	4981.16013984008	0
0	21048	4982.454682884982	1
[...]
5	118652	28677.837678379046	4.263933001196
5	118657	28678.932088974309	3.062272753323
5	118664	28680.920240943587	3.587765837041
5	118679	28684.305294120132	4.44665017969
5	118705	28691.900362070515	6.380131810292
5	118714	28694.221808383254	7.582440233052
5	118719	28694.391075600933	4.875259281308
5	118726	28698.373375828615	6.005433362519
5	118734	28701.934523115843	8.084177818702
5	118739	28702.098831234525	1.225996515043
5	118768	28708.259629655718	5.4238247331
5	118773	28708.289423519252	1.962003055475
5	118781	28709.729582123989	2.35825657494
5	118786	28710.412238293913	3.007622284547
5	118808	28715.659574656252	5.03193085675
5	118813	28716.976220439401	4.629708877673
5	118821	28717.457525959161	2.327040193305
5	118826	28717.853071457166	0.411109417096
5	118845	28723.241411612575	3.299340533269
5	118850	28723.605277546831	1.298033683169
5	118917	28738.782155126389	0.628164502936
5	118925	28740.773953092244	2.577700683195
5	118934	28742.072853181887	3.591191736024
5	118939	28742.133270360783	2.508265978801
5	118974	28747.116383266152	1.751871711696
5	118987	28749.236349587928	0.713293913928
5	118995	28750.530015748909	0.01010173351
5	119008	28756.801293781767	2.677235787131
5	119013	28758.095571312272	3.436770237359
5	119028	28762.641039243741	0.548646161987
5	119064	28770.483209676488	3.23089515828
5	119069	28770.584206272581	1.44379264204
5	119087	28775.890827823469	4.173179742627
5	119097	28778.325889671727	3.027619675822
5	119107	28781.981188331575	6.526413528939
5	119113	28784.367678686979	6.195322704497
5	119118	28784.428537551593	3.251796878494
5	119125	28785.390461449714	3.599638274353
5	119136	28786.157629814435	0.29589701351
5	119146	28788.745457034506	1.917248386486
5	119157	28790.216101692749	1.022873206127
5	119164	28791.181908672218	1.454712427158
5	119173	28794.601023027612	4.01358282288
5	119195	28800.573460211286	5.730905413186
5	119203	28803.847708421132	8.896041907721
5	119211	28805.928613499519	9.305136551817
5	119223	28808.363389453513	8.330787896024
5	119237	28811.828999653856	5.886992271684
5	119269	28824.950696920542	6.3965497247
5	119279	28826.398059749279	1.910743145647
5	119284	28827.132229511806	1.74594601268
5	119289	28827.602552524667	1.453651915719
5	119309	28831.580132716766	2.796479622528
5	119315	28834.49214939864	5.683047787601
5	119350	28843.382805984706	5.590720232926
5	119358	28844.170897707983	4.838467936915
5	119363	28844.515749154845	4.889881345232
5	119368	28845.271129237442	2.764951353094
5	119379	28848.931478209795	5.869945764131
5	119388	28852.649656807168	8.963890475494
5	119393	28853.074993221652	5.738084020846
5	119402	28854.421623225583	5.988296885155
5	119407	28854.860402539612	0.838837934108
5	119419	28856.73037986456	1.617216737256
5	119438	28858.569346601019	1.455958792875
5	119443	28858.934299832798	1.174279750567
5	119471	28861.743595293879	1.744003162312
5	119477	28862.296084219096	1.112546838078
5	119501	28868.962081488346	6.131109348778
5	119511	28870.691366070762	5.763199845293
5	119518	28871.048977167507	4.775679749562
5	119523	28871.191682619399	2.181397771958
5	119560	28878.958695216355	2.227886366559
5	119596	28884.272947189308	1.168499972417
5	119602	28885.198667133859	1.251178678121
5	119622	28890.127606832556	4.888463236378
5	119627	28890.504766677179	0.788971343114
5	119641	28892.356987939635	1.567922203079
5	119663	28898.202508899629	3.244252735222
5	119669	28898.933490268938	3.320652855623
5	119687	28904.696848602962	4.085719229658
5	119704	28906.708882240263	1.431548225904
5	119713	28909.249548635637	2.973740593576
5	119726	28912.800759542686	6.121570164823
5	119735	28915.568201011898	8.501423799888
5	119745	28916.957548154764	9.568937758641
5	119751	28917.546151317329	6.899949163733
5	119758	28918.757081237804	7.910689974718
5	119770	28923.806819457262	11.824131848669
5	119775	28924.882783433504	9.166762192751
5	119781	28925.558959497823	3.344853619083
5	119816	28932.428449478936	3.741255063863
5	119821	28932.666842305874	1.445175885317
5	119850	28941.647392216488	4.541940053602
5	119861	28943.699813272662	5.391281212756
5	119868	28944.020624411031	3.307683526664
5	119876	28944.473088929919	2.457407671345
5	119883	28945.753768285301	1.631289361828
5	119909	28951.124532746704	2.482435368786
5	119914	28951.284469055343	1.409732207018
5	119936	28956.827006802449	3.688496149644
5	119946	28957.888612852189	2.047991977807
5	119954	28959.248059350625	2.842153738508
5	119959	28959.850716934362	1.55444553498
5	120001	28972.623703632129	4.005296463928
5	120006	28972.747751870685	3.81664302331
5	120011	28973.290427417323	0.884335499637
5	120021	28980.905524767227	8.331197226855
5	120025	28981.111374493103	1.764036373547
5	120050	28989.490851731355	3.862168294642
5	120055	28989.701878162763	2.970412641945
5	120064	28991.909346087947	4.03370728903
5	120073	28992.497874826182	4.530942767682
5	120081	28994.720680248591	2.430998534663
5	120103	29001.860079109258	5.648188397073
5	120132	29007.08200677522	2.155149091994
5	120138	29009.313302384316	2.715945383443
5	120156	29015.669216057533	4.92075357045
5	120161	29015.77376019933	1.274459219707
5	120168	29017.376667871107	1.91427794963
5	120196	29032.85835120428	3.496725590914
5	120212	29037.237234090981	3.484220451499
5	120222	29040.053628045646	6.287711275536
5	120227	29040.143893564251	3.199714276058
5	120233	29040.449879372827	2.088272870281
5	120260	29047.288517344652	4.261760920613
5	120266	29048.299123604315	3.661732168088
5	120272	29050.119548547804	4.302119957338
5	120280	29051.124272808488	4.450600107538
5	120289	29052.307894034436	1.692279440396
5	120319	29058.628056176017	3.022283018276
5	120324	29059.422076486027	3.347013450275
5	120334	29063.60232485207	0.808453555222
5	120341	29066.584030934684	2.426689945109
5	120377	29076.667163887797	2.841968469277
5	120404	29093.307300425642	0.758982611094
5	120411	29094.635365027109	1.241526608227
5	120420	29096.814156345343	1.024794974091
5	120428	29099.244395955085	0.243993088314
5	120437	29103.076011622861	0.892790231887
5	120451	29106.486385939156	3.155321014995
5	120456	29107.121367714707	3.425116476415
5	120462	29108.435506318835	2.266616098147
5	120483	29111.291191392976	1.93942645226
5	120495	29111.693288805304	1.425401944077
5	120502	29112.018723087078	0.707904557754
5	120510	29113.077205140179	1.433492868517
5	120515	29113.11478109802	1.319415414044
5	120546	29119.70709522927	6.282409373396
5	120553	29120.847491266437	6.010447173632
5	120560	29121.1705338438	6.315146339344
5	120565	29122.43232939304	1.73621925034
5	120589	29130.262608080429	6.281584386683
5	120596	29131.772028431399	6.374983501587
5	120602	29132.57282156128	3.713136267135
5	120621	29136.083994267879	2.206896865547
5	120629	29137.5341199704	2.129689150106
5	120649	29143.720578938833	5.285723124
5	120655	29144.873568733559	6.265558207623
5	120676	29150.448393118884	3.49661439071
5	120681	29150.969320702558	0.80721721996
5	120705	29156.853122512578	2.26744482588
5	120714	29159.066281704313	2.657208666337
5	120719	29160.327218659319	3.782516175506
5	120727	29163.244584550656	5.438174656414
5	120750	29168.58641393291	4.881794850216
5	120757	29169.925553622693	1.903763927039
5	120769	29170.992076184372	2.957632261247
5	120774	29171.019039509961	0.517907648377
5	120784	29172.430227737038	1.635676391797
5	120791	29172.654328376103	1.533222192091
5	120803	29177.187246081493	5.709628057157
5	120809	29177.788534221311	5.2157523887
5	120816	29178.905323616541	2.070151623736
5	120826	29180.531074995587	2.055505731784
5	120836	29187.378483783348	8.239953032259
5	120841	29187.390969352123	8.250455077733
5	120891	29201.686304948209	1.020407293024
5	120897	29201.827118596685	0.809463206862
5	120920	29205.781242905613	2.990305716348
5	120932	29208.629351299862	3.852385184433
5	120937	29209.620166004411	4.709046242818
5	120942	29209.679082439745	2.713421210692
5	120969	29215.10622145041	2.948312189053
5	120989	29218.509966401975	2.43071246721
5	120996	29218.958562944148	2.295006065486
5	121003	29219.718057545899	3.032286857712
5	121034	29226.532893682368	2.127529720891
5	121060	29232.754730424343	2.151963136528
5	121065	29232.955011879433	1.732486627159
5	121081	29237.795053877491	3.62743272247
5	121089	29240.497457819169	4.024023212616
5	121113	29247.042856876604	1.549328194465
5	121127	29247.883186077793	0.657543083959
5	121146	29251.855655903215	2.324496928328
5	121172	29255.423700941614	2.304435406426
5	121177	29256.146594866745	2.462368133017
5	121201	29260.439811534866	2.927362460352
5	121220	29264.387466858614	2.808790861418
5	121225	29264.720955420524	2.568300548347
5	121230	29265.013807533434	2.649539446312
5	121235	29267.479400572779	4.845453810749
5	121250	29270.203533591775	0.380834279472
5	121258	29271.497689812817	0.62903378615
5	121282	29276.02385151747	2.599885774439
5	121294	29277.510794556779	3.371927093366
5	121299	29278.013931784135	3.570550031397
5	121306	29278.651797760814	4.191680820777
5	121315	29281.04693363627	4.610698836413
5	121323	29282.275345495527	2.004511507616
5	121332	29285.478264124253	3.265502118157
5	121338	29286.052845046169	3.434888710183
5	121356	29292.628854024033	6.309829858771
5	121361	29292.817488112295	0.739237108346
5	121393	29296.649471083453	3.343747481458
5	121402	29297.947116500722	4.152748118944
5	121408	29298.256548917563	3.302396515677
5	121413	29298.526652802067	3.515277069546
5	121420	29299.374491281736	4.155472466675
5	121425	29299.375126290196	1.898746361435
5	121437	29299.889203429509	0.489144926125
5	121460	29305.701574866725	0.628591019294
5	121487	29318.317393766632	6.494461951367
5	121517	29325.153335068357	6.396309675291
5	121523	29325.639292770018	5.126796325034
5	121533	29331.379584097282	8.647310154116
5	121539	29333.030622474965	8.340306122679
5	121551	29335.422605116307	8.351923301983
5	121570	29338.484920321927	1.812483771025
5	121647	29362.191484772606	4.670722416779
5	121652	29362.65035738986	3.762298330071
5	121657	29363.322889277264	4.359931634909
5	121671	29364.749205950347	5.107960737744
5	121677	29365.787960942903	5.309538206267
5	121682	29365.915677384376	2.590092786454
5	121689	29366.875208311424	2.454200726251
5	121697	29369.371857513509	3.367456809762
5	121702	29373.131529316135	3.967324984419
5	121735	29378.688009311545	1.657033714342
5	121765	29385.169016443997	3.039993044049
5	121770	29385.174788689485	2.724164184967
5	121776	29387.030420588167	3.222768450556
5	121780	29387.353731079161	2.523560097239
5	121802	29391.680366042849	3.390933548689
5	121807	29395.046695362289	5.687093047637
5	121814	29395.679197526854	5.358127718939
5	121825	29406.273021671027	10.879173920824
5	121833	29408.790672417254	11.353427771588
5	121838	29408.931287931634	9.015101958711
5	121860	29415.084672850866	8.030598324679
5	121867	29415.688823937687	6.472643062661
5	121873	29416.398848030758	4.793692844218
5	121879	29416.598414888694	4.392506839898
5	121887	29418.063953694362	5.785116419424
5	121892	29418.823125293273	5.692387250431
5	121898	29419.162261894974	3.797981478656
5	121919	29421.120595563741	1.624577524552
5	121926	29421.729181568793	0.79154350347
5	121937	29426.910623291523	5.331506512803
5	121942	29427.179798667262	0.329470245965
5	121986	29436.186768627032	1.730529394529
5	121993	29437.346199724979	1.17074446764
5	122015	29440.95154405671	2.275667518537
5	122020	29441.358162165219	2.590949112994
5	122028	29443.171512889944	3.034213043837
5	122033	29443.717779582264	3.031268403305
5	122041	29446.529912773114	4.201523468614
5	122048	29447.387455292482	1.689161860194
5	122060	29452.241078687591	5.697214747441
5	122065	29453.079251877102	3.880011565159
5	122073	29456.397161188626	6.605041307242
5	122089	29458.901160855177	2.495054168364
5	122128	29467.385521727784	4.258240784403
5	122135	29468.858389176324	3.145564602723
5	122166	29473.540576063474	0.569523126783
5	122200	29480.07352823575	4.995549607823
5	122207	29480.829712377532	4.40634338714
5	122212	29480.979871275822	4.441412201743
5	122217	29481.76732059266	3.163348020815
5	122227	29484.87226889628	4.52518111178
5	122232	29485.132762941341	3.168876240694
5	122237	29485.493504896685	2.622263701628
5	122256	29488.98036290957	0.496984902479
5	122273	29493.470891533751	0.993450600224
5	122288	29496.131480311095	1.913745360098
5	122295	29496.538451553156	2.217969238221
5	122310	29498.815027721006	1.040684204328
5	122325	29502.547447018226	1.487970963596
5	122340	29505.879909144012	2.691351050277
5	122345	29507.951952427575	2.96993586685
5	122359	29510.266338731443	0.023232648489
5	122382	29516.532733329662	2.936447917543
5	122407	29521.264218298734	4.180211397423
5	122412	29522.036979814771	3.739175537379
5	122417	29522.142330644665	3.808012589464
5	122422	29522.830252408768	1.728335741295
5	122437	29526.421568570308	0.725214127232
5	122442	29526.679871624288	0.665506684918
5	122456	29528.55254580868	1.794471527922
5	122476	29535.885007612492	1.391912065273
5	122491	29540.526009433898	5.720750714897
5	122496	29540.643421836547	4.101163650422
5	122501	29540.747417175999	1.950455946911
5	122506	29541.17242181217	1.647773798637
5	122534	29549.466671722182	3.060630301715
5	122566	29555.041353264994	4.546488561789
5	122571	29555.408960012336	3.235643532324
5	122578	29556.542328322103	3.326608537543
5	122583	29558.721820456939	4.699599033604
5	122595	29560.928586563446	6.655949639013
5	122606	29561.855200411596	7.12282285153
5	122612	29562.7799024872	6.798106485309
5	122619	29563.983695868222	3.996292401799
5	122624	29564.022793693049	3.762437899515
5	122629	29565.11287823611	4.13471920234
5	122634	29565.481808963293	3.658804131543
5	122665	29572.355081286713	4.234209635312
5	122671	29573.270403392373	1.312103618898
5	122682	29579.739888804428	1.417203666359
5	122689	29581.270702672175	0.057500987683
5	122705	29584.650159963835	0.430409597282
5	122714	29587.835656127321	0.577796508632
5	122721	29593.024732265675	0.063658234283
5	122741	29602.395597037885	0.555068180645
5	122746	29602.66610984366	0.429180019455
5	122768	29609.552890936643	2.151296436713
5	122777	29610.120129458312	2.342776354231
5	122785	29610.66882515866	2.642084175033
5	122791	29611.4768867163	1.300805984713
5	122833	29617.266602561477	2.786897668464
5	122838	29617.382533061274	1.572753092324
5	122845	29619.114015013867	2.281833594988
5	122857	29622.649681489205	5.454482333045
5	122865	29623.739126595008	6.541951745918
5	122873	29625.704599772222	5.936211994104
5	122879	29626.055818493028	6.170065720547
5	122884	29626.275064079545	2.658615090046
5	122896	29628.718036736046	1.837894424656
5	122906	29632.20162938371	2.98206310859
5	122922	29636.020600169295	1.165190834393
5	122937	29639.281664276093	3.402631363104
5	122944	29640.711225438024	4.521330554171
5	122956	29643.760819677106	7.264702466301
5	122966	29645.264513686379	8.66793325556
5	122972	29645.81823920181	3.519741731295
5	122977	29645.981413050969	1.017487101752
5	123006	29651.221255533525	1.528280799973
5	123011	29651.235177415245	0.660820727224
5	123030	29656.080493093896	3.667082642611
5	123038	29658.528998845308	5.263634012442
5	123045	29661.063200851552	7.574091218682
5	123056	29664.500012863213	9.566163710111
5	123066	29666.294498760718	8.397162231328
5	123074	29667.12636392985	1.594770190578
5	123114	29678.462300605603	1.509583360031
5	123122	29679.024358180466	1.933424813023
5	123127	29679.036754640914	0.263505293085
5	123145	29682.194386570463	0.998389047652
5	123150	29682.419813962823	1.069398529974
5	123162	29685.708410563017	4.02369149859
5	123168	29686.252355084147	2.424748558281
5	123178	29690.36316213305	5.172038427055
5	123183	29690.398378390526	3.651233387396
5	123187	29691.108718490185	3.854215882814
5	123194	29691.472806132858	0.25552944107
5	123208	29697.043796190721	4.493704985667
5	123213	29697.476559131424	1.097939633954
5	123221	29699.612927784177	3.224385822233
5	123225	29699.955533585302	1.36893447116
5	123237	29704.824839565639	1.717350884922
5	123270	29711.982495210174	3.024675575163
5	123278	29712.866488600472	1.539430360436
5	123290	29714.825275763336	0.509414864115
5	123316	29721.183745904136	1.427799643028
5	123322	29723.077280381145	2.970578812717
5	123341	29726.680008329253	1.091396578485
5	123349	29728.055679558355	0.634910089446
5	123358	29729.163816028372	0.255771296509
5	123373	29731.159535267389	0.176342239481
5	123388	29738.772244419561	2.945954058924
5	123394	29739.217174729172	1.696439774294
5	123405	29740.062508978413	0.050992709727
5	123413	29741.491593452233	0.024479686285
5	123430	29743.828538808233	0.137034771796
5	123437	29744.721656796295	0.831850904848
5	123447	29750.058719368075	0.210688044441
5	123462	29753.399322144774	0.888781703418
5	123469	29760.315791289863	0.747815665668
5	123477	29766.67975412508	1.270154628643
5	123491	29768.561742450627	0.215930037715
5	123501	29773.186983222168	4.404796148611
5	123506	29776.343492428167	7.527302015038
5	123515	29777.582316119202	0.553293346113
5	123539	29788.45136150271	3.809946210549
5	123545	29789.817536218204	1.907602744842
5	123559	29791.719815655785	0.529509641057
5	123565	29792.625742785966	1.390536445112
5	123590	29797.299380923006	1.575409493494
5	123597	29797.809298867197	0.869581176839
5	123611	29800.996170356031	0.130090581913
5	123619	29801.32133579947	0.241468812703
5	123644	29810.944156090171	1.738048582243
5	123654	29813.153421924174	1.04493006269
5	123670	29818.002426140451	1.224578826653
5	123674	29818.062579635577	0.938347530762
5	123685	29822.023475430663	0.692762910159
5	123703	29825.923696315608	2.473094260795
5	123707	29825.947951454882	1.076344719315
5	123716	29827.142345687381	0.233113825003
5	123724	29832.561818934675	1.332091460742
5	123732	29834.973306878726	0.907445407438
5	123739	29836.109265800653	0.496304597317
5	123748	29837.734742140957	0.703549969377
5	123764	29843.255594590422	0.278217545521
5	123786	29848.858956985367	5.551802638982
5	123793	29849.645003290503	3.540804464251
5	123802	29850.533334482503	4.011870575879
5	123807	29851.066317342861	4.370242376096
5	123814	29851.614204344849	1.338129911173
5	123846	29861.469625032285	3.521184296399
5	123851	29862.847819407057	4.666506319399
5	123874	29872.039985254798	3.421138189728
5	123882	29873.935296388234	2.086900380351
5	123886	29874.212231527392	1.688580163288
5	123901	29875.849966069659	1.345374403423
5	123907	29876.579073489069	1.058601240468
5	123925	29880.107315259329	1.933658309098
5	123930	29880.115853628834	0.261195647486
5	123942	29881.078261310063	0.922749271501
5	123963	29887.73616099518	2.088112052987
5	123985	29891.218332456924	2.260519667254
5	123997	29894.200980537308	4.763195381567
5	124002	29894.304699349662	4.674305226535
5	124007	29896.142063194222	3.840620904572
5	124031	29903.291720676974	1.516975202134
5	124043	29904.742611563906	0.851931273824
5	124048	29905.955882296128	1.957343259381
5	124058	29907.072537748236	2.797965605833
5	124070	29908.748554889559	2.221142789703
5	124075	29909.314896263349	1.523933215408
5	124080	29909.333426615289	1.220938240029
5	124091	29909.825174467998	0.474145447239
5	124100	29913.036725827653	0.80744272132
5	124117	29919.218147334157	0.088322887308
5	124135	29925.168184741729	0.324480882065
5	124140	29926.247785194705	1.21382294131
5	124152	29927.401575185257	1.028496207958
5	124175	29929.325057236531	1.390045674589
5	124187	29931.881998077224	0.265443968162
5	124201	29934.227738606517	1.368914153106
5	124241	29950.732198248719	2.990205850533
5	124250	29951.900836582649	1.216697622127
5	124266	29953.047021734932	1.088865201146
5	124323	29967.818885592107	6.736369079417
5	124331	29969.363331847148	5.01021246286
5	124336	29970.106500325315	1.950754420908
5	124378	29979.890214137198	7.861424377034
5	124383	29980.233421584308	7.678133019618
5	124410	29986.662160792187	2.09800650592
5	124418	29988.282873975178	1.962021051925
5	124445	29993.760957682351	4.768386494331
5	124450	29993.879182014496	3.424254763732
5	124455	29994.50031903104	3.66486796436
5	124460	29995.016022800771	3.762589754857
5	124465	29995.942866301989	3.854195734523
5	124483	29999.088611468414	3.127611625436
5	124488	29999.364099640032	2.990930599623

