version 2
run Second-n3-4-20191016-17:03:47-12900
attr configname Second-n3
attr datetime 20191016-17:03:47
attr experiment Second-n3
attr inifile omnetpp.ini
attr iterationvars ""
attr iterationvarsf ""
attr measurement ""
attr network org.omnetpp.queueing.Pizza
attr processid 12900
attr repetition 4
attr replication ""
attr resultdir results
attr runnumber 4
attr seedset 4
param **.PS.maxInventoriedPS 3
param **.U1.interArrivalTime exponential(3s)
param **.U2.interArrivalTime exponential(5s)
param **.PS.serviceTimeForInventoryU1 exponential(1.0s)
param **.PS.serviceTimeForInventoryU2 exponential(1.2s)
param **.PS.serviceTimeDirectU1 exponential(1.4s)
param **.PS.serviceTimeDirectU2 exponential(1.4s)
param **.PS.probabilityProducing 0.7
param **.CS.serviceTimeU1 exponential(1.1s)
param **.CS.serviceTimeU2 exponential(1.4s)

vector 0 Pizza.EntryQueueU1 queueLength:vector ETV
attr interpolationmode sample-hold
attr title "queue length, vector"
vector 1 Pizza.CS queueLength:vector ETV
attr interpolationmode sample-hold
attr title "queue length, vector"
vector 2 Pizza.EntryQueueU2 queueLength:vector ETV
attr interpolationmode sample-hold
attr title "queue length, vector"
vector 3 Pizza.sink lifeTime:vector ETV
attr interpolationmode none
attr title "lifetime of arrived jobs, vector"
attr unit s
vector 4 Pizza.sink lifeTimeU1:vector ETV
attr interpolationmode none
attr title "lifetime of arrived jobs, vector"
attr unit s
vector 5 Pizza.sink lifeTimeU2:vector ETV
attr interpolationmode none
attr title "lifetime of arrived jobs, vector"
attr unit s
0	0	0	0
0	12	12.613584913432	1
0	20	15.344184413521	2
0	27	18.794641994562	1
0	35	19.878164744247	2
0	39	22.607107852243	3
0	41	22.634187991139	4
0	42	23.302874458529	3
0	47	23.352555738562	2
0	52	25.185526343238	1
0	59	25.478502493514	2
0	63	28.458559605061	1
0	68	28.671317600111	0
0	97	34.179978498327	1
0	99	34.777968793954	2
0	101	35.015323665884	1
0	107	36.169515671948	0
0	117	37.823073750286	1
0	119	38.271189315404	2
0	121	38.8627904835	3
0	126	40.264608649205	2
0	131	40.753406206972	1
0	138	41.443918285699	2
0	140	41.589616163103	3
0	143	41.643414930367	2
0	150	42.759792001446	1
0	156	44.032548869296	0
0	170	48.365354136049	1
0	171	49.27211574764	0
0	177	49.782186231824	1
0	179	51.326031923685	0
0	199	54.048784565261	1
0	201	54.366134470223	2
0	207	56.224194233857	1
0	214	57.141852752933	2
0	215	57.209990540751	1
0	220	57.234031924305	0
0	231	58.497874059033	1
0	238	59.868906295392	0
0	244	60.666551893642	1
0	245	61.155945462798	0
0	251	62.808093550668	1
0	255	63.616251626936	2
0	256	63.836797482933	1
0	265	64.945939069843	0
0	277	65.586465625186	1
0	279	66.298376588592	0
0	296	66.97784417162	1
0	297	67.021437306875	0
0	360	85.114540143633	1
0	361	85.345489835868	0
0	373	88.409402751351	1
0	375	90.325198281987	2
0	376	90.579723393578	1
0	382	91.324264864333	0
0	390	94.234031112698	1
0	391	94.346201064956	0
0	427	101.630881358056	1
0	429	101.972246577049	0
0	436	102.613195016341	1
0	437	103.917639319567	0
0	462	108.182513016099	1
0	463	110.273513519911	0
0	491	118.572446035587	1
0	492	118.766888019978	0
0	520	134.472943285815	1
0	522	136.239981612577	2
0	524	136.516691204222	3
0	527	137.900957156274	2
0	532	138.297026022084	1
0	539	139.452412541177	2
0	542	140.213167214597	1
0	549	141.684220609839	0
0	582	150.989782292572	1
0	583	151.040948991459	0
0	604	152.82138447852	1
0	605	152.871540116691	0
0	658	174.733416065255	1
0	660	180.154788449905	2
0	662	180.547812469514	3
0	663	181.160010173335	2
0	668	181.306885363112	1
0	673	181.546890348498	0
0	687	182.806965096275	1
0	690	183.673785269827	0
0	700	184.110447924721	1
0	703	184.444699652239	0
0	728	193.199468916783	1
0	730	193.314896854582	2
0	731	193.442814962908	1
0	739	194.416825965479	2
0	740	194.478884491012	1
0	749	195.920028768698	0
0	755	196.082296405909	1
0	756	196.095563337366	0
0	786	201.354112910278	1
0	787	202.019574217964	0
0	817	209.386083986103	1
0	821	209.780569984521	2
0	822	212.348948039474	1
0	827	213.592290624979	0
0	850	216.920984401049	1
0	851	217.132573670305	0
0	871	228.723412571999	1
0	872	229.011176455906	0
0	881	229.680295894163	1
0	882	229.843872704486	0
0	888	230.06203033478	1
0	889	230.331755458506	0
0	908	232.077931476093	1
0	909	232.824906021409	0
0	933	237.210052765173	1
0	934	237.418959419415	0
0	946	242.86614742671	1
0	951	247.10595164939	0
0	1091	287.945542254215	1
0	1092	288.462860030747	0
0	1105	289.056520965155	1
0	1108	289.355592077495	0
0	1127	294.576982571033	1
0	1132	297.027510393044	2
0	1133	297.984242319511	1
0	1139	299.764092147775	0
0	1147	302.670177935146	1
0	1149	302.879151336865	0
0	1171	304.839907401452	1
0	1172	304.986204951308	0
0	1184	307.398319492709	1
0	1190	308.61727742152	2
0	1192	309.345251459501	3
0	1194	309.968881207657	4
0	1195	310.417790724936	3
0	1200	310.559572128246	2
0	1206	310.759604358445	3
0	1208	311.73180284092	2
0	1216	313.086919751062	3
0	1217	313.545588452718	2
0	1226	319.267229768212	1
0	1231	319.488312873835	0
0	1244	320.388410395012	1
0	1245	320.669800822302	0
0	1284	331.11943801132	1
0	1285	331.150248420634	0
0	1293	331.505363257348	1
0	1294	331.54943450578	0
0	1315	335.949065845316	1
0	1320	338.429498960107	0
0	1326	339.022602247466	1
0	1329	339.631406301632	0
0	1345	343.485022189599	1
0	1346	343.942051230686	0
0	1354	345.174256686321	1
0	1356	346.204878525552	2
0	1358	347.275168403058	3
0	1360	347.914924425024	2
0	1365	348.423554838084	1
0	1372	349.764536363897	0
0	1380	352.258661239668	1
0	1381	353.254746215908	0
0	1411	357.465171724868	1
0	1412	359.415956287504	0
0	1433	366.585198523983	1
0	1434	366.789105893178	0
0	1483	392.409348697833	1
0	1484	393.114246834242	0
0	1498	396.848729759562	1
0	1500	398.039775756789	0
0	1509	398.766037368973	1
0	1511	399.602717020403	2
0	1513	399.624966614542	3
0	1516	400.941860120559	2
0	1521	402.378859463091	1
0	1526	402.536086072598	0
0	1541	404.098926573805	1
0	1542	405.661480999738	0
0	1561	409.529490090055	1
0	1565	411.962110145282	2
0	1569	412.40126278263	3
0	1570	413.270019049507	2
0	1575	413.511124196886	1
0	1580	414.920490398792	0
0	1597	419.67572835332	1
0	1598	420.436040699224	0
0	1609	420.925902056086	1
0	1621	425.059005663945	0
0	1646	429.267960810449	1
0	1648	429.624577690835	2
0	1649	430.736299922324	1
0	1655	430.873755753213	0
0	1671	433.534248639538	1
0	1675	438.01462879153	0
0	1737	457.868711870545	1
0	1738	458.66432741857	0
0	1753	459.552331801698	1
0	1755	460.581839297515	2
0	1756	461.054229503786	1
0	1763	461.753061021936	2
0	1764	461.793668437618	1
0	1770	461.902679158195	2
0	1772	461.955628511333	3
0	1778	465.207351208508	2
0	1785	465.563892963823	3
0	1787	465.805672763843	4
0	1788	466.464424466578	3
0	1793	466.543773675367	2
0	1798	466.559803862668	1
0	1808	467.721314544246	2
0	1810	468.746332787248	1
0	1815	468.920083178228	0
0	1822	470.899406544857	1
0	1823	471.541097613176	0
0	1836	472.298148403003	1
0	1837	472.80227167063	0
0	1858	475.431312320449	1
0	1859	475.483613709608	0
0	1929	491.974639055111	1
0	1930	492.717571347248	0
0	1961	503.895480862482	1
0	1962	504.329279030744	0
0	1972	506.134179651675	1
0	1975	508.755474000191	0
0	1983	509.800705783331	1
0	1984	509.823410288507	0
0	1998	515.674336199435	1
0	1999	516.381671716563	0
0	2011	519.130314445162	1
0	2015	521.68695362678	2
0	2016	521.953489976816	1
0	2024	522.827989885896	2
0	2028	523.242996454457	3
0	2029	523.63606637598	2
0	2036	523.830549876611	3
0	2037	524.25754047052	2
0	2045	528.414604584795	1
0	2050	528.597731278532	0
0	2061	529.392737980074	1
0	2062	530.066486250007	0
0	2076	532.310364398721	1
0	2077	532.360825648814	0
0	2086	533.424162594278	1
0	2092	536.381279088404	0
0	2126	547.167474137947	1
0	2127	548.623256835495	0
0	2142	550.567474249819	1
0	2147	552.386113173001	0
0	2188	571.700060999983	1
0	2189	571.945345827746	0
0	2222	578.612927651706	1
0	2223	578.836061460409	0
0	2276	592.299431316199	1
0	2279	595.312935033021	0
0	2300	606.974979171063	1
0	2305	608.051281429163	2
0	2309	609.646589047471	3
0	2310	610.282914198378	2
0	2318	610.810387001371	3
0	2319	611.505769552977	2
0	2325	612.461820019401	1
0	2330	612.505119126561	0
0	2361	618.812325279406	1
0	2362	619.600004394587	0
0	2409	632.334780465823	1
0	2411	632.655875997756	0
0	2481	654.417033684639	1
0	2482	655.547439965256	0
0	2508	664.578273313762	1
0	2509	665.037124241349	0
0	2637	706.539334533243	1
0	2642	710.245240452294	0
0	2651	711.751863444627	1
0	2653	712.102710639592	2
0	2659	713.620968025621	1
0	2664	716.349893184258	0
0	2676	717.47581619591	1
0	2677	717.538018924168	0
0	2696	723.379862741943	1
0	2698	723.691788583849	2
0	2699	724.696829157024	1
0	2704	724.825978543711	0
0	2710	725.310243332666	1
0	2711	725.478463016388	0
0	2721	727.113968933721	1
0	2723	727.661039770608	2
0	2725	727.889562693646	3
0	2726	729.679712347499	2
0	2731	729.731668892377	1
0	2736	732.620581333615	0
0	2742	733.806632318833	1
0	2744	734.313865919016	0
0	2790	751.209632605167	1
0	2794	753.206895648064	2
0	2795	753.703066607617	1
0	2800	753.753391118492	0
0	2814	755.569284480927	1
0	2816	755.772244782175	2
0	2818	756.333676458737	1
0	2823	756.398174209874	0
0	2830	757.043887731155	1
0	2831	758.063178904044	0
0	2845	760.113302789049	1
0	2847	760.713865102533	2
0	2852	762.904697474024	1
0	2861	763.462445250892	2
0	2862	764.040380499403	1
0	2867	764.399462604555	0
0	2875	766.081962429807	1
0	2877	766.284452748752	2
0	2880	766.658718732771	3
0	2882	768.29946446288	2
0	2887	768.668341670427	1
0	2897	769.768326702949	0
0	2903	770.319817978217	1
0	2905	771.300260425091	0
0	2925	772.521724359794	1
0	2928	775.115408778398	2
0	2929	776.44232635386	1
0	2936	777.144262098177	0
0	2953	780.183103802079	1
0	2955	780.578377322658	2
0	2959	781.102000364763	3
0	2961	782.495264693048	4
0	2963	783.403942319697	5
0	2964	784.182848577351	4
0	2971	785.431897285968	3
0	2978	787.092754805131	2
0	2984	787.517890796159	3
0	2989	789.234084040713	2
0	2996	792.074435935707	1
0	3001	792.24077246604	0
0	3032	795.739829288334	1
0	3034	796.476709657657	0
0	3066	803.852213598543	1
0	3070	804.531354037058	2
0	3071	805.035869602791	1
0	3077	805.850204177279	0
0	3083	806.089357595088	1
0	3085	806.193334752666	2
0	3086	806.29528895028	1
0	3091	806.473395974642	0
0	3121	812.829209924293	1
0	3126	814.171749951021	0
0	3132	814.743129830916	1
0	3133	814.984762808831	0
0	3146	817.846064244537	1
0	3147	818.267550934602	0
0	3157	820.969548334235	1
0	3162	822.877149098805	0
0	3172	824.552360002949	1
0	3174	824.94315001991	2
0	3175	826.711654068391	1
0	3183	827.93517145481	2
0	3185	829.651890808221	3
0	3186	829.655200575082	2
0	3192	830.130122548835	3
0	3194	830.886468352839	2
0	3199	830.918738234066	1
0	3207	832.787707101023	2
0	3208	833.275943721597	1
0	3213	833.708650145134	0
0	3219	834.60020685269	1
0	3222	835.603202263661	2
0	3224	836.380812977973	1
0	3229	836.453888864593	0
0	3236	838.678288066237	1
0	3238	840.052528224017	0
0	3275	844.196577784551	1
0	3280	848.353108347711	2
0	3282	848.494832065781	3
0	3283	848.838583147702	2
0	3289	849.686333318071	1
0	3294	849.968700422472	0
0	3303	853.752717703285	1
0	3306	854.720957434233	0
0	3312	857.565796012001	1
0	3314	859.020162309308	2
0	3315	859.377109223795	1
0	3320	860.666185520628	0
0	3330	861.774344447392	1
0	3332	862.461210579355	0
0	3338	862.771371817827	1
0	3339	863.127572510314	0
0	3355	867.003005103846	1
0	3356	867.624243105028	0
0	3394	879.922493527244	1
0	3395	880.16159746282	0
0	3401	880.637126741667	1
0	3402	881.042636006144	0
0	3416	884.286545799713	1
0	3418	885.540694704042	2
0	3427	889.742759776647	3
0	3430	889.969493577305	4
0	3432	890.548503936807	5
0	3433	894.091623264465	4
0	3438	894.22265751695	3
0	3443	894.290464532203	2
0	3448	894.590939484805	1
0	3452	895.946274359617	2
0	3457	901.608264194293	1
0	3463	904.640285920035	2
0	3467	906.319315028681	1
0	3475	907.614450567146	2
0	3476	907.698055801306	1
0	3482	909.059214438231	0
0	3504	913.650089085774	1
0	3507	914.549846641677	0
0	3533	923.822181309225	1
0	3535	924.465247986338	0
0	3550	926.739573717069	1
0	3554	932.20396946607	0
0	3560	932.223782328599	1
0	3561	932.990539953416	0
0	3574	933.356539330517	1
0	3577	934.005942100443	2
0	3578	934.5419168802	1
0	3583	934.781337065091	0
0	3628	946.01576505907	1
0	3630	946.746984896097	0
0	3657	951.688656081883	1
0	3658	951.787209817744	0
0	3664	954.490909833392	1
0	3666	954.862114761428	2
0	3673	957.787311999952	1
0	3678	958.41356276443	0
0	3708	966.723139904649	1
0	3710	966.961197587635	2
0	3712	967.066192023945	3
0	3715	967.435420637408	4
0	3716	967.781620594439	3
0	3721	968.394966722449	2
0	3726	968.443834332422	1
0	3731	968.797272539261	0
0	3746	971.638485605787	1
0	3750	973.587933652597	0
0	3756	974.021570592208	1
0	3759	975.222157648986	0
0	3771	977.951266881901	1
0	3775	979.660967942445	2
0	3776	981.176995132745	1
0	3781	981.376182913851	0
0	3788	982.572044694432	1
0	3790	983.306234875659	2
0	3791	983.617700905493	1
0	3800	986.694813998195	0
0	3806	986.717930627509	1
0	3808	987.43889230741	2
0	3811	989.337397584544	3
0	3814	990.143517240003	4
0	3815	990.652713565106	3
0	3820	990.69549452974	2
0	3826	992.298446280789	3
0	3827	992.524029861201	2
0	3833	993.240009985207	1
0	3843	995.402212822353	0
0	3866	998.86504561551	1
0	3867	999.35302927507	0
0	3882	1006.782346173487	1
0	3883	1007.096703582323	0
0	3914	1011.018605154155	1
0	3916	1011.121381344654	2
0	3917	1011.867422502359	1
0	3926	1012.372210374452	2
0	3929	1013.115840163732	1
0	3935	1013.147973667015	2
0	3937	1013.721889859099	3
0	3939	1014.658938388978	2
0	3944	1014.940710362956	1
0	3949	1015.130695756656	0
0	3962	1016.80838013241	1
0	3963	1018.247470969218	0
0	3969	1019.595115097141	1
0	3973	1019.985323526287	0
0	3979	1021.363598244157	1
0	3981	1021.543420731195	2
0	3982	1021.780505342372	1
0	3986	1022.182883364758	2
0	3988	1022.284174700099	3
0	3993	1024.974374122443	4
0	3995	1025.471191294514	5
0	3997	1026.186224755714	6
0	4002	1029.586852392261	5
0	4008	1030.435249431066	4
0	4014	1031.420678906262	5
0	4015	1032.100704850102	4
0	4020	1032.933527083953	3
0	4028	1033.848112039117	4
0	4031	1034.335241269752	5
0	4033	1035.059356080603	6
0	4034	1036.424752852347	5
0	4040	1036.441674434989	6
0	4041	1037.236454117286	5
0	4047	1038.374841376068	4
0	4054	1038.949688923731	3
0	4060	1039.332275932332	4
0	4063	1041.272583663192	5
0	4064	1041.970949692079	4
0	4069	1042.054960785948	3
0	4074	1042.31051811687	2
0	4079	1042.66212552961	1
0	4084	1043.055581361672	0
0	4125	1051.854613820021	1
0	4128	1053.182453127311	0
0	4137	1054.200164069026	1
0	4138	1055.417685124155	0
0	4147	1057.878271534652	1
0	4155	1060.184384943469	2
0	4156	1060.214815961601	1
0	4161	1060.285502818195	0
0	4177	1062.091637090371	1
0	4179	1062.419610112663	2
0	4182	1064.625107452458	1
0	4188	1065.257534293039	0
0	4198	1067.42640094117	1
0	4203	1068.375913572425	2
0	4207	1069.322120805461	1
0	4212	1069.389348148713	0
0	4231	1072.063931910165	1
0	4232	1072.383792987514	0
0	4240	1072.775271253989	1
0	4243	1073.193973633934	2
0	4244	1073.195781692613	1
0	4249	1073.247790783054	0
0	4255	1073.250338867594	1
0	4257	1075.113690112801	0
0	4271	1076.269917243028	1
0	4274	1078.497668832794	2
0	4275	1079.035627139099	1
0	4281	1079.332252537327	0
0	4288	1080.601445425334	1
0	4289	1080.706692881438	0
0	4297	1081.107641692837	1
0	4298	1081.660977220946	0
0	4304	1081.742061294829	1
0	4307	1083.846785382398	0
0	4318	1084.830343762927	1
0	4324	1086.254450735134	2
0	4327	1087.988029534422	3
0	4328	1088.53062458794	2
0	4333	1089.104620975105	1
0	4338	1089.926877240888	0
0	4344	1090.888136859698	1
0	4347	1091.004205282305	2
0	4348	1091.187860076083	1
0	4353	1092.202222959116	0
0	4372	1094.913549527827	1
0	4373	1096.108943487909	0
0	4434	1116.20403897542	1
0	4438	1117.805063911496	0
0	4477	1125.462861368022	1
0	4478	1125.956155192291	0
0	4503	1134.385244509212	1
0	4504	1134.546707653176	0
0	4515	1135.798098063205	1
0	4517	1136.030637610817	0
0	4528	1136.425448278789	1
0	4531	1138.008205519102	2
0	4534	1139.572153920404	3
0	4538	1140.767265022767	4
0	4539	1142.131917173331	3
0	4544	1142.459885107834	2
0	4550	1143.179785590682	3
0	4551	1143.228040470346	2
0	4557	1143.327174498396	3
0	4560	1144.473172402598	4
0	4564	1145.562691553647	3
0	4570	1146.047697330023	2
0	4576	1147.175580469558	1
0	4582	1148.191349119464	0
0	4595	1148.61994509012	1
0	4596	1148.848604122379	0
0	4614	1151.847345628819	1
0	4616	1152.585890179536	0
0	4631	1153.778561278613	1
0	4633	1154.341811047612	0
0	4639	1155.466501404776	1
0	4643	1156.453733708364	2
0	4647	1157.998647383367	3
0	4648	1159.031174153605	2
0	4655	1160.298294041905	1
0	4661	1161.270755992506	0
0	4673	1164.515267973709	1
0	4674	1164.517289527929	0
0	4680	1165.099274701184	1
0	4681	1165.5141041946	0
0	4688	1165.774179120071	1
0	4690	1165.921597357676	2
0	4691	1166.274517766202	1
0	4697	1166.324759597828	2
0	4705	1170.482209272182	1
0	4711	1170.938429133472	0
0	4740	1183.712107701683	1
0	4743	1186.833621533335	0
0	4750	1188.926386023899	1
0	4751	1189.208297851649	0
0	4776	1197.485022591586	1
0	4777	1197.62306959603	0
0	4793	1203.692599666584	1
0	4794	1205.754204233163	0
0	4857	1220.043967677632	1
0	4859	1220.520484754667	2
0	4861	1220.680251954171	3
0	4862	1221.08785346796	2
0	4867	1221.618835302087	1
0	4874	1222.336835010177	2
0	4876	1222.892440078999	3
0	4878	1224.03219805259	2
0	4884	1227.792654216647	1
0	4891	1228.289042420971	2
0	4892	1228.573926568819	1
0	4897	1228.838180490872	0
0	4913	1231.12328875103	1
0	4919	1232.181281124026	2
0	4921	1232.211530209246	3
0	4922	1232.843505249722	2
0	4929	1233.966211545622	1
0	4935	1234.372230135092	2
0	4936	1234.737499013468	1
0	4942	1235.476596664743	2
0	4943	1235.7715006367	1
0	4949	1236.722232669957	2
0	4950	1236.842171982722	1
0	4957	1238.044868144681	2
0	4958	1239.510921544537	1
0	4964	1239.788021434891	0
0	4974	1241.494270328838	1
0	4975	1241.762499041512	0
0	4986	1242.660345591032	1
0	4988	1242.838888610433	2
0	4991	1244.319781583232	1
0	5000	1246.509038930602	0
0	5014	1247.99463123998	1
0	5019	1250.491409564029	0
0	5028	1251.573842176024	1
0	5031	1252.875407457224	0
0	5047	1257.076206153875	1
0	5051	1258.997389763204	0
0	5084	1265.368983980393	1
0	5088	1266.616449516775	0
0	5126	1281.488982709239	1
0	5128	1282.027259906459	2
0	5129	1282.89085208451	1
0	5135	1283.333717711744	2
0	5136	1283.735657320017	1
0	5141	1284.119265060814	0
0	5155	1285.80591087609	1
0	5157	1285.894181237435	2
0	5159	1286.21003362215	3
0	5160	1287.026276008787	2
0	5165	1287.131012972284	1
0	5171	1287.313706515856	2
0	5172	1287.48492884184	1
0	5177	1287.622448168973	0
0	5181	1288.532664974227	1
0	5186	1289.050542819733	0
0	5193	1292.085292478918	1
0	5194	1292.126383001869	0
0	5216	1296.155622447256	1
0	5218	1296.566213097934	2
0	5220	1299.622678407153	3
0	5221	1299.829086817813	2
0	5230	1300.777172257491	3
0	5231	1300.831681502707	2
0	5238	1301.485136838352	3
0	5240	1302.430061154859	2
0	5246	1302.571548618797	1
0	5251	1302.733433861949	0
0	5330	1325.808583670538	1
0	5334	1327.12888512346	0
0	5361	1332.183688439282	1
0	5362	1332.957811230793	0
0	5390	1354.817353452599	1
0	5392	1354.962790453178	2
0	5394	1355.072353029937	3
0	5395	1362.145318310591	2
0	5400	1362.324721541909	1
0	5405	1362.470613362089	0
0	5421	1364.981739959448	1
0	5423	1365.613485009888	2
0	5425	1366.367718266715	3
0	5426	1367.224509068922	2
0	5435	1368.69624142849	1
0	5440	1368.863447356301	0
0	5451	1370.776741135849	1
0	5455	1372.157739998795	2
0	5459	1372.467997069407	3
0	5461	1372.517237831736	4
0	5464	1376.23049778329	3
0	5472	1377.852715904331	2
0	5477	1377.90155355611	1
0	5483	1378.497326705846	0
0	5505	1382.10129173516	1
0	5508	1384.530226908996	0
0	5554	1392.304645503922	1
0	5555	1392.30624938371	0
0	5573	1395.830420143858	1
0	5578	1397.261345507139	0
0	5582	1397.356307688256	1
0	5591	1399.46138415202	0
0	5623	1404.583700225094	1
0	5624	1406.183764233873	0
0	5692	1424.357180323636	1
0	5693	1425.039158887349	0
0	5702	1429.093058905416	1
0	5703	1429.157660938092	0
0	5735	1439.796146117356	1
0	5737	1441.094976124749	2
0	5742	1443.92468017482	3
0	5743	1447.129808418905	2
0	5748	1447.29820079181	1
0	5753	1447.951014307765	0
0	5767	1450.61561091801	1
0	5769	1451.057372895597	2
0	5771	1451.305407757351	3
0	5777	1455.640631796931	2
0	5784	1457.275164769396	1
0	5789	1457.351551265995	0
0	5795	1457.529946816618	1
0	5798	1459.992800508964	2
0	5802	1461.830725396883	3
0	5804	1462.084911932363	4
0	5805	1462.131847422301	3
0	5810	1462.14873692327	2
0	5818	1463.012767781392	1
0	5824	1463.324233470699	0
0	5834	1465.468875832065	1
0	5835	1466.398687954664	0
0	5844	1467.664980892742	1
0	5845	1467.67254036931	0
0	5858	1471.700947787142	1
0	5860	1472.19971408309	2
0	5862	1474.472322304914	3
0	5863	1474.557037557511	2
0	5873	1475.920695473708	3
0	5875	1476.018144511258	4
0	5877	1476.155770363357	5
0	5878	1477.736401872484	4
0	5884	1478.679328459021	3
0	5890	1479.162310739502	4
0	5893	1479.783325112574	5
0	5894	1479.801365087492	4
0	5900	1480.248814064525	5
0	5901	1481.017502828598	4
0	5907	1481.58412608811	3
0	5912	1481.621940578301	2
0	5919	1485.499942976856	3
0	5920	1485.59224010442	2
0	5925	1487.315770039793	1
0	5929	1488.20092310721	2
0	5931	1488.571400859028	3
0	5933	1488.9142581999	4
0	5938	1490.615666162899	3
0	5944	1491.149505335842	4
0	5946	1491.366343052622	5
0	5949	1492.198626442273	4
0	5954	1492.497421319832	3
0	5959	1494.259590557138	2
0	5963	1494.526124095581	3
0	5966	1495.059280308239	2
0	5971	1495.760515805887	1
0	5977	1497.253985694262	2
0	5979	1499.258457993507	3
0	5982	1499.876617858235	4
0	5984	1501.455064400532	3
0	5990	1501.746204217872	4
0	5992	1501.959098526913	5
0	5993	1502.661169428491	4
0	5999	1502.94651067356	5
0	6000	1503.016054470013	4
0	6005	1504.858861606207	3
0	6014	1508.715901386732	4
0	6015	1509.129618872298	3
0	6020	1509.888366217001	2
0	6025	1510.282711472789	1
0	6031	1510.62236273711	0
0	6074	1521.972362275003	1
0	6078	1522.684662479485	2
0	6080	1522.966730166063	3
0	6084	1525.4704759443	2
0	6089	1525.679649420694	1
0	6094	1525.710237150141	0
0	6112	1527.11061056472	1
0	6114	1527.339357656151	2
0	6115	1527.624941666675	1
0	6121	1528.265225364711	0
0	6177	1549.339249783879	1
0	6180	1550.642818230548	2
0	6182	1550.9844689768	3
0	6185	1552.06942253547	2
0	6191	1552.533955087355	3
0	6194	1553.707963357084	2
0	6201	1554.100582968856	1
0	6206	1554.103190704154	0
0	6215	1559.053296320267	1
0	6218	1559.384679702632	0
0	6224	1559.902472123616	1
0	6227	1560.907231064404	0
0	6231	1562.417599814099	1
0	6239	1565.099326602665	2
0	6241	1565.283215613305	3
0	6244	1565.528078942065	2
0	6249	1567.097690839677	1
0	6253	1567.204653845023	2
0	6256	1568.273968463229	1
0	6263	1569.965176716685	2
0	6264	1570.521601554162	1
0	6273	1573.112929888228	0
0	6282	1576.269370289682	1
0	6285	1577.878570366653	0
0	6292	1580.157560613851	1
0	6294	1581.554104864531	0
0	6329	1588.141819879758	1
0	6331	1589.166871380188	2
0	6334	1590.765424003366	1
0	6339	1590.909434245979	0
0	6345	1590.92356899476	1
0	6346	1591.897762012957	0
0	6355	1592.526741398975	1
0	6358	1593.654821632848	0
0	6374	1598.656361947927	1
0	6376	1599.083841832381	2
0	6378	1599.249276128642	3
0	6380	1600.127054952284	2
0	6392	1605.173752120996	1
0	6397	1605.969585324459	0
0	6411	1609.369495804131	1
0	6412	1610.316698665357	0
0	6430	1611.755033226912	1
0	6432	1612.604386151651	0
0	6455	1617.388559425353	1
0	6457	1617.59177819754	2
0	6463	1618.653331010585	3
0	6464	1619.295535276985	2
0	6469	1619.543278773123	1
0	6474	1619.632011936357	0
0	6486	1622.749944019729	1
0	6488	1622.94960088406	2
0	6491	1623.496991178182	1
0	6498	1624.363750867516	0
0	6574	1647.047179044798	1
0	6575	1647.189280964442	0
0	6584	1648.239186242257	1
0	6588	1649.579743967488	2
0	6590	1650.711655937151	3
0	6591	1651.618970380055	2
0	6596	1651.624519469745	1
0	6603	1652.219980892864	0
0	6642	1664.637090375837	1
0	6643	1664.78110373265	0
0	6672	1674.709135902466	1
0	6674	1675.01992731353	2
0	6675	1676.143596754658	1
0	6681	1676.305381461396	2
0	6683	1676.41639455404	3
0	6685	1677.247139521516	2
0	6691	1677.382262330797	3
0	6693	1677.490706200952	4
0	6694	1677.634171507577	3
0	6702	1680.900231587477	2
0	6709	1681.964215080672	1
0	6714	1682.130699830753	0
0	6718	1682.718178527098	1
0	6721	1684.372123556494	0
0	6819	1712.77386853834	1
0	6820	1713.132039789286	0
0	6824	1713.45709584957	1
0	6830	1716.932550327892	0
0	6851	1719.658978946212	1
0	6852	1722.132602840437	0
0	6908	1737.254574279638	1
0	6912	1738.035989900499	2
0	6916	1740.224512794527	1
0	6921	1740.231048838232	0
0	6963	1751.498890731427	1
0	6964	1751.704201273589	0
0	6970	1752.063974293247	1
0	6974	1754.623034749435	2
0	6975	1754.900643846332	1
0	6981	1755.087295208152	0
0	7010	1761.406496030103	1
0	7011	1762.02801152082	0
0	7025	1764.838062722017	1
0	7028	1766.158965077114	2
0	7030	1766.252554776994	3
0	7032	1766.958284338095	4
0	7033	1767.764192746447	3
0	7039	1768.492019734416	2
0	7044	1768.658764243767	1
0	7049	1769.011812310639	0
0	7055	1769.494239582888	1
0	7057	1769.910772261439	2
0	7058	1770.531926971296	1
0	7063	1771.521577300949	0
0	7095	1778.161693237821	1
0	7100	1780.621442323259	0
0	7111	1784.38161491871	1
0	7112	1784.486640937771	0
0	7126	1787.616101646881	1
0	7128	1787.923247530357	2
0	7131	1788.96031780869	1
0	7139	1791.931482298827	0
0	7157	1793.179197282237	1
0	7158	1793.867167241918	0
0	7169	1796.849361865484	1
0	7171	1797.299758801541	2
0	7173	1797.926812397645	1
0	7179	1798.012489191836	2
0	7184	1799.533563712837	3
0	7186	1799.791229996227	4
0	7187	1800.103388733136	3
0	7192	1800.190863566186	2
0	7198	1800.230746133882	3
0	7199	1801.809425416353	2
0	7204	1802.132004415957	1
0	7209	1804.074157755888	0
0	7232	1808.474091607193	1
0	7239	1812.695307230346	2
0	7240	1815.695761960095	1
0	7245	1815.707987924616	0
0	7282	1822.468402426319	1
0	7284	1822.540274130151	2
0	7288	1823.115255950593	3
0	7292	1824.360206680712	4
0	7293	1824.418413127584	3
0	7298	1824.44472117258	2
0	7306	1826.043656625621	1
0	7311	1826.216176180564	0
0	7341	1831.23441431517	1
0	7342	1832.850509947902	0
0	7349	1833.325908638467	1
0	7350	1833.688555760507	0
0	7359	1835.346554687491	1
0	7360	1836.500723864889	0
0	7386	1838.477204251653	1
0	7390	1841.524338132402	0
0	7425	1845.745030009291	1
0	7426	1846.42653738963	0
0	7443	1850.093429394818	1
0	7444	1850.09865494508	0
0	7463	1853.200211311871	1
0	7465	1854.021564362996	2
0	7468	1854.650285578256	1
0	7475	1855.177742718094	2
0	7476	1855.334164682852	1
0	7483	1857.232374884702	0
0	7489	1857.923570235357	1
0	7491	1858.385019386539	2
0	7492	1858.469631343084	1
0	7500	1861.639695707058	2
0	7501	1862.064411280147	1
0	7510	1862.830750316257	0
0	7514	1863.158117429169	1
0	7516	1864.286022950202	2
0	7518	1864.388255493689	3
0	7521	1864.841391858355	2
0	7525	1867.854062870205	3
0	7527	1867.88640749129	4
0	7530	1869.483215055562	3
0	7536	1871.698474440012	4
0	7538	1873.685248470588	3
0	7543	1875.596309892885	2
0	7548	1876.069502549866	1
0	7555	1878.127637746441	0
0	7561	1879.072015537254	1
0	7564	1881.166772719317	0
0	7590	1885.536168282263	1
0	7592	1886.26208522497	2
0	7596	1886.376437425782	3
0	7598	1886.436855196248	4
0	7600	1886.521043921117	5
0	7601	1887.362959395763	4
0	7607	1888.187668479201	5
0	7609	1888.304757805137	6
0	7613	1889.999787368745	7
0	7617	1891.288233290916	6
0	7622	1891.373983223075	5
0	7627	1892.847278528491	4
0	7632	1894.959600404237	3
0	7636	1896.30489183853	4
0	7639	1898.194692721651	3
0	7643	1898.68297075168	4
0	7646	1899.546484934938	3
0	7653	1900.500728832263	4
0	7654	1901.479203001387	3
0	7661	1902.780467509496	2
0	7665	1903.593149492213	3
0	7672	1904.886317952363	2
0	7678	1905.909350657955	1
0	7684	1907.947267432704	0
0	7696	1911.42268025444	1
0	7697	1912.365118653606	0
0	7703	1913.037974478922	1
0	7707	1915.339595719784	2
0	7708	1915.663889636261	1
0	7716	1916.666503100229	2
0	7718	1917.002849994316	3
0	7719	1917.01726708271	2
0	7726	1917.792607658137	1
0	7731	1918.059306963684	0
0	7758	1923.112059460853	1
0	7765	1927.1828816316	0
0	7771	1927.431578828866	1
0	7772	1927.859507692204	0
0	7778	1927.920339601788	1
0	7780	1929.013674940283	0
0	7803	1932.658442209186	1
0	7806	1933.066718319268	2
0	7809	1933.249560885087	1
0	7819	1935.151946684896	0
0	7830	1936.711091895491	1
0	7831	1937.448041500439	0
0	7842	1944.510014302068	1
0	7844	1945.342120075191	2
0	7846	1945.866458022711	3
0	7850	1947.22606653012	4
0	7852	1947.293629488466	5
0	7856	1947.956218149901	6
0	7858	1948.708147118916	5
0	7866	1950.359259916524	4
0	7871	1950.767067479476	3
0	7878	1951.961329460187	2
0	7883	1952.361180023201	1
0	7888	1955.060961781163	0
0	7901	1958.103328385363	1
0	7902	1958.63677817635	0
0	7906	1959.052216238417	1
0	7908	1959.251066570324	2
0	7913	1960.661306403395	3
0	7914	1961.08181800331	2
0	7925	1963.414792126957	1
0	7930	1963.556439128045	0
0	7938	1966.695265788818	1
0	7941	1967.5375741967	0
0	7992	1975.791098717485	1
0	7993	1977.031311092115	0
0	7999	1977.104422233602	1
0	8000	1977.309941907615	0
0	8006	1977.33647966114	1
0	8008	1978.849524092145	0
0	8018	1979.972509728025	1
0	8021	1980.104111078398	0
0	8027	1980.429788586291	1
0	8031	1981.903242876224	0
0	8039	1984.425400896387	1
0	8040	1985.328576982612	0
0	8111	2000.102308200716	1
0	8117	2001.975845357212	0
0	8133	2004.917190087608	1
0	8136	2007.040160718069	0
0	8160	2013.031136168136	1
0	8161	2013.126066411733	0
0	8224	2026.981222038348	1
0	8225	2027.628694058455	0
0	8231	2028.3109006922	1
0	8232	2028.376707740806	0
0	8259	2034.833494766354	1
0	8261	2037.265441462628	2
0	8262	2038.389704629143	1
0	8267	2038.484842794433	0
0	8275	2039.149582551147	1
0	8276	2039.174365678825	0
0	8290	2044.052940678065	1
0	8291	2044.346440616233	0
0	8329	2052.673860325246	1
0	8332	2053.382702805396	2
0	8333	2054.376841328955	1
0	8342	2055.217547085381	2
0	8345	2055.455820858356	1
0	8353	2057.279501352066	0
0	8359	2057.808147614361	1
0	8360	2058.097452381788	0
0	8378	2058.636792074116	1
0	8379	2059.359411696717	0
0	8411	2066.033425438209	1
0	8414	2066.839107554426	2
0	8415	2068.039657171241	1
0	8420	2068.153560095547	0
0	8429	2070.316320152403	1
0	8433	2072.434327445262	0
0	8452	2074.661374140422	1
0	8453	2075.961486442285	0
0	8461	2076.501029911874	1
0	8463	2077.011790931702	0
0	8477	2083.064475239321	1
0	8479	2085.891634751833	2
0	8481	2086.610933626822	1
0	8487	2086.730864707841	2
0	8489	2086.887400771563	1
0	8495	2088.94562169242	0
0	8527	2104.711224522949	1
0	8528	2105.22404360864	0
0	8542	2106.762733785133	1
0	8543	2106.905019780874	0
0	8563	2108.58929547376	1
0	8564	2109.436674811761	0
0	8594	2116.735705054662	1
0	8596	2117.146437956565	0
0	8607	2118.209362338272	1
0	8614	2121.549692998537	0
0	8621	2122.115036836773	1
0	8623	2122.50081996077	2
0	8625	2123.536946816266	3
0	8626	2125.315404484694	2
0	8631	2125.527327080551	1
0	8637	2126.120890318709	0
0	8665	2129.276497425648	1
0	8666	2129.873488072442	0
0	8670	2130.304002277902	1
0	8672	2131.128037899531	2
0	8677	2137.391948189864	1
0	8683	2138.203879112294	2
0	8685	2138.732393525069	1
0	8690	2138.916278074338	0
0	8694	2139.170863330483	1
0	8698	2140.705115948657	2
0	8699	2142.43417451636	1
0	8707	2144.047294434809	0
0	8716	2145.708217278139	1
0	8717	2146.737997336199	0
0	8743	2149.056222235086	1
0	8750	2151.322848534311	0
0	8775	2154.306451603094	1
0	8780	2154.928764822591	0
0	8792	2156.68331944832	1
0	8794	2156.734973624449	2
0	8796	2157.090884034187	1
0	8802	2158.501368746973	0
0	8809	2160.620702837598	1
0	8811	2160.973343480217	0
0	8819	2162.352980034621	1
0	8820	2162.803947132178	0
0	8852	2172.579276051275	1
0	8854	2172.738573504936	2
0	8856	2174.333997096887	3
0	8858	2174.463831149913	4
0	8861	2174.903164424174	3
0	8868	2175.334545988264	4
0	8871	2176.293137724088	3
0	8878	2177.617267969373	4
0	8880	2177.945013237644	5
0	8882	2179.384632589408	6
0	8883	2179.476911788773	5
0	8888	2182.076414215937	4
0	8899	2184.533389992715	3
0	8904	2184.903614247579	2
0	8909	2186.191159746501	1
0	8914	2186.45859559506	0
0	8918	2187.255039451845	1
0	8924	2189.505971327525	0
0	8930	2189.703593561285	1
0	8932	2190.337389956382	2
0	8933	2190.466587048991	1
0	8937	2190.657284683801	2
0	8940	2191.562783998661	1
0	8946	2194.648738782284	0
0	8952	2194.939422795409	1
0	8954	2195.111806148836	0
0	8983	2202.931930003817	1
0	8986	2204.21686419759	0
0	9013	2213.032510147584	1
0	9016	2213.440750603478	2
0	9017	2214.32608993213	1
0	9023	2214.632638489629	0
0	9048	2218.82165301139	1
0	9049	2219.716029391098	0
0	9148	2247.68613828374	1
0	9151	2248.299729611731	2
0	9153	2250.227609511128	1
0	9161	2252.622380728917	2
0	9162	2253.058025135923	1
0	9169	2253.810216002753	0
0	9198	2261.074082333098	1
0	9199	2261.422653929704	0
0	9206	2262.006475852529	1
0	9209	2263.85044413551	0
0	9215	2264.41683176814	1
0	9216	2266.065907162177	0
0	9227	2266.340136998749	1
0	9231	2267.026525024838	2
0	9235	2268.20337843645	3
0	9236	2269.411290306885	2
0	9244	2272.441007868233	3
0	9245	2272.647631317355	2
0	9250	2272.783855437396	1
0	9262	2277.832273351654	2
0	9264	2278.231753522815	3
0	9265	2278.632594086301	2
0	9271	2278.697734622956	3
0	9272	2279.659081118167	2
0	9277	2279.672723722159	1
0	9283	2281.603682941301	0
0	9301	2284.335825778955	1
0	9305	2285.180373168913	2
0	9308	2286.671185108076	3
0	9310	2287.457311850925	2
0	9315	2287.917786785508	1
0	9320	2288.076139834403	0
0	9348	2293.872948846623	1
0	9350	2294.291707476683	0
0	9386	2301.843349636889	1
0	9387	2302.303122891371	0
0	9393	2302.471617679631	1
0	9394	2302.611853663939	0
0	9410	2307.958339368825	1
0	9411	2308.311274110275	0
0	9446	2317.707882819989	1
0	9449	2318.796387494687	0
0	9453	2321.263816575272	1
0	9458	2322.417753108272	0
0	9502	2340.978678543802	1
0	9506	2341.948177794607	0
0	9517	2342.743371879513	1
0	9518	2343.025214588656	0
0	9532	2343.493780698185	1
0	9533	2343.873868775014	0
0	9573	2354.580544180669	1
0	9575	2354.876602756433	2
0	9581	2356.446452135618	3
0	9584	2356.512512501649	2
0	9589	2356.760884900301	1
0	9594	2356.889622071329	0
0	9614	2362.059141206211	1
0	9619	2364.999707674127	0
0	9639	2368.559634613003	1
0	9641	2368.998060348698	2
0	9643	2369.423829942909	3
0	9647	2372.096598857944	2
0	9654	2372.406286223562	3
0	9657	2372.710007890535	4
0	9658	2372.786461660666	3
0	9663	2372.952997443558	2
0	9668	2373.136401765228	1
0	9676	2373.942335704711	0
0	9687	2374.049684742319	1
0	9689	2374.586661040404	0
0	9700	2375.022482361047	1
0	9701	2376.590825234032	0
0	9720	2378.487392591216	1
0	9724	2378.770521427635	2
0	9725	2378.856325499425	1
0	9730	2378.888298049444	0
0	9736	2379.33399364199	1
0	9737	2379.338604250003	0
0	9741	2380.577122857082	1
0	9744	2382.349272173975	0
0	9776	2396.378638165729	1
0	9777	2397.530293919587	0
0	9888	2423.076598444904	1
0	9891	2423.346271883284	0
0	9924	2431.543811001042	1
0	9925	2432.444628347473	0
0	9985	2448.787782174329	1
0	9989	2450.58836451654	0
0	9995	2450.605167493064	1
0	9996	2450.640422653204	0
0	10002	2450.843188637017	1
0	10003	2450.860004562179	0
0	10022	2452.468955533824	1
0	10027	2457.246383019511	0
0	10051	2462.767052240383	1
0	10052	2463.470987308095	0
0	10058	2463.605435860026	1
0	10059	2464.056219640592	0
0	10071	2465.484070513714	1
0	10073	2466.173904168519	2
0	10075	2466.641159714131	1
0	10082	2467.684676866886	0
0	10089	2469.313699653145	1
0	10090	2469.327615537932	0
0	10119	2477.658487447853	1
0	10120	2478.27021965766	0
0	10136	2482.564971602278	1
0	10137	2490.095711805747	0
0	10152	2492.423413231227	1
0	10154	2492.595856712745	2
0	10155	2493.729729879352	1
0	10160	2493.815123145057	0
0	10166	2493.974542302572	1
0	10169	2495.20411895305	2
0	10170	2495.994215204161	1
0	10175	2496.468361485389	0
0	10181	2497.8488642107	1
0	10182	2497.865528881395	0
0	10186	2498.846454267054	1
0	10190	2499.390386082341	2
0	10194	2501.033137953626	1
0	10201	2502.025149194188	0
0	10207	2502.132362168119	1
0	10211	2503.223958443639	2
0	10215	2505.798644883298	3
0	10216	2505.925056840496	2
0	10223	2507.873849027439	1
0	10228	2508.178457046002	0
0	10263	2515.117376485323	1
0	10264	2515.200042950731	0
0	10274	2517.753328678996	1
0	10276	2518.284156160938	2
0	10278	2518.869432133695	3
0	10281	2523.345945019535	2
0	10286	2523.630568840354	1
0	10291	2523.643834163357	0
0	10297	2524.113459510496	1
0	10299	2524.342474834213	2
0	10300	2525.217257788198	1
0	10305	2527.925732967776	0
0	10313	2531.604344130363	1
0	10315	2534.732766767579	0
0	10321	2534.942645483705	1
0	10322	2535.605932974984	0
0	10341	2539.319746280131	1
0	10343	2540.888475244999	2
0	10347	2543.027849064159	3
0	10348	2543.761075013571	2
0	10358	2545.515724670416	1
0	10364	2546.928448436935	0
0	10370	2547.39908757732	1
0	10371	2548.13107612793	0
0	10426	2560.455532974602	1
0	10432	2563.518114963949	0
0	10439	2564.288794058725	1
0	10442	2564.745357240706	0
0	10488	2575.542348401206	1
0	10489	2576.720136476914	0
0	10511	2582.25552266823	1
0	10512	2583.409616318978	0
0	10581	2602.401071442617	1
0	10583	2602.777010469788	0
0	10634	2617.351910378501	1
0	10635	2617.791077889682	0
0	10643	2619.87120391552	1
0	10647	2622.047090174357	0
0	10653	2622.38473100531	1
0	10655	2623.392380574729	0
0	10661	2623.413957080974	1
0	10665	2625.933415718129	0
0	10671	2626.069753194361	1
0	10673	2626.474257364457	0
0	10679	2626.556191555382	1
0	10680	2626.951586134973	0
0	10692	2627.837742010425	1
0	10696	2630.028831701046	0
0	10715	2635.858311054476	1
0	10720	2638.580346513413	0
0	10730	2639.177299791335	1
0	10737	2644.199776770889	2
0	10738	2645.202387119607	1
0	10743	2645.767282543666	0
0	10761	2646.435477606454	1
0	10763	2646.595063649046	2
0	10766	2647.367026426999	3
0	10770	2648.324958409527	2
0	10775	2649.986118385519	1
0	10781	2650.018954051031	2
0	10782	2651.548938437976	1
0	10791	2653.309548437997	2
0	10793	2653.331493572204	3
0	10795	2654.397433004763	4
0	10799	2655.450401593117	3
0	10805	2655.797753409164	4
0	10808	2656.713020195354	3
0	10814	2656.77726707389	4
0	10815	2657.189476643904	3
0	10820	2657.259710484177	2
0	10827	2657.665642171524	1
0	10831	2658.265410370002	2
0	10834	2658.683540793604	1
0	10839	2659.889003843067	0
0	10845	2660.959028428086	1
0	10848	2661.343858389311	2
0	10852	2663.118494743659	3
0	10856	2664.430771629679	4
0	10858	2665.915512577403	5
0	10859	2666.157480839353	4
0	10865	2666.367467042132	3
0	10870	2666.984708107354	2
0	10875	2667.673993244202	1
0	10880	2667.835820338538	0
0	10884	2667.89628147393	1
0	10886	2667.900065887059	2
0	10891	2671.091796493274	3
0	10893	2672.348779799626	4
0	10895	2673.228945478502	3
0	10901	2675.287482897413	2
0	10906	2675.379946351346	1
0	10912	2675.8246606154	2
0	10917	2678.512848026074	1
0	10924	2679.389339231245	2
0	10927	2681.495737544511	3
0	10928	2681.918079166374	2
0	10933	2681.918506513629	1
0	10939	2682.284371746867	0
0	10952	2684.292464812703	1
0	10953	2684.657983585511	0
0	10965	2685.612354069892	1
0	10967	2686.858525967177	2
0	10971	2687.310597668714	3
0	10972	2687.656455805926	2
0	10981	2688.554450805118	3
0	10984	2690.252376669353	4
0	10985	2690.454506144117	3
0	10991	2690.860579669577	2
0	10996	2691.376040902162	1
0	11003	2692.797635996233	0
0	11031	2701.047544888675	1
0	11035	2701.833181560049	2
0	11037	2701.922972955272	3
0	11038	2702.067642891705	2
0	11044	2702.919879758596	3
0	11048	2705.131216943808	2
0	11053	2705.266026629716	1
0	11063	2707.653956377336	2
0	11064	2709.659162779442	1
0	11070	2710.365854406639	0
0	11098	2716.151048363759	1
0	11099	2716.30898879671	0
0	11115	2717.927172005269	1
0	11116	2718.450653110474	0
0	11123	2720.11568820402	1
0	11124	2720.498483435191	0
0	11138	2723.177954402262	1
0	11139	2724.506561524034	0
0	11202	2740.278795226924	1
0	11204	2741.911028647226	2
0	11205	2743.107804391368	1
0	11210	2743.253192167401	0
0	11225	2745.362463817013	1
0	11226	2745.721913419997	0
0	11251	2750.9941734672	1
0	11252	2751.167216360645	0
0	11269	2752.555314473364	1
0	11272	2754.175516545789	0
0	11280	2754.391985076215	1
0	11283	2755.787732219446	2
0	11284	2755.996023207965	1
0	11290	2757.220559808322	0
0	11371	2785.842940570855	1
0	11373	2787.059526584446	0
0	11380	2787.576615210178	1
0	11381	2787.804781436948	0
0	11429	2798.609690150325	1
0	11433	2798.891124676824	2
0	11434	2799.137328861653	1
0	11442	2800.51305944181	0
0	11495	2809.632251266335	1
0	11498	2810.050272458293	0
0	11517	2810.602363745054	1
0	11518	2810.781688049077	0
0	11533	2817.972864357637	1
0	11536	2819.247726780204	2
0	11538	2819.576909931628	3
0	11539	2819.845857074569	2
0	11545	2821.532993741307	3
0	11546	2821.636457221741	2
0	11551	2822.017226285125	1
0	11556	2822.107161246264	0
0	11571	2826.849039608293	1
0	11574	2827.977659131347	2
0	11575	2829.019938250581	1
0	11581	2830.195424865725	2
0	11584	2830.549249358214	3
0	11586	2830.629557789673	4
0	11591	2831.599419697152	3
0	11596	2831.760005394175	2
0	11602	2831.889685424503	3
0	11603	2831.897878522382	2
0	11608	2832.274923979871	1
0	11617	2834.953405084486	0
0	11623	2836.042874516876	1
0	11624	2836.470919356543	0
0	11636	2837.470901901172	1
0	11641	2840.857425935014	2
0	11642	2841.051586437136	1
0	11647	2841.284176877397	0
0	11651	2841.303960859564	1
0	11656	2843.114485665876	0
0	11662	2843.69669942254	1
0	11665	2844.346834087186	2
0	11669	2848.702089529588	1
0	11674	2849.021894898964	0
0	11681	2849.23183572483	1
0	11682	2849.238044081392	0
0	11700	2853.724533397821	1
0	11701	2854.748729435669	0
0	11726	2860.991831256749	1
0	11728	2861.787175130335	2
0	11732	2862.089633048388	3
0	11733	2862.324226982313	2
0	11739	2863.027805556727	1
0	11745	2863.56279532935	0
0	11754	2864.674472231483	1
0	11755	2865.079638184946	0
0	11769	2869.351340292258	1
0	11770	2872.999314890635	0
0	11779	2873.385585647138	1
0	11781	2875.499603719375	2
0	11783	2876.106510678521	3
0	11786	2877.383606973534	2
0	11792	2878.486008651633	1
0	11798	2878.551176829739	0
0	11848	2889.812408340042	1
0	11850	2889.926031330854	2
0	11851	2891.877080461853	1
0	11858	2893.587528948758	0
0	11865	2894.689514015667	1
0	11866	2895.034895300375	0
0	11881	2898.387125244893	1
0	11883	2898.559055292711	2
0	11890	2900.484017354356	1
0	11895	2900.765743892489	0
0	11919	2904.290556722126	1
0	11923	2904.743384672876	2
0	11925	2906.842358312682	1
0	11931	2907.445729099711	0
0	11937	2907.572182141143	1
0	11938	2908.001774701407	0
0	11945	2910.289630205846	1
0	11946	2910.523352007283	0
0	11965	2915.694639018058	1
0	11966	2915.729264684596	0
0	11993	2920.296477986063	1
0	11994	2920.299852179065	0
0	12000	2920.60400823915	1
0	12002	2921.365401975989	0
0	12028	2925.364126849094	1
0	12030	2930.833210811665	0
0	12115	2957.866103424664	1
0	12119	2959.434839213111	2
0	12121	2960.040088490873	3
0	12123	2960.461391718808	4
0	12124	2961.518901349789	3
0	12130	2962.79788442346	2
0	12137	2963.624706307532	1
0	12143	2965.114184597034	0
0	12162	2966.600656524292	1
0	12163	2968.603273955265	0
0	12177	2976.354735014948	1
0	12178	2976.922911444851	0
0	12207	2986.297603223266	1
0	12211	2987.259215585117	0
0	12249	2995.443931403642	1
0	12250	2998.284301666065	0
0	12256	2998.328198542409	1
0	12259	2999.409278181657	0
0	12273	3001.583068684448	1
0	12274	3002.778310891064	0
0	12303	3008.485166420194	1
0	12306	3009.776296102242	2
0	12308	3010.129753704345	3
0	12310	3011.70349004838	4
0	12311	3012.147300037501	3
0	12320	3013.539028969404	4
0	12322	3013.807320791854	5
0	12323	3015.195412832461	4
0	12328	3015.325632392692	3
0	12334	3016.310483915483	2
0	12340	3017.950881615253	3
0	12341	3019.122011487183	2
0	12349	3021.116495246319	1
0	12355	3022.856316196269	0
0	12398	3035.450902996203	1
0	12401	3037.274455245517	0
0	12407	3037.533831275303	1
0	12409	3037.567381585305	2
0	12414	3038.536100613239	1
0	12420	3038.951402920661	0
0	12426	3039.201072062231	1
0	12430	3040.142777633475	2
0	12431	3040.17428574642	1
0	12441	3042.911324134252	2
0	12442	3043.049815204433	1
0	12451	3044.009098687239	2
0	12452	3044.051707643615	1
0	12457	3044.077249581671	0
0	12485	3051.259776516346	1
0	12488	3052.25652252302	2
0	12490	3052.703650818859	3
0	12491	3054.274112012988	2
0	12499	3055.656438805029	3
0	12500	3056.053009311346	2
0	12506	3058.006479021676	1
0	12511	3058.46689747328	0
0	12540	3064.764652329712	1
0	12543	3065.320503200305	0
0	12550	3066.151889263807	1
0	12552	3066.308271403219	2
0	12555	3068.030012882205	1
0	12561	3068.905171107409	0
0	12602	3080.772918690583	1
0	12605	3084.692298866475	0
0	12644	3096.693338917304	1
0	12645	3096.796366007339	0
0	12652	3097.560037895226	1
0	12653	3100.969511314278	0
0	12668	3106.519808175313	1
0	12669	3106.548554468211	0
0	12684	3108.665020494709	1
0	12685	3109.307181620245	0
0	12691	3109.621089268567	1
0	12693	3111.54607968142	0
0	12699	3112.867970051838	1
0	12704	3114.174435538976	2
0	12705	3114.947129731554	1
0	12710	3115.71683691985	0
0	12716	3116.05967031413	1
0	12717	3116.093972896633	0
0	12723	3116.163956667146	1
0	12730	3119.840161614613	2
0	12735	3120.902192746655	1
0	12740	3121.037170000935	0
0	12761	3123.674756318893	1
0	12762	3124.11197099615	0
0	12773	3126.516937195332	1
0	12777	3127.793614013458	0
0	12797	3130.069121269001	1
0	12800	3131.066911938333	0
0	12943	3169.397913187435	1
0	12944	3169.704685437175	0
0	12958	3170.228802582913	1
0	12959	3170.853486325394	0
0	12992	3180.357265630867	1
0	12993	3180.549943385411	0
0	13008	3182.985404676962	1
0	13009	3183.617419994718	0
0	13033	3186.428990454816	1
0	13038	3188.523418289988	0
0	13057	3192.210614749096	1
0	13058	3192.974651206096	0
0	13092	3199.784737084296	1
0	13094	3200.437745163387	0
0	13188	3225.696508883008	1
0	13193	3227.580872230254	0
0	13200	3230.631736545084	1
0	13201	3232.030552749087	0
0	13215	3232.857271062754	1
0	13217	3233.187483403255	0
0	13234	3234.635013450365	1
0	13237	3235.990599586819	0
0	13258	3238.699992385148	1
0	13259	3239.63259666038	0
0	13276	3244.120339087364	1
0	13279	3247.024612686254	2
0	13280	3247.464509741942	1
0	13285	3247.708134229942	0
0	13335	3262.920236440668	1
0	13337	3263.521142384901	2
0	13338	3263.554069487747	1
0	13345	3264.086941747994	0
0	13351	3264.242059630827	1
0	13354	3265.074558148384	2
0	13355	3265.11689061722	1
0	13362	3267.362688047714	0
0	13389	3277.10123244983	1
0	13390	3278.114461417252	0
0	13439	3290.829534599493	1
0	13441	3292.187268606675	2
0	13446	3292.547673671923	3
0	13447	3295.729522601526	2
0	13452	3296.499995895126	1
0	13459	3297.289291663767	0
0	13479	3302.257383662579	1
0	13480	3302.279403273425	0
0	13503	3307.510444671601	1
0	13504	3308.603514481468	0
0	13517	3309.615913359826	1
0	13518	3310.423994244426	0
0	13542	3312.821031893794	1
0	13543	3313.515723047516	0
0	13566	3319.988434375528	1
0	13567	3320.831745241786	0
0	13591	3329.558696319882	1
0	13592	3329.768754812449	0
0	13606	3330.349243361976	1
0	13607	3330.44928310835	0
0	13615	3330.492524221347	1
0	13617	3330.733856329498	2
0	13619	3331.121190200596	3
0	13620	3331.252660621078	2
0	13626	3331.647380945959	1
0	13631	3331.694709983127	0
0	13652	3333.813672309461	1
0	13653	3334.077587980578	0
0	13675	3346.157480456485	1
0	13676	3346.530793538461	0
0	13690	3347.542001845313	1
0	13691	3347.619553346845	0
0	13731	3360.16441439892	1
0	13732	3360.173989677707	0
0	13746	3362.483211765887	1
0	13748	3363.200477828183	0
0	13763	3365.129087350777	1
0	13767	3366.08664072482	0
0	13796	3370.974058821277	1
0	13797	3371.646142758794	0
0	13816	3376.326273546581	1
0	13817	3377.701543115377	0
0	13842	3389.419574152896	1
0	13843	3390.834850517597	0
0	13865	3397.099313497228	1
0	13866	3398.175120705495	0
0	13921	3409.236808605845	1
0	13922	3409.415280104939	0
0	13957	3416.741263634998	1
0	13958	3417.328472668792	0
0	13974	3420.431856463047	1
0	13976	3420.829267062816	0
0	13983	3421.076209802662	1
0	13984	3421.46412663801	0
0	13990	3421.629098682612	1
0	13991	3421.881812873359	0
0	14004	3422.902972866276	1
0	14006	3423.567695335261	0
0	14051	3443.259562664076	1
0	14054	3447.437030047436	0
0	14117	3463.117613485293	1
0	14118	3464.702208458011	0
0	14132	3466.091179938703	1
0	14133	3466.157755665892	0
0	14184	3487.995520508263	1
0	14188	3489.255283703244	2
0	14189	3489.791254988162	1
0	14195	3490.292828154149	0
0	14201	3490.834862992926	1
0	14202	3491.094812607274	0
0	14234	3499.822550538942	1
0	14235	3500.735455019822	0
0	14296	3522.772960791688	1
0	14299	3523.974803027861	2
0	14300	3524.932763794183	1
0	14308	3526.945653997218	2
0	14311	3531.456710552039	1
0	14317	3532.829781834726	0
0	14324	3533.194939076586	1
0	14325	3533.608691355926	0
0	14362	3539.973469657143	1
0	14365	3540.630324980861	0
0	14374	3541.769960470039	1
0	14376	3542.01814096334	2
0	14381	3543.418055316464	1
0	14386	3545.073288626171	0
0	14392	3545.083817009403	1
0	14393	3545.139832446241	0
0	14412	3550.820890713263	1
0	14413	3551.072892249718	0
0	14425	3552.73319108362	1
0	14427	3552.83460296111	2
0	14428	3553.831239226552	1
0	14433	3554.249369801825	0
0	14440	3555.476311813497	1
0	14442	3556.120163067889	0
0	14479	3575.222926274027	1
0	14481	3575.70335504249	2
0	14483	3576.11572473068	3
0	14485	3576.90810173859	2
0	14490	3577.17601962013	1
0	14496	3577.708715471892	0
0	14548	3588.16920729772	1
0	14551	3589.700274475087	0
0	14563	3590.473097084688	1
0	14564	3592.249792498243	0
0	14610	3604.844121882672	1
0	14611	3605.312577748718	0
0	14632	3610.759723257284	1
0	14633	3611.578635892655	0
0	14649	3620.535585623796	1
0	14650	3621.530898959212	0
0	14656	3622.870357438146	1
0	14658	3623.559703600033	0
0	14665	3624.326046726028	1
0	14667	3624.910303925158	2
0	14668	3625.396032676292	1
0	14673	3625.907234532465	0
0	14694	3634.599320349254	1
0	14695	3634.60339890573	0
0	14708	3636.546351687503	1
0	14709	3637.332690253594	0
0	14755	3645.038938644867	1
0	14758	3645.899460045186	0
0	14811	3657.351539289603	1
0	14812	3657.379828915742	0
0	14827	3658.623071945352	1
0	14832	3660.696696863991	0
0	14870	3678.373130486723	1
0	14872	3678.413727612666	2
0	14876	3678.757161700608	3
0	14880	3679.169534289925	4
0	14882	3679.189740686001	5
0	14884	3680.125530832267	6
0	14886	3680.247554662391	7
0	14888	3680.685744866846	6
0	14893	3680.912390278139	5
0	14899	3681.444364951014	6
0	14901	3682.013100976869	7
0	14902	3682.301410593186	6
0	14907	3682.771681210144	5
0	14914	3683.207672782783	6
0	14916	3683.517506568987	5
0	14921	3684.130495859329	4
0	14928	3684.626516807539	3
0	14935	3685.884134955694	2
0	14939	3686.66885360617	3
0	14941	3688.384006630886	4
0	14943	3688.697427582516	5
0	14945	3689.61832254354	6
0	14947	3690.650685487802	7
0	14951	3692.434816643991	8
0	14953	3692.576592292978	9
0	14955	3692.863421897504	10
0	14956	3693.419731585694	9
0	14960	3693.831806215564	10
0	14963	3695.219831308912	9
0	14969	3697.028497303628	10
0	14970	3697.148341152113	9
0	14974	3697.966889242763	10
0	14979	3700.099855809486	9
0	14984	3700.319205333769	8
0	14989	3700.366976412964	7
0	14993	3700.493212658059	8
0	14997	3702.394319669886	9
0	15003	3704.829047993484	8
0	15010	3706.034056192519	9
0	15012	3707.097153543566	8
0	15017	3707.331780226206	7
0	15022	3707.862344207676	6
0	15026	3708.164954500851	7
0	15032	3709.987718908083	6
0	15037	3710.116112534979	5
0	15043	3710.316820643323	4
0	15049	3710.764796693205	5
0	15050	3711.747199561536	4
0	15055	3714.581818876122	3
0	15059	3715.167360688415	4
0	15064	3717.932306936214	3
0	15070	3718.946822624568	2
0	15075	3719.002103063361	1
0	15080	3719.066315912416	0
0	15088	3720.794536548872	1
0	15089	3721.01815886237	0
0	15097	3721.700147852922	1
0	15098	3722.494793814842	0
0	15107	3724.11012728586	1
0	15110	3727.868673431468	0
0	15152	3737.3373965149	1
0	15155	3739.778157884231	0
0	15169	3743.477543358561	1
0	15174	3747.793511084347	2
0	15176	3748.256837749821	3
0	15177	3748.39764523543	2
0	15183	3749.184449755	1
0	15190	3749.644461109247	0
0	15207	3753.748342363453	1
0	15211	3756.916625598207	2
0	15213	3760.087796291522	3
0	15216	3760.689637735417	2
0	15221	3760.702299345516	1
0	15226	3761.052696960003	0
0	15235	3762.820087391297	1
0	15236	3764.65601288208	0
0	15244	3764.882549368322	1
0	15248	3766.65199191316	2
0	15249	3766.674012451666	1
0	15255	3767.19945840729	0
0	15273	3770.107389136935	1
0	15275	3770.599064440325	2
0	15276	3772.048310309221	1
0	15282	3772.191373187608	2
0	15283	3772.331545972048	1
0	15288	3772.570652097562	0
0	15315	3776.679492695382	1
0	15323	3780.483849738115	0
0	15335	3780.960379009371	1
0	15336	3782.029143701773	0
0	15343	3782.888845770583	1
0	15344	3783.331638319963	0
0	15350	3783.981887631047	1
0	15351	3784.386318162671	0
0	15362	3785.647192046462	1
0	15365	3786.287274724725	0
0	15376	3789.366911650755	1
0	15380	3792.861119279626	0
0	15387	3793.959835417875	1
0	15388	3794.038090015504	0
0	15395	3794.733728924805	1
0	15397	3797.184517999126	0
0	15414	3798.618325513584	1
0	15418	3799.456297721011	0
0	15439	3804.44024168876	1
0	15442	3805.20048695581	2
0	15443	3805.849354091452	1
0	15450	3806.087654793912	2
0	15451	3807.724558483348	1
0	15458	3808.938658682808	0
0	15465	3809.841247219331	1
0	15467	3810.139806955485	2
0	15471	3812.666098606541	3
0	15472	3812.719819279549	2
0	15478	3814.410508805816	1
0	15484	3814.772130333809	2
0	15487	3816.026829625265	3
0	15488	3816.733764177126	2
0	15494	3817.752569427337	3
0	15495	3818.024170709526	2
0	15500	3819.053831911582	1
0	15506	3819.611111566163	2
0	15509	3819.629144348962	1
0	15514	3820.291043016899	0
0	15518	3821.406494288638	1
0	15521	3823.214109109897	0
0	15527	3824.351786385613	1
0	15530	3825.526173701308	0
0	15563	3832.923134155307	1
0	15566	3833.553397786879	2
0	15569	3833.782400379418	1
0	15575	3834.015336762152	0
0	15581	3834.105523412572	1
0	15583	3834.471953751105	2
0	15585	3835.562912013931	1
0	15591	3836.150647826058	0
0	15607	3838.587139342507	1
0	15608	3838.645996445112	0
0	15623	3843.853803748585	1
0	15625	3844.722484138982	2
0	15629	3848.180459046403	3
0	15632	3848.280275332177	2
0	15638	3850.532141187259	3
0	15640	3851.479454234272	2
0	15645	3851.754936667444	1
0	15654	3852.349108140055	0
0	15667	3856.15343417734	1
0	15668	3856.351430412548	0
0	15685	3860.061938270528	1
0	15687	3860.517628671812	2
0	15692	3862.586598173181	1
0	15698	3862.750724915131	2
0	15699	3862.968549605448	1
0	15705	3863.324537331763	0
0	15716	3864.011289256367	1
0	15719	3866.571793678114	2
0	15721	3866.96879510213	1
0	15726	3867.221420773184	0
0	15750	3873.935241057365	1
0	15751	3875.635052862106	0
0	15761	3878.381720952174	1
0	15763	3879.578435634843	2
0	15764	3880.520025103799	1
0	15769	3880.686295883798	0
0	15778	3884.122434286102	1
0	15782	3887.053932102832	0
0	15800	3892.132127195921	1
0	15801	3893.943914851304	0
0	15823	3898.722142853966	1
0	15826	3902.997956026031	0
0	15833	3903.099668005399	1
0	15834	3903.813392896425	0
0	15840	3904.421698876938	1
0	15841	3904.675898542596	0
0	15849	3905.746882891108	1
0	15851	3905.843777397438	2
0	15852	3905.990699546518	1
0	15859	3909.017877533512	2
0	15860	3909.637178191287	1
0	15865	3909.99269012397	0
0	15873	3913.265745726113	1
0	15874	3913.775405164469	0
0	15898	3916.664269863323	1
0	15901	3917.272963819264	0
0	15923	3920.501814128632	1
0	15926	3923.943370018301	0
0	15954	3934.185422964953	1
0	15959	3936.57856882751	0
0	15994	3946.324435103873	1
0	15997	3946.999035033486	2
0	16000	3950.7420432223	1
0	16005	3952.08668343124	0
0	16014	3953.695308911855	1
0	16016	3953.817858266068	2
0	16019	3957.907870851734	1
0	16024	3958.123539898529	0
0	16048	3962.518810431651	1
0	16049	3963.037337203373	0
0	16079	3970.512676621818	1
0	16080	3970.512797263852	0
0	16139	3989.774553268872	1
0	16141	3990.015978097739	2
0	16144	3993.767966998887	1
0	16149	3994.415882316736	0
0	16177	4000.136858185279	1
0	16179	4003.02089425708	2
0	16184	4004.767100811148	1
0	16190	4005.3100251697	0
0	16196	4005.501451242184	1
0	16199	4008.584533783545	0
0	16272	4033.168075466909	1
0	16275	4036.221230235017	0
0	16298	4041.557676781674	1
0	16302	4042.326334801372	2
0	16303	4043.267423952943	1
0	16310	4044.090274916186	2
0	16312	4044.604120827732	1
0	16318	4044.924393644002	2
0	16319	4045.088286763509	1
0	16323	4045.705141573242	2
0	16326	4046.577935422235	1
0	16330	4047.364033965164	2
0	16332	4047.527296006498	3
0	16334	4048.144436137309	4
0	16336	4049.125743736664	5
0	16339	4050.786484749543	4
0	16345	4053.287262976905	3
0	16352	4053.667593136671	2
0	16359	4054.53653245868	1
0	16369	4056.176415603359	0
0	16391	4061.851562847142	1
0	16393	4062.594672233342	2
0	16396	4063.077594348237	1
0	16402	4064.637032363179	0
0	16413	4064.784669282434	1
0	16415	4064.972412209439	2
0	16417	4065.779865897734	1
0	16423	4066.415144922296	0
0	16446	4068.064080289268	1
0	16447	4068.385446945039	0
0	16490	4080.998397726478	1
0	16492	4081.355148436419	2
0	16498	4084.220480872337	3
0	16500	4084.309838763243	4
0	16501	4084.866295237736	3
0	16506	4085.05871351377	2
0	16511	4085.254202942083	1
0	16516	4085.337031218884	0
0	16522	4085.892517910926	1
0	16523	4086.302925457972	0
0	16550	4092.377583781889	1
0	16551	4092.880162762968	0
0	16557	4093.094097489898	1
0	16559	4093.312861142012	0
0	16574	4096.760576845338	1
0	16575	4097.784706427977	0
0	16589	4099.114268321501	1
0	16591	4099.499111859023	0
0	16625	4105.182975949078	1
0	16627	4105.471622104007	2
0	16630	4108.626978507308	1
0	16635	4109.357284715411	0
0	16639	4110.675172080558	1
0	16643	4111.733639685363	2
0	16646	4112.298199361293	1
0	16652	4114.244463896854	2
0	16654	4115.545632642783	1
0	16660	4116.313252518742	0
0	16675	4118.161974517009	1
0	16677	4118.455528064602	2
0	16681	4119.151032369058	3
0	16683	4119.272207119075	4
0	16684	4119.781303335814	3
0	16688	4120.679686027581	4
0	16691	4120.972348744106	3
0	16696	4122.154127041484	2
0	16701	4122.778009732054	1
0	16706	4123.931471052006	0
0	16710	4124.255289637226	1
0	16712	4124.554547495217	2
0	16717	4124.86049777959	3
0	16719	4125.070121530855	4
0	16721	4126.556234903853	3
0	16728	4128.582124005255	2
0	16734	4128.712203053701	3
0	16737	4129.447706398234	4
0	16741	4130.449677995335	5
0	16743	4131.200116408071	4
0	16749	4131.98194366295	3
0	16755	4133.307788642092	2
0	16760	4133.350481919572	1
0	16769	4136.965732652968	0
0	16775	4137.057545156636	1
0	16778	4138.64750861636	0
0	16790	4140.331766905314	1
0	16791	4140.442449774163	0
0	16830	4149.694134911786	1
0	16831	4149.895226772753	0
0	16866	4161.587576909831	1
0	16867	4164.000881311847	0
0	16874	4164.316839317814	1
0	16875	4165.361327686204	0
0	16897	4170.116687306151	1
0	16899	4170.638014896214	0
0	16938	4186.334413129708	1
0	16939	4186.791757953175	0
0	16945	4187.11964052732	1
0	16947	4187.79584069636	0
0	16999	4196.755284114483	1
0	17000	4196.876081324611	0
0	17018	4199.431640738279	1
0	17020	4199.555857695821	2
0	17025	4201.57394765097	1
0	17033	4203.698007988472	2
0	17034	4203.88958660956	1
0	17040	4204.122991354118	2
0	17043	4205.537643837189	1
0	17049	4208.534051677571	2
0	17050	4209.777619365139	1
0	17055	4212.265715546524	0
0	17067	4214.486787297949	1
0	17076	4216.957977448294	2
0	17078	4217.691909781944	3
0	17079	4218.322778863731	2
0	17084	4218.395199017332	1
0	17090	4219.033629060695	0
0	17125	4224.594918315876	1
0	17128	4227.866606081029	0
0	17135	4228.756710645277	1
0	17136	4228.855978725814	0
0	17144	4229.209321212866	1
0	17145	4229.571854756115	0
0	17160	4232.388113420684	1
0	17166	4234.125360120768	0
0	17175	4234.630589798805	1
0	17180	4236.489514191097	0
0	17196	4238.330029489518	1
0	17200	4240.614848233783	2
0	17205	4242.68492505995	1
0	17210	4242.855746523354	0
0	17257	4257.421535801261	1
0	17258	4257.851227549666	0
0	17287	4263.520029548911	1
0	17289	4266.235498171893	0
0	17318	4272.777108529975	1
0	17322	4278.369914173314	2
0	17325	4279.181737959632	1
0	17331	4279.720249349219	0
0	17345	4282.410287004518	1
0	17346	4282.430940955348	0
0	17355	4284.68205131163	1
0	17359	4285.823625146647	2
0	17360	4285.88013721051	1
0	17368	4286.600158018704	0
0	17377	4286.966744148267	1
0	17383	4287.773677130555	2
0	17387	4287.966733070474	3
0	17389	4288.656801773169	4
0	17391	4290.451269874484	5
0	17392	4290.991401927084	4
0	17398	4291.227042035158	3
0	17407	4296.108335276866	2
0	17414	4297.527758297333	3
0	17415	4298.426243974378	2
0	17420	4299.568093902324	1
0	17424	4299.615326778129	2
0	17426	4299.80634548933	3
0	17432	4301.249435167648	4
0	17434	4303.06547768181	3
0	17440	4304.781635163808	2
0	17445	4304.854380696245	1
0	17452	4306.676115088875	0
0	17480	4310.360727402371	1
0	17481	4313.356295833489	0
0	17501	4319.259332721266	1
0	17505	4319.892323452384	2
0	17507	4320.419537949623	3
0	17508	4320.993906250837	2
0	17514	4321.310352022259	1
0	17520	4321.368532196483	2
0	17521	4322.270544443646	1
0	17528	4324.08369282759	2
0	17530	4324.451742193367	1
0	17537	4324.53267879565	0
0	17543	4324.582755169326	1
0	17544	4325.113820511649	0
0	17555	4326.845597000639	1
0	17556	4327.267178555706	0
0	17593	4337.523558312389	1
0	17595	4337.882503499166	2
0	17599	4338.347626761718	3
0	17602	4338.861265217219	2
0	17608	4341.050201690239	1
0	17616	4341.493908334277	0
0	17648	4347.478893440324	1
0	17649	4349.128907037648	0
0	17660	4352.493470594958	1
0	17665	4355.151923742447	0
0	17694	4364.566444341443	1
0	17695	4365.372046881129	0
0	17748	4382.73825924215	1
0	17749	4383.29180186346	0
0	17757	4383.426803525331	1
0	17758	4383.70302928694	0
0	17766	4384.421265783848	1
0	17768	4385.521169590042	0
0	17793	4394.986657730906	1
0	17797	4399.461674089204	2
0	17798	4399.522779588759	1
0	17805	4401.285477126892	0
0	17816	4401.750313097583	1
0	17818	4402.270428683177	2
0	17819	4402.296677910307	1
0	17828	4403.463376729534	2
0	17832	4404.487813219267	1
0	17837	4404.897817767932	0
0	17881	4413.732294609813	1
0	17884	4415.271514802703	0
0	17927	4427.662075424294	1
0	17931	4428.024461010991	2
0	17932	4428.108181461759	1
0	17938	4429.43025647936	0
0	17953	4432.845681444748	1
0	17954	4432.882875380345	0
0	17963	4433.753238716369	1
0	17964	4434.648349361828	0
0	17975	4436.402421290263	1
0	17976	4437.524009010088	0
0	18008	4443.328579084231	1
0	18010	4443.341706520297	2
0	18011	4444.036663788971	1
0	18016	4444.129361139612	0
0	18028	4448.228105863912	1
0	18031	4448.38707996808	0
0	18062	4459.905859142188	1
0	18064	4460.460653229844	2
0	18066	4460.97909455084	3
0	18067	4461.596192510721	2
0	18072	4462.187475125419	1
0	18079	4464.657185303969	0
0	18106	4477.648428493175	1
0	18110	4478.313791551411	2
0	18111	4479.060610971454	1
0	18117	4479.560440415578	2
0	18119	4480.306597201959	3
0	18121	4480.947147588891	4
0	18122	4481.708524709733	3
0	18127	4483.017928736681	2
0	18133	4483.160432006257	1
0	18139	4483.30695502237	0
0	18152	4483.902660210439	1
0	18153	4484.051718393801	0
0	18159	4484.559577717877	1
0	18165	4486.823395702032	0
0	18185	4489.9021539921	1
0	18186	4490.146831089905	0
0	18238	4507.445574957585	1
0	18240	4508.255891348751	2
0	18243	4510.466323801789	1
0	18248	4510.475540989905	0
0	18254	4512.010039576531	1
0	18259	4513.576096361228	2
0	18261	4515.265032129884	1
0	18266	4515.787323363366	0
0	18288	4520.185363435885	1
0	18291	4522.428642736438	2
0	18293	4524.384878611496	3
0	18294	4524.67847007948	2
0	18301	4525.341157597035	3
0	18302	4526.296689399668	2
0	18307	4526.735681639808	1
0	18313	4527.505595658135	0
0	18319	4527.886899402386	1
0	18322	4529.200761566484	2
0	18323	4529.243367302231	1
0	18329	4529.521194918719	2
0	18331	4529.948764061047	3
0	18333	4530.703860031198	4
0	18335	4530.853194895828	5
0	18336	4531.013523083292	4
0	18341	4531.504401410355	3
0	18345	4532.056130769528	4
0	18351	4534.29290205877	3
0	18357	4535.631599049932	2
0	18362	4536.321461093107	1
0	18367	4537.206973765877	0
0	18371	4537.703500606661	1
0	18378	4540.617309224462	0
0	18395	4543.886255385972	1
0	18396	4544.22585039839	0
0	18416	4547.857608731629	1
0	18418	4548.949353988388	0
0	18429	4549.390740404164	1
0	18431	4549.879600790229	0
0	18438	4551.400938245179	1
0	18439	4551.483328639283	0
0	18468	4563.173635138264	1
0	18470	4563.498479915943	2
0	18474	4564.265617896494	3
0	18478	4567.529260395699	4
0	18479	4567.691008514769	3
0	18489	4568.828364904592	2
0	18497	4569.856844917484	1
0	18502	4570.27985922328	0
0	18530	4577.284711884932	1
0	18531	4577.526708712149	0
0	18537	4577.556821054083	1
0	18539	4578.923361123855	0
0	18566	4588.82250859921	1
0	18568	4589.189711539561	2
0	18569	4590.367106717204	1
0	18575	4591.567764760681	0
0	18609	4603.103463242293	1
0	18611	4604.381648475706	2
0	18615	4604.671167153785	3
0	18617	4605.256046615708	4
0	18618	4605.562201659651	3
0	18627	4606.735532452744	4
0	18628	4609.277049709793	3
0	18634	4611.039315808149	2
0	18641	4613.02546643456	3
0	18644	4613.946074137975	2
0	18649	4613.98132163329	1
0	18655	4615.587897517037	2
0	18656	4616.636037665365	1
0	18661	4617.160771199709	0
0	18669	4618.388988576112	1
0	18672	4620.576062383079	0
0	18689	4621.403680818465	1
0	18695	4622.709746498572	2
0	18697	4624.109700454223	1
0	18703	4625.293062210049	0
0	18715	4626.814885437054	1
0	18717	4627.381324117799	2
0	18720	4628.172714965482	3
0	18722	4629.580077702802	4
0	18723	4631.032037457714	3
0	18728	4632.069772611949	2
0	18733	4632.728794967562	1
0	18739	4632.79364568153	0
0	18759	4636.969157935094	1
0	18760	4637.09573162266	0
0	18766	4637.974873678764	1
0	18768	4638.261854573472	2
0	18770	4638.438922577429	3
0	18771	4639.155748740214	2
0	18776	4639.160935832947	1
0	18781	4639.35037486201	0
0	18785	4641.451055856919	1
0	18792	4644.863838881715	0
0	18798	4645.061795120851	1
0	18800	4645.30728943039	0
0	18812	4646.491221610044	1
0	18813	4646.611678866427	0
0	18817	4646.984069126904	1
0	18820	4647.690819055	0
0	18824	4649.384819462812	1
0	18826	4651.691072427629	2
0	18831	4652.841770318269	3
0	18834	4653.435887851088	2
0	18840	4653.881320242106	1
0	18844	4654.481937165588	2
0	18846	4654.659241488697	3
0	18849	4656.597634718363	2
0	18858	4659.908037872508	1
0	18863	4661.656558313369	0
0	18938	4693.017168317624	1
0	18940	4694.172567199987	0
0	18972	4702.229188141722	1
0	18973	4703.075890862529	0
0	18979	4703.485104034979	1
0	18981	4703.717384957063	2
0	18986	4704.817750435562	3
0	18987	4705.247575755869	2
0	18992	4705.263337841116	1
0	19001	4707.041333097505	0
0	19023	4710.755430799924	1
0	19026	4711.630181556703	0
0	19033	4713.436397084277	1
0	19035	4714.012423313663	2
0	19036	4714.087497078092	1
0	19042	4714.494572790225	0
0	19055	4716.47676578939	1
0	19056	4716.978803715635	0
0	19100	4729.432231965705	1
0	19103	4730.0505243962	0
0	19123	4734.338000033952	1
0	19129	4735.262904807566	2
0	19131	4735.456804191175	3
0	19137	4739.923921332035	4
0	19138	4740.535615013685	3
0	19145	4741.655099474081	4
0	19146	4741.794866997597	3
0	19151	4742.686797707493	2
0	19156	4742.739018941649	1
0	19165	4743.190869594805	0
0	19196	4750.28896149789	1
0	19200	4750.985415624346	2
0	19201	4752.391100195841	1
0	19206	4752.448269417493	0
0	19241	4760.367863318058	1
0	19244	4763.322742708007	0
0	19253	4764.09050734738	1
0	19257	4766.445298290339	0
0	19263	4766.848538475935	1
0	19266	4768.535146249492	0
0	19290	4774.319493668005	1
0	19296	4776.124747037891	0
0	19303	4777.680768737286	1
0	19304	4777.815862437037	0
0	19310	4777.888244254854	1
0	19312	4778.489013118395	2
0	19313	4779.26942028427	1
0	19319	4779.93562939693	2
0	19324	4780.730121110074	1
0	19330	4781.108990488708	2
0	19331	4781.192312366099	1
0	19336	4782.676412311772	0
0	19353	4785.864882297205	1
0	19354	4785.921743972911	0
0	19361	4786.955040852585	1
0	19364	4787.168221142402	2
0	19368	4788.772674878175	1
0	19373	4788.862554397219	0
0	19407	4800.685393650467	1
0	19408	4800.716296815281	0
0	19451	4810.879672978328	1
0	19455	4812.028851621703	2
0	19456	4812.066546320638	1
0	19464	4812.51011192953	2
0	19467	4813.593030722267	1
0	19474	4814.515350030455	2
0	19475	4814.836114408811	1
0	19481	4814.910342748427	2
0	19483	4817.127699013881	1
0	19488	4817.993101266852	0
0	19496	4819.383435460007	1
0	19497	4820.251694992977	0
0	19533	4825.456969222583	1
0	19535	4826.337183770312	2
0	19538	4827.694068568424	1
0	19544	4828.143795679119	0
0	19566	4832.344897395838	1
0	19567	4832.519433257306	0
0	19588	4837.029678655319	1
0	19589	4837.307433825098	0
0	19596	4837.71072086243	1
0	19598	4838.023583493387	2
0	19599	4839.010733981567	1
0	19604	4839.429305634648	0
0	19641	4845.643450650292	1
0	19645	4846.032845113582	2
0	19646	4847.097021697116	1
0	19657	4850.070281400684	0
0	19669	4851.177724438572	1
0	19671	4852.344199325022	2
0	19672	4852.438609873789	1
0	19678	4853.193326657656	0
0	19689	4853.898303515097	1
0	19690	4853.992666104399	0
0	19730	4860.325534769482	1
0	19735	4862.36161260229	0
0	19742	4862.564610615325	1
0	19744	4863.553507596217	2
0	19745	4863.996885012759	1
0	19753	4866.260797379726	2
0	19756	4869.107824061682	1
0	19762	4870.300211668489	0
0	19782	4873.793632909334	1
0	19783	4875.581846004919	0
0	19789	4876.445868400758	1
0	19791	4878.127854781638	0
0	19804	4881.202618901543	1
0	19809	4884.088813599652	2
0	19810	4884.185907426372	1
0	19815	4884.228891170276	0
0	19821	4884.377696721141	1
0	19825	4885.627886504956	0
0	19843	4887.403005264411	1
0	19844	4887.403623560659	0
0	19850	4887.43059185899	1
0	19856	4890.8312077507	2
0	19857	4891.091135295063	1
0	19862	4891.394990149466	0
0	19892	4902.886288067802	1
0	19898	4905.364817760221	2
0	19899	4905.597451798959	1
0	19904	4905.991327879804	0
0	19926	4908.499573986401	1
0	19930	4911.521202951437	0
0	19961	4920.159296319148	1
0	19962	4921.289878810697	0
0	19976	4922.700931335432	1
0	19979	4922.918844917833	0
0	20021	4944.262674622993	1
0	20022	4944.473466809463	0
0	20029	4944.930689485731	1
0	20030	4945.468853193895	0
0	20066	4958.073327419577	1
0	20067	4960.972785864542	0
0	20082	4964.626534530694	1
0	20083	4965.858784029209	0
0	20106	4972.135397944509	1
0	20108	4973.880661138435	0
0	20124	4979.576678867537	1
0	20125	4980.075320534839	0
0	20146	4987.407917348015	1
0	20148	4987.586765658639	0
0	20168	4997.292289495419	1
0	20169	4997.366761993456	0
0	20181	4999.609893361757	1
0	20183	5002.306196895219	0
0	20228	5014.154603537167	1
0	20230	5014.687726579987	2
0	20233	5016.654078420035	1
0	20238	5017.057695707413	0
0	20250	5018.209425748668	1
0	20251	5018.655419696994	0
0	20340	5039.723267628527	1
0	20342	5039.919130668996	2
0	20343	5040.568491258749	1
0	20349	5041.172929210182	2
0	20350	5041.380548220504	1
0	20357	5045.125325765868	0
0	20376	5047.012843591407	1
0	20377	5047.402747710485	0
0	20416	5058.667057304623	1
0	20418	5059.409672846039	2
0	20420	5059.41710973849	3
0	20422	5061.327174165458	2
0	20428	5062.431367392089	1
0	20433	5062.997141899401	0
0	20459	5069.302117363633	1
0	20460	5070.880087745138	0
0	20506	5088.339513388005	1
0	20507	5088.874889493663	0
0	20515	5089.996421907596	1
0	20520	5091.435883222395	2
0	20521	5091.665448964929	1
0	20527	5091.86497625002	2
0	20530	5092.561367716679	3
0	20531	5092.957045061907	2
0	20536	5093.444618828621	1
0	20541	5093.768259927818	0
0	20587	5105.622602480182	1
0	20589	5108.219068170233	2
0	20590	5108.223523829046	1
0	20596	5109.382835660537	2
0	20600	5111.908846983367	3
0	20601	5112.362303210667	2
0	20607	5112.691957290889	1
0	20612	5112.855274277065	0
0	20727	5143.95674068586	1
0	20728	5144.084909742517	0
0	20742	5145.775168294461	1
0	20743	5145.937411475958	0
0	20789	5163.165677686467	1
0	20790	5163.602534253683	0
0	20810	5166.174056243276	1
0	20811	5167.248735834404	0
0	20818	5168.524334861653	1
0	20819	5168.811086152844	0
0	20837	5171.646065855463	1
0	20838	5172.909664365733	0
0	20853	5174.584835771492	1
0	20855	5174.948909948243	2
0	20857	5175.238001910867	3
0	20858	5176.284425219117	2
0	20865	5176.546033748374	3
0	20867	5176.875594731142	4
0	20872	5177.646145410175	5
0	20873	5179.461518444865	4
0	20878	5180.742202826449	3
0	20885	5181.720074426591	2
0	20893	5182.597894423493	1
0	20899	5183.827982801008	2
0	20900	5184.218881947025	1
0	20905	5185.303835967256	0
0	20916	5187.126473424281	1
0	20917	5188.057180941096	0
0	20961	5200.297893386019	1
0	20963	5200.675256765924	2
0	20964	5201.324528634921	1
0	20970	5204.430909474877	0
0	20998	5210.770444078388	1
0	21000	5211.944891135388	0
0	21050	5231.303559102647	1
0	21053	5231.67081378983	0
0	21060	5232.843384931252	1
0	21061	5232.914697462744	0
0	21084	5247.716194136181	1
0	21086	5249.599934017118	0
0	21148	5276.654808444246	1
0	21150	5277.027064266492	2
0	21155	5279.25756157862	1
0	21160	5280.192524350308	0
0	21171	5282.198300593073	1
0	21174	5283.402898562589	0
0	21183	5286.093492505706	1
0	21184	5287.597506007074	0
0	21205	5292.454684142533	1
0	21206	5293.377672066288	0
0	21213	5293.975456889651	1
0	21216	5295.061628624208	0
0	21238	5300.325753259657	1
0	21241	5301.046976841664	0
0	21263	5303.46659813804	1
0	21267	5304.919287819643	0
0	21274	5305.311089907394	1
0	21275	5305.551264092259	0
0	21284	5309.709134812928	1
0	21287	5311.806879840288	0
0	21319	5314.884636341619	1
0	21321	5314.979240477427	2
0	21327	5320.523107307636	1
0	21331	5321.624621898244	2
0	21336	5322.934983153631	1
0	21341	5323.389586396244	0
0	21355	5324.92244842507	1
0	21357	5325.603796108286	2
0	21361	5326.08480669633	3
0	21362	5326.543994169947	2
0	21369	5329.91037634999	1
0	21374	5330.603566755829	0
0	21378	5332.229510637603	1
0	21381	5332.654515370706	0
0	21394	5336.743940443212	1
0	21395	5336.955269644353	0
0	21445	5351.005910276276	1
0	21447	5351.273358036435	2
0	21450	5352.514188786146	1
0	21456	5352.829813130501	2
0	21457	5354.188661572387	1
0	21463	5354.242662109635	0
0	21491	5362.27806332334	1
0	21495	5362.598697744403	2
0	21498	5363.965803112989	1
0	21503	5364.184151842468	0
0	21509	5364.386513296195	1
0	21511	5365.54543077083	0
0	21526	5367.049243488841	1
0	21527	5367.48991647705	0
0	21543	5368.246479643972	1
0	21545	5368.357701941705	2
0	21549	5371.137508082257	3
0	21551	5371.452901021921	4
0	21552	5372.032884625807	3
0	21558	5372.541578922353	2
0	21566	5373.056970647901	1
0	21576	5375.625295484652	0
0	21610	5383.034389115904	1
0	21611	5383.771978394403	0
0	21622	5386.944458138449	1
0	21629	5390.699649372534	2
0	21632	5390.902105316205	1
0	21638	5390.962209742214	2
0	21639	5391.603395880469	1
0	21644	5391.748397973112	0
0	21664	5395.882045164206	1
0	21667	5396.988705670778	0
0	21712	5408.039348729285	1
0	21714	5409.672882269762	0
0	21744	5417.697099644124	1
0	21745	5418.042273133702	0
0	21808	5435.367358546871	1
0	21810	5436.199429026674	2
0	21811	5437.047481988266	1
0	21818	5437.576211721015	2
0	21822	5437.934031133686	1
0	21828	5438.28900542417	0
0	21854	5442.982877664889	1
0	21858	5445.359022114192	0
0	21864	5445.536406552077	1
0	21865	5445.920632264311	0
0	21878	5448.216144602446	1
0	21880	5448.886916262253	2
0	21882	5451.177708721636	3
0	21883	5451.375199257274	2
0	21889	5451.548158441579	1
0	21904	5456.659542814019	2
0	21907	5460.594472536636	1
0	21913	5461.586324479932	0
0	21950	5467.105467246629	1
0	21951	5467.584589302894	0
0	21962	5470.031583837972	1
0	21964	5471.411933855787	2
0	21968	5472.31144136413	3
0	21970	5472.473641465068	2
0	21980	5474.36848964885	1
0	21987	5475.001047347986	2
0	21989	5475.286811956424	1
0	21995	5476.012349068709	2
0	21996	5476.736542780586	1
0	22003	5478.664766172447	0
0	22029	5481.397701034944	1
0	22030	5483.86134343656	0
0	22079	5494.876812198859	1
0	22084	5495.101107989911	0
0	22090	5495.325759287304	1
0	22092	5495.402296080089	2
0	22093	5495.469582797467	1
0	22101	5498.247768517984	2
0	22103	5499.240227406567	3
0	22104	5499.359040499026	2
0	22109	5500.389261633529	1
0	22114	5500.773415351561	0
0	22140	5503.981745205771	1
0	22142	5504.070099861654	2
0	22145	5504.783650048381	1
0	22151	5507.274220979311	0
0	22175	5513.231660103187	1
0	22183	5515.635518903106	2
0	22184	5516.325551943187	1
0	22192	5518.057051094656	0
0	22200	5519.512343690395	1
0	22201	5519.548126506442	0
0	22232	5526.259724704578	1
0	22235	5526.663758838753	0
0	22252	5529.079789647835	1
0	22255	5530.535783739081	0
0	22262	5531.205674013961	1
0	22264	5533.453060988853	0
0	22376	5560.836904755191	1
0	22379	5562.149686635083	0
0	22405	5564.057260910755	1
0	22407	5564.085840060851	2
0	22408	5564.545722404274	1
0	22413	5565.141075538095	0
0	22475	5588.62865623405	1
0	22478	5589.551041403849	0
0	22492	5593.551194027031	1
0	22493	5594.734541457933	0
0	22567	5610.806407857047	1
0	22570	5612.137839301821	0
0	22590	5616.32515066584	1
0	22592	5617.439699280329	2
0	22595	5618.284418795196	1
0	22605	5622.034163701035	0
0	22611	5622.361979436842	1
0	22615	5623.414239881743	0
0	22632	5625.080433792195	1
0	22634	5625.544897334681	0
0	22668	5634.230307324999	1
0	22669	5635.686740833865	0
0	22726	5650.262148829203	1
0	22730	5651.136492523191	2
0	22731	5654.111705929289	1
0	22736	5654.748204554433	0
0	22742	5654.765570749904	1
0	22743	5654.797503590387	0
0	22750	5655.358425287234	1
0	22751	5656.713406410318	0
0	22766	5658.48971617993	1
0	22772	5659.039791288599	2
0	22777	5661.919604710938	1
0	22782	5662.54314562732	0
0	22793	5662.925024292675	1
0	22794	5663.329445623656	0
0	22835	5673.563765066277	1
0	22836	5673.846269175187	0
0	22853	5676.705847397826	1
0	22855	5676.764582803278	2
0	22856	5677.210405936704	1
0	22861	5678.144184565402	0
0	22874	5683.08506417405	1
0	22875	5683.597155701298	0
0	22886	5684.078527239738	1
0	22888	5684.796227037697	2
0	22891	5685.338457053798	1
0	22895	5685.501167838621	2
0	22902	5688.23672002912	1
0	22910	5689.303125081508	2
0	22911	5689.413892406278	1
0	22918	5690.43550728496	0
0	22936	5694.073511671654	1
0	22938	5694.437523684681	2
0	22939	5694.598014459326	1
0	22944	5695.122987238781	0
0	22958	5695.812966997568	1
0	22959	5696.272702161086	0
0	22975	5699.78349162038	1
0	22976	5700.228592367584	0
0	23062	5726.436600204252	1
0	23063	5726.856493784378	0
0	23067	5726.974549065975	1
0	23074	5731.858214425585	0
0	23126	5750.742269938191	1
0	23127	5750.760716483814	0
0	23133	5750.892052067877	1
0	23139	5752.925568089793	0
0	23157	5754.789087301387	1
0	23159	5755.242130037702	2
0	23161	5755.30149381638	3
0	23162	5756.086414612165	2
0	23168	5756.730994492013	1
0	23179	5759.848744217213	2
0	23180	5760.937812420922	1
0	23185	5762.132151822241	0
0	23191	5762.674904601508	1
0	23192	5764.849979449771	0
0	23228	5771.339776397293	1
0	23230	5772.004095999939	2
0	23231	5772.459223291264	1
0	23238	5774.015646978305	0
0	23276	5790.514195454254	1
0	23277	5790.72217339311	0
0	23315	5800.172150823949	1
0	23317	5800.367893720428	2
0	23318	5800.539265408937	1
0	23324	5802.462502837248	0
0	23338	5807.749938845223	1
0	23340	5807.955206004803	2
0	23341	5808.219578885327	1
0	23346	5808.416788298263	0
0	23410	5834.795884471302	1
0	23411	5834.875072270025	0
0	23424	5835.217331636224	1
0	23427	5835.353189457719	2
0	23432	5837.658806862439	1
0	23437	5838.083968702752	0
0	23527	5860.114693119063	1
0	23531	5860.944161188734	2
0	23532	5860.965151100476	1
0	23537	5860.969614229384	0
0	23543	5861.085911859274	1
0	23544	5861.339231238502	0
0	23571	5870.901708727814	1
0	23573	5871.100248482122	2
0	23576	5871.554995413033	3
0	23580	5872.926183764416	2
0	23585	5873.21699293156	1
0	23590	5873.428217200001	0
0	23594	5874.120138390787	1
0	23597	5876.303280960729	0
0	23603	5877.244860377027	1
0	23604	5877.405241007781	0
0	23695	5905.088570105007	1
0	23699	5905.772788158907	2
0	23700	5906.984179427989	1
0	23706	5907.892068576579	0
0	23713	5908.305498073025	1
0	23714	5908.939290463397	0
0	23736	5911.850150900151	1
0	23741	5914.29402241536	0
0	23750	5915.900578300531	1
0	23753	5917.002244282358	0
0	23762	5918.910683463631	1
0	23764	5919.373604163892	2
0	23767	5921.048040122862	1
0	23778	5925.461782402273	2
0	23781	5928.360783298598	1
0	23793	5931.760199541832	0
0	23826	5939.301227501135	1
0	23829	5941.794327409341	0
0	23858	5946.967569398362	1
0	23862	5947.820019040798	0
0	23922	5964.161213594509	1
0	23924	5964.270166086497	2
0	23927	5964.870283616252	3
0	23928	5965.038805189807	2
0	23934	5965.074099938283	3
0	23935	5965.433139875997	2
0	23941	5965.528644813767	3
0	23942	5968.035188957962	2
0	23948	5968.291575483067	1
0	23953	5968.481158538245	0
0	23957	5968.757281260108	1
0	23963	5970.476051390985	2
0	23964	5970.673392538727	1
0	23970	5972.089386110559	0
0	23982	5973.829669475434	1
0	23984	5973.846047530813	2
0	23985	5974.199914307719	1
0	23995	5974.503024231588	0
0	24061	5993.013687766811	1
0	24064	5995.88990131426	0
0	24163	6017.826693978747	1
0	24168	6019.888370863156	0
0	24195	6025.344505467301	1
0	24196	6025.954637442969	0
0	24218	6030.798206673922	1
0	24219	6030.833424618159	0
0	24225	6030.892839393069	1
0	24226	6031.624628494832	0
0	24248	6035.80232851963	1
0	24250	6035.924702672669	2
0	24255	6037.523236350629	1
0	24262	6038.045512345134	2
0	24263	6038.117540092139	1
0	24269	6040.03903080551	0
0	24277	6040.991466366964	1
0	24278	6041.205665490038	0
0	24303	6046.688169583007	1
0	24305	6046.783773102151	2
0	24306	6047.363580195819	1
0	24311	6047.56049339018	0
0	24318	6048.209601444526	1
0	24322	6048.922910984622	0
0	24333	6052.883049005804	1
0	24334	6052.917710318017	0
[...]
5	113028	27610.753850087543	14.566542103394
5	113038	27613.227155896772	16.01988410731
5	113050	27616.699113995388	8.402146608814
5	113063	27619.427041269303	6.739313852692
5	113070	27621.492570267854	4.004056245802
5	113146	27643.274885612374	6.107682155529
5	113160	27647.109235279049	7.380321913431
5	113179	27649.340501920027	7.9022748768
5	113200	27653.717915366302	6.280139815332
5	113213	27657.019840068947	9.465927691291
5	113235	27658.864750151054	7.747298102157
5	113246	27660.042919438433	3.863168199942
5	113252	27664.430504207468	8.028251195835
5	113257	27664.492741565423	5.766918470322
5	113262	27665.695065531689	6.222653112319
5	113267	27666.848749791037	7.295220745227
5	113282	27675.970991284513	16.114325960266
5	113333	27688.236528282781	16.21986349015
5	113339	27691.369045570546	11.558285073999
5	113348	27692.275214844767	4.723999435098
5	113394	27699.46225271271	2.16920751681
5	113420	27706.171696176288	1.583920291865
5	113446	27713.20168800814	0.152657807567
5	113475	27718.467944800918	0.404654199009
5	113498	27722.017896699522	2.723250765744
5	113584	27749.100264888068	10.025202767292
5	113629	27759.444679321308	18.550641654358
5	113662	27765.841526388668	18.919110961873
5	113667	27766.294253730246	18.772917402841
5	113672	27766.333500817359	3.16109311242
5	113679	27768.148896132466	2.573795250868
5	113701	27775.095213237039	5.788402529007
5	113757	27784.036145343822	13.152671860077
5	113840	27797.935239984008	16.789857921162
5	113845	27798.857617047816	17.057219790375
5	113853	27799.597376902769	14.837466053775
5	113865	27800.65769159215	9.05392582147
5	113874	27804.840024188874	12.492467509593
5	113907	27813.005353227251	19.340846378644
5	113920	27819.567954974114	10.535818493217
5	113929	27821.797498721715	12.08057698265
5	114003	27836.189657082815	1.922057368195
5	114018	27837.615420800424	2.822199263896
5	114030	27840.060878400018	5.24604773228
5	114042	27845.533100753277	8.951038775946
5	114061	27851.894389710107	14.119198910297
5	114191	27885.336463114929	42.774314831759
5	114196	27885.841052040015	43.159157841951
5	114202	27886.291160731772	40.840813246332
5	114207	27886.331706682304	37.191328738189
5	114214	27886.756639525257	35.482625800548
5	114228	27890.360189764421	33.318880515054
5	114251	27893.391333314405	36.273039899069
5	114270	27896.675047185395	38.826247679754
5	114278	27898.932529550824	40.733604014198
5	114302	27902.444188164476	43.841019084355
5	114354	27912.463860698491	48.60305418136
5	114363	27917.761111336409	32.987697379135
5	114425	27929.035495332273	43.944229811497
5	114446	27930.811488101124	44.223953154988
5	114484	27934.548768815797	47.110133981546
5	114532	27950.004456855864	59.431543832852
5	114543	27952.999589877085	51.021083599843
5	114561	27954.9507471794	52.128923300763
5	114568	27956.409641170594	51.635164188167
5	114578	27957.631141165875	48.579118879673
5	114587	27963.419695225305	52.357695038775
5	114599	27969.258235921739	51.473531843561
5	114604	27969.706534350499	49.688653849825
5	114609	27975.145701446825	51.585269704462
5	114614	27975.683277252626	50.688599383846
5	114623	27978.408708440354	47.910936893959
5	114642	27982.837852287134	50.576586884458
5	114670	27987.491404722828	53.754106105259
5	114684	27992.84388676574	58.668495233357
5	114689	27993.915089888052	57.346864616344
5	114702	27997.6080146187	53.065677619085
5	114737	28005.522347487296	60.865663577072
5	114750	28009.544741137843	62.434168419705
5	114758	28012.861619477041	65.11667304864
5	114766	28014.126108071358	18.636291391422
5	114779	28018.37265507785	14.503566740985
5	114796	28025.241174080493	18.573315746861
5	114860	28046.043495680037	33.827516801572
5	114888	28053.311172641378	28.067088322375
5	114895	28053.860216893728	23.938615369053
5	114900	28054.722143154834	4.749244665562
5	114908	28059.089976948113	6.762637057347
5	114932	28067.379686611081	13.942796414971
5	115042	28099.171001201255	39.122121915116
5	115047	28099.171367068094	36.305521162002
5	115052	28099.999329654796	28.45915757673
5	115073	28107.513043334457	26.055372037051
5	115138	28121.307662428558	32.230349023848
5	115146	28122.161028863475	26.19378123201
5	115182	28129.492298145005	29.404166368499
5	115287	28162.063596074741	61.801548515719
5	115292	28162.309083126209	57.352817375694
5	115297	28162.888872133224	56.051821193816
5	115306	28168.549795913606	55.268295302734
5	115350	28179.757968987718	61.038141213585
5	115361	28180.485053987363	33.270549377727
5	115368	28181.672145110209	29.851331982325
5	115379	28184.316193434908	1.108873884165
5	115388	28185.151554929206	0.129448869611
5	115421	28190.464179994935	3.377901101946
5	115429	28193.778019350219	6.369215725206
5	115434	28193.836112614784	5.465741686307
5	115441	28195.192132738769	5.864170456552
5	115449	28196.255584403682	6.200113084797
5	115539	28209.099613036353	17.935151460628
5	115551	28213.397893833312	18.277439176668
5	115557	28215.225622872307	11.592837968241
5	115567	28219.627534502533	14.37249763538
5	115599	28227.558173841152	21.175869718395
5	115615	28228.463949579702	21.527567390317
5	115621	28228.688849009473	15.422456605662
5	115631	28230.046348985273	12.41547565028
5	115678	28242.339525857762	22.11584547246
5	115688	28242.737805898546	19.180876999343
5	115693	28242.788136426006	18.314517675491
5	115704	28245.987195283114	20.583027486181
5	115713	28249.439537967616	18.126868218579
5	115726	28251.02923185907	7.155712087866
5	115737	28254.134060050935	6.175530632498
5	115833	28267.896204582302	16.98191216443
5	115840	28272.005445599025	12.057509108229
5	115855	28277.675715868633	10.562092187666
5	115862	28280.876119830106	8.734070915055
5	115871	28282.317893268109	10.083439881752
5	115889	28287.870966772692	3.261001548059
5	115914	28293.834721030154	1.688347581924
5	115922	28296.129150480404	2.931730010076
5	115936	28297.996701547212	1.586436836766
5	115940	28298.963243067052	2.299115367
5	115952	28306.675649775701	4.263673016078
5	115985	28316.313674768387	6.563367737742
5	116030	28328.24233612586	17.892552304058
5	116039	28329.857373591113	16.008733415484
5	116069	28335.48774124586	13.951115902793
5	116097	28340.30695951172	13.049751142596
5	116107	28340.52823981225	11.615485028896
5	116115	28342.044815824247	5.526168937706
5	116120	28342.383984492635	2.762538984005
5	116132	28343.998092609068	4.111001934708
5	116152	28349.383440758035	8.382555754053
5	116159	28352.073046610684	9.6777537221
5	116169	28357.211970976488	10.451275435948
5	116206	28363.839772081248	13.908541558824
5	116273	28392.234814837224	5.168986190356
5	116291	28394.829815614354	3.284377403578
5	116305	28396.118573649637	0.182003541244
5	116313	28398.678680941526	0.280551693362
5	116405	28412.980954322169	10.537038396556
5	116410	28413.070772289513	1.278472939128
5	116415	28413.2849953797	0.985850885765
5	116422	28415.902463944285	3.019110338589
5	116435	28418.655850528128	3.583640425681
5	116465	28426.813367546298	8.864133589614
5	116476	28427.714409997891	9.646285503695
5	116523	28435.731285750264	16.569614460015
5	116532	28439.786198602672	8.29727297986
5	116556	28446.50179423812	5.204579164763
5	116587	28450.912585111827	2.080101645471
5	116597	28452.264381884925	3.338917754242
5	116624	28455.918988281202	3.102124379689
5	116641	28461.948825319415	8.107051893427
5	116652	28465.101763317678	10.560033250665
5	116657	28465.254875554709	8.559152056903
5	116674	28470.067948691296	13.299684972304
5	116691	28471.67245046567	14.131392958432
5	116700	28474.927758686502	7.805915670711
5	116707	28480.480104592395	12.262747032901
5	116741	28486.586276087789	17.328827350692
5	116760	28489.481074086637	17.401970953175
5	116785	28495.105592902876	22.589831959432
5	116805	28498.174490401931	14.181272037962
5	116809	28498.338284172653	6.293801696617
5	116845	28503.351442782199	0.564420192716
5	116850	28504.601459317305	1.282675831585
5	116868	28512.070575808023	1.485966925449
5	116884	28516.804465195838	3.693227497726
5	116895	28520.164195506323	6.997287307057
5	116913	28525.291737696331	10.117250881252
5	116926	28527.417014400791	9.903399378668
5	116933	28531.768249198466	13.177927502531
5	116948	28535.304837271742	13.545032279344
5	117026	28550.466620565475	24.027864786567
5	117051	28558.26396225278	28.257756906393
5	117056	28559.113312205433	26.898892893078
5	117068	28562.558888679718	25.990437492764
5	117077	28564.144735211706	18.495445878263
5	117107	28572.081163147858	10.900829011321
5	117159	28580.316999151693	18.686181502498
5	117164	28580.813553203052	18.281807018741
5	117169	28581.294193548692	10.750733094296
5	117174	28581.887972166454	9.057590822216
5	117179	28583.454868558245	7.514916512847
5	117192	28586.885984122575	7.52718597189
5	117240	28596.885349131594	7.813619489451
5	117245	28597.543770450483	2.246631937959
5	117323	28614.044163464289	4.057323926456
5	117339	28615.832840462158	1.484734014689
5	117360	28625.960589749085	3.069585411146
5	117373	28631.361865365961	0.439879376404
5	117397	28637.646191985246	3.926932465259
5	117407	28640.032327388181	2.297200554076
5	117419	28646.431326680405	4.686450521171
5	117432	28648.430522837559	1.634675845822
5	117459	28653.971954308581	0.858117865197
5	117503	28661.637408151121	4.503659360242
5	117508	28661.668460833822	3.479122538772
5	117520	28664.513663161655	4.904819243302
5	117525	28664.576768901176	1.593233294414
5	117529	28668.087027864871	4.009493207494
5	117537	28674.124252218479	1.229503746786
5	117559	28686.966588793079	4.29856029059
5	117603	28693.646912380695	4.986556133056
5	117616	28695.402691220562	1.199278269018
5	117626	28699.694535649077	0.02752295051
5	117645	28705.183551699214	1.84683386677
5	117665	28710.254036007607	0.429454877148
5	117678	28719.006470576136	5.181145284408
5	117694	28720.853599094762	0.918314684004
5	117719	28731.706997825989	0.934405531385
5	117727	28733.028777459344	0.502689891213
5	117809	28763.663220678161	4.56179752357
5	117833	28767.983460648358	6.670742144264
5	117837	28768.580044396824	6.049958993787
5	117883	28778.945994720628	1.351480570585
5	117894	28783.83895098581	5.567602610112
5	117918	28786.33766510585	0.539016337766
5	117956	28795.21206503305	1.333765817249
5	117987	28802.737208113999	1.104211090772
5	118004	28806.951451481422	0.469929633179
5	118040	28817.55053281889	2.978105059903
5	118049	28819.308634352301	3.592601854017
5	118058	28822.390114323933	2.186631057683
5	118107	28859.320861363476	3.292437688069
5	118114	28864.875300633433	0.636156624429
5	118132	28873.666861720715	1.370412852225
5	118176	28884.604521211376	2.198249295681
5	118195	28893.017714162597	7.527464036923
5	118241	28902.335730410609	4.939304793212
5	118249	28902.812892973047	5.194459611216
5	118267	28907.109268448361	8.927408397055
5	118282	28909.418766066542	2.692285394575
5	118404	28941.2083824509	22.285273694335
5	118410	28941.641953558548	21.399493355035
5	118415	28941.895901883147	12.567426012325
5	118422	28943.190220740728	9.71786130425
5	118426	28944.297911791737	4.703618442024
5	118442	28951.67857481262	1.386312827108
5	118459	28959.544149006864	1.563031283295
5	118481	28968.357228056505	0.053981462982
5	118492	28969.988830304083	0.835270158208
5	118501	28971.297230412128	2.068727977139
5	118508	28975.134142523378	4.807384619979
5	118522	28976.425652767656	5.513496050348
5	118538	28978.944036367937	0.703269082174
5	118610	29007.395178670362	6.596410605265
5	118614	29008.06370753618	4.654919710762
5	118622	29009.338263950417	0.866755908662
5	118629	29011.986175052299	0.791981287772
5	118649	29020.081274003756	1.539139872485
5	118666	29024.921347211475	0.877154915728
5	118674	29026.119391774571	1.715578943971
5	118678	29026.382375472965	1.022024150466
5	118693	29032.350312708029	0.696617074795
5	118750	29047.519268681198	8.415408758075
5	118763	29050.172270313176	8.240141097382
5	118773	29050.960477414887	8.179277961618
5	118778	29051.333993438661	8.525814335308
5	118794	29063.53975602067	19.64054380339
5	118814	29068.279879865241	22.989430788348
5	118832	29071.65062195593	24.351160359214
5	118843	29074.279328294257	21.055552308893
5	118852	29075.091634951153	21.766371871917
5	118874	29078.540409725329	20.301231073224
5	118898	29083.176389446667	2.870895165886
5	118906	29085.052027592259	3.427207841704
5	118919	29087.123035978441	1.63072559569
5	118952	29096.034662248372	7.538859697506
5	118978	29101.16942012068	10.419936689097
5	118994	29105.457625667697	14.572232558116
5	119041	29113.646432531493	11.735295847949
5	119045	29113.659843024462	9.021709926299
5	119054	29115.398329936794	0.503111231835
5	119068	29118.416351594515	2.583415875468
5	119089	29122.235753489615	3.700127069112
5	119099	29124.516521576073	1.248743868119
5	119109	29127.081852971159	3.159481832777
5	119127	29128.342032869616	1.259194386805
5	119134	29130.882352177345	2.660456765355
5	119145	29135.173394318695	6.911887718207
5	119177	29142.921572869966	12.387192567815
5	119198	29147.010321004701	14.595399406962
5	119234	29154.384887839227	13.75744945406
5	119288	29163.517638134968	15.834488736058
5	119294	29164.53509105217	16.095241900187
5	119300	29164.911714654001	15.595066438935
5	119305	29165.803313291625	12.358895395942
5	119313	29166.910624937691	11.702076559632
5	119323	29168.688607249486	5.741303737183
5	119335	29169.445083931634	0.423364051711
5	119344	29169.953756591451	0.592354484021
5	119351	29171.609802197699	0.639455756237
5	119367	29174.524194956397	2.74117381333
5	119394	29178.802583408561	5.888181115536
5	119403	29180.66733811226	6.602397529787
5	119418	29184.702649998889	7.333126559631
5	119424	29185.505669695963	5.515184575928
5	119428	29185.954718796794	4.20736945095
5	119450	29192.793074599793	5.369386197397
5	119476	29197.066120825995	6.344821182996
5	119483	29199.359073313903	0.735720516757
5	119520	29205.375345742248	1.270587562946
5	119532	29209.564520398972	1.535809822385
5	119578	29218.788935959065	1.937605356699
5	119652	29230.340380986278	10.080625607733
5	119675	29233.169881737901	10.659927606884
5	119925	29299.782309688561	41.517203695592
5	119930	29300.279003781015	33.411762523616
5	119937	29300.845283489402	32.138007938319
5	119947	29306.457450383614	30.159172722624
5	119957	29308.093088389224	25.412477758785
5	119965	29311.551054291063	26.479590392013
5	119979	29314.402977176553	28.77842197467
5	119996	29317.900491743809	29.522562647356
5	120007	29320.080228901325	31.00688225451
5	120014	29324.121133514219	28.375206856566
5	120043	29327.677146204714	27.102438302336
5	120053	29331.719369779142	25.968877975137
5	120067	29333.162076275269	17.096065074011
5	120087	29335.438195996059	18.581623442849
5	120106	29339.063042263963	13.212746365662
5	120121	29340.666332710269	14.691345446575
5	120155	29348.476481448926	16.286207416271
5	120163	29349.388289763607	11.472253602304
5	120182	29352.572454647821	14.221596580587
5	120189	29354.5532666683	9.544991709094
5	120200	29356.679450188198	8.874152087215
5	120207	29360.250883552594	11.959076033494
5	120214	29361.677178320586	3.054840185732
5	120251	29369.822359890317	6.46195034339
5	120268	29375.98061716566	3.930868753917
5	120283	29380.531794839507	0.338304944678
5	120352	29405.823523156757	12.08534301038
5	120357	29405.944335213176	11.616069001829
5	120362	29405.965945253446	10.228842027531
5	120369	29409.681247797068	12.312802271162
5	120379	29411.905188928461	13.44255936367
5	120383	29412.904269140252	10.159131795128
5	120403	29416.91821780511	2.681796005399
5	120413	29421.621101254278	5.656817147035
5	120423	29423.284279294411	5.698426495521
5	120449	29425.329267950012	6.634917686649
5	120454	29429.24713407273	6.657569833178
5	120499	29437.742085350834	1.399983643325
5	120554	29455.468995220391	15.377539841857
5	120645	29474.254497414481	28.955269627434
5	120650	29474.604185506391	27.232951162575
5	120655	29474.732635076108	22.458045001365
5	120660	29474.750877492009	16.212738300252
5	120667	29480.944001279361	20.160899861005
5	120674	29484.755526558243	14.013511650615
5	120679	29485.309821287422	14.288433761972
5	120684	29489.148210313338	17.653235488619
5	120692	29492.744348727286	13.919722763264
5	120712	29500.253365323012	0.908068593693
5	120744	29513.811672640396	0.094999234651
5	120802	29532.849743568187	4.181392476716
5	120839	29550.31150607762	0.074310615424
5	120900	29570.393863905742	2.637614509244
5	120923	29573.529818308217	0.673556407546
5	120934	29577.393488682352	4.396306357924
5	120947	29580.571288300267	3.773786340817
5	120958	29584.487371478079	7.567853144403
5	120985	29587.346518305943	8.04135278016
5	121019	29592.381744949048	8.55026810914
5	121047	29597.388037766683	12.064406717354
5	121055	29598.598878100204	12.37381630782
5	121079	29600.979378483668	7.834643142574
5	121089	29601.724943923922	7.865111312477
5	121094	29601.817647269142	7.686272725387
5	121099	29602.718272321594	7.498366899757
5	121104	29604.311319116332	4.019449797506
5	121113	29608.390517519649	1.201197325036
5	121162	29631.367813760073	3.202818699561
5	121180	29631.963095516454	2.547886457868
5	121184	29632.127453765557	0.415940496245
5	121192	29634.767937681452	1.443278329674
5	121211	29640.184434543815	3.219241986424
5	121215	29641.206295003565	1.897965041585
5	121277	29659.960013758162	4.271599407863
5	121282	29660.38811283274	2.821533859763
5	121291	29664.63183887329	6.436558458196
5	121312	29668.421174733905	6.611132549348
5	121343	29680.753404661689	0.434576376203
5	121351	29688.181768209617	0.427010421203
5	121367	29692.663100074168	1.695927458685
5	121378	29698.9605928093	5.94052972603
5	121382	29699.161531734306	3.221297806455
5	121460	29719.839830954285	11.124936363065
5	121467	29720.801161403468	8.684866864793
5	121478	29722.669785636264	9.269106128095
5	121485	29725.83829285435	0.053874256395
5	121493	29727.629232049703	0.254258724384
5	121528	29735.569749662887	3.425791971087
5	121546	29738.759198277547	5.656238600857
5	121569	29745.24002098337	11.200010395127
5	121579	29747.587822816089	11.33659267653
5	121592	29751.690844269339	13.256434165796
5	121613	29754.678791821598	9.31333175119
5	121621	29758.354098636242	12.398585478169
5	121630	29760.909708077035	12.13371689745
5	121660	29765.946734110029	1.808863389828
5	121703	29774.202462870139	1.707459952863
5	121755	29785.237029053444	0.216748056022
5	121813	29800.908167008529	5.147157121991
5	121832	29805.113064273313	1.952377319403
5	121867	29814.693753976845	11.075222744076
5	121871	29815.371023704626	9.860476949442
5	121888	29819.72893831339	0.697048972341
5	121903	29827.07190125854	5.798462603083
5	121914	29829.858722777027	7.439328279077
5	121918	29830.447408161764	5.138749846832
5	121927	29835.75897990314	2.931126018589
5	121946	29843.442540216038	2.053524790214
5	122055	29870.805288954851	6.629298506913
5	122060	29871.187170540617	6.421358932525
5	122065	29871.767885215719	5.239097737838
5	122069	29876.297744052885	8.997033366758
5	122077	29877.764432538597	0.066437570142
5	122094	29880.554709784215	2.031397176427
5	122101	29881.409983103432	2.669612980356
5	122165	29895.891765929316	0.717463402729
5	122190	29900.802996466018	0.387461552218
5	122197	29902.539727897151	0.28605272619
5	122230	29909.767326379757	0.735458052918
5	122235	29910.058039054842	0.962743824718
5	122239	29910.9219995596	1.815090775763
5	122299	29924.182722473203	4.520102238523
5	122314	29928.864654807937	8.652514618752
5	122360	29937.270223338871	14.095079096947
5	122379	29944.34622912374	19.089705818754
5	122396	29950.25040286767	21.541048115885
5	122443	29957.748339452628	23.763423697155
5	122463	29959.585950937696	24.091546674695
5	122473	29961.66074868962	21.125362985918
5	122498	29965.923412597566	25.128037868861
5	122507	29968.582518685684	19.603061399463
5	122517	29970.183843674271	19.39214537566
5	122526	29974.585132536882	23.677076581794
5	122554	29980.244181466829	25.3951438722
5	122559	29981.866934562272	26.630147002055
5	122568	29982.945899436027	26.222508371392
5	122582	29987.229574412364	21.270023932507
5	122596	29993.073447721939	22.401313255333
5	122602	29995.353020690831	17.920332421287
5	122610	29995.789771270124	12.898318617199
5	122622	29997.663383632048	12.089102071861

