version 2
run Second-n5-12-20191016-14:53:33-2092
attr configname Second-n5
attr datetime 20191016-14:53:33
attr experiment Second-n5
attr inifile omnetpp.ini
attr iterationvars ""
attr iterationvarsf ""
attr measurement ""
attr network org.omnetpp.queueing.Pizza
attr processid 2092
attr repetition 12
attr replication ""
attr resultdir results
attr runnumber 12
attr seedset 12
param **.PS.maxInventoriedPS 5
param **.U1.interArrivalTime exponential(3s)
param **.U2.interArrivalTime exponential(5s)
param **.PS.serviceTimeForInventoryU1 exponential(1.0s)
param **.PS.serviceTimeForInventoryU2 exponential(1.2s)
param **.PS.serviceTimeDirectU1 exponential(1.4s)
param **.PS.serviceTimeDirectU2 exponential(1.4s)
param **.PS.probabilityProducing 0.7
param **.CS.serviceTimeU1 exponential(1.1s)
param **.CS.serviceTimeU2 exponential(1.4s)

vector 0 Pizza.EntryQueueU1 queueLength:vector ETV
attr interpolationmode sample-hold
attr title "queue length, vector"
vector 1 Pizza.CS queueLength:vector ETV
attr interpolationmode sample-hold
attr title "queue length, vector"
vector 2 Pizza.EntryQueueU2 queueLength:vector ETV
attr interpolationmode sample-hold
attr title "queue length, vector"
vector 3 Pizza.sink lifeTime:vector ETV
attr interpolationmode none
attr title "lifetime of arrived jobs, vector"
attr unit s
vector 4 Pizza.sink lifeTimeU2:vector ETV
attr interpolationmode none
attr title "lifetime of arrived jobs, vector"
attr unit s
0	0	0	0
0	12	4.544079627315	1
0	15	4.647742685778	2
0	17	4.749720756831	3
0	18	4.810059113956	2
0	23	4.972400601896	1
0	29	5.008108668951	2
0	31	6.212105333864	1
0	37	7.802955186689	2
0	39	7.809740571748	3
0	43	8.441445705322	4
0	44	8.892321783	3
0	51	10.434410184801	4
0	57	12.372334263112	3
0	62	12.621456761598	2
0	67	12.99755610048	1
0	72	13.057401602744	0
0	89	14.773313454113	1
0	91	15.342592783367	2
0	96	18.040394563077	1
0	102	18.642869800534	0
0	108	19.718873797494	1
0	113	24.501840616043	0
0	155	30.231430781282	1
0	157	31.014932179855	0
0	187	37.232001743605	1
0	188	37.49911257519	0
0	202	39.693749403437	1
0	204	39.92267610128	2
0	205	40.569180053697	1
0	210	40.603991292868	0
0	231	44.37109289951	1
0	232	44.469586876408	0
0	249	47.380223913291	1
0	251	48.322194527866	2
0	254	49.254615713987	1
0	262	51.825384012655	2
0	263	52.03106078021	1
0	270	54.320616129275	0
0	284	56.037959897278	1
0	289	57.190936682031	0
0	321	63.309983410506	1
0	322	63.575271031435	0
0	346	67.332374448496	1
0	347	67.956404049846	0
0	388	75.370747329166	1
0	390	75.636056006163	2
0	391	75.783507906151	1
0	403	79.591192354888	0
0	418	82.633441816338	1
0	419	83.714104024617	0
0	436	86.702603738362	1
0	438	86.791996853671	2
0	441	87.738620117559	1
0	452	89.869038199925	2
0	454	91.532211212383	3
0	455	92.662867935653	2
0	467	94.422300918855	3
0	469	94.792893844507	4
0	471	97.019532058411	5
0	472	97.486078318984	4
0	478	97.869014914235	5
0	480	99.988866492965	4
0	487	100.533150183798	3
0	494	100.868289121661	4
0	496	100.895657108914	5
0	500	104.440064124319	4
0	505	104.637735168446	3
0	511	104.976577612867	4
0	512	105.167383706366	3
0	517	105.411297506985	2
0	522	107.051825638535	1
0	531	108.64242959521	0
0	550	112.623030323066	1
0	552	113.672322224882	0
0	558	113.991195838493	1
0	562	115.341708481336	2
0	564	116.882525056564	1
0	569	117.489443767466	0
0	598	120.017602722363	1
0	601	120.614233314638	2
0	602	121.772809381451	1
0	611	123.244167672167	2
0	612	123.416423034338	1
0	618	123.755290281892	0
0	642	128.437488941679	1
0	643	129.222102957012	0
0	660	132.923794205054	1
0	662	133.51115718603	2
0	663	133.807639543306	1
0	668	134.018899193299	0
0	691	140.345183142758	1
0	692	140.512636133478	0
0	703	141.028713344676	1
0	705	141.477487426693	2
0	714	149.51974306695	3
0	715	149.922204343973	2
0	721	150.967705453805	1
0	727	151.444178526791	0
0	737	152.046658980774	1
0	740	152.535930798674	0
0	749	152.818623095866	1
0	753	153.974631198087	2
0	758	154.762895910742	1
0	766	155.465693375395	2
0	773	157.294535340762	1
0	780	158.749824142011	0
0	786	159.590808290574	1
0	789	162.405501075469	2
0	793	162.526353195518	3
0	794	162.888724060907	2
0	801	163.669445736259	1
0	806	163.979890365609	0
0	842	169.601787092156	1
0	843	170.5326814244	0
0	849	171.983883746189	1
0	851	172.322855202609	2
0	852	172.481278752256	1
0	858	172.903798857482	0
0	864	173.263393329703	1
0	868	173.573918527923	0
0	884	176.247866067685	1
0	887	178.170433934609	0
0	899	178.416770219046	1
0	902	179.568287953517	0
0	916	183.993562140405	1
0	923	186.418964690561	2
0	924	187.109671400919	1
0	929	187.139516373482	0
0	935	187.815318014176	1
0	936	187.968200915882	0
0	942	188.353769305789	1
0	945	189.774846152466	2
0	948	190.64855950868	1
0	953	190.918569273802	0
0	999	199.615777680905	1
0	1001	199.643548726373	2
0	1002	200.851716976913	1
0	1007	200.924006197755	0
0	1051	215.08970311196	1
0	1054	217.019457716479	0
0	1065	221.249230917478	1
0	1067	221.268853755995	2
0	1071	222.310801775799	3
0	1072	222.901308067325	2
0	1076	223.11765268626	3
0	1079	224.659527880587	2
0	1085	226.4739440027	1
0	1091	228.241610615493	0
0	1097	228.32963636413	1
0	1100	228.812161427507	2
0	1102	230.050507448005	1
0	1111	233.25563554009	0
0	1131	238.164798112948	1
0	1132	238.505316344101	0
0	1194	257.574288558481	1
0	1200	259.020035534188	0
0	1227	265.610731475543	1
0	1228	266.013973544665	0
0	1234	266.325522211836	1
0	1239	268.660401054863	2
0	1240	268.988019708862	1
0	1246	269.178287949581	2
0	1248	269.632877324109	1
0	1253	269.864812630379	0
0	1259	270.677230392247	1
0	1262	270.84462719414	2
0	1264	271.165227642507	1
0	1270	272.718679147277	2
0	1273	275.035362017308	1
0	1278	275.192355864771	0
0	1286	277.576337177552	1
0	1288	277.75866605215	0
0	1302	279.080967809263	1
0	1304	279.901526832522	2
0	1305	280.470428892169	1
0	1311	280.534597916902	2
0	1314	281.15327197135	3
0	1315	281.64956097695	2
0	1324	282.421934161873	3
0	1326	282.720380174285	2
0	1332	285.346589216765	1
0	1342	287.17896774108	2
0	1343	287.563846938299	1
0	1349	287.807749404259	0
0	1366	288.469139195258	1
0	1367	288.488499606278	0
0	1384	289.777342908539	1
0	1385	289.860480366144	0
0	1391	290.132969778847	1
0	1392	290.267319049674	0
0	1416	293.966331259502	1
0	1417	294.392217362335	0
0	1425	295.077966701124	1
0	1428	296.201973516167	2
0	1434	297.732264166062	1
0	1439	298.546877216445	0
0	1464	302.561437839313	1
0	1467	303.115222003092	2
0	1469	303.532960974179	3
0	1470	304.89233625816	2
0	1477	305.043779461023	3
0	1481	308.048127976296	4
0	1482	309.035856178101	3
0	1487	309.097895691084	2
0	1494	309.986246224795	1
0	1499	310.685644551055	0
0	1519	314.387758051118	1
0	1524	315.398611698163	0
0	1538	322.72083105033	1
0	1539	325.020167215296	0
0	1561	328.956275681737	1
0	1564	330.056179594431	2
0	1566	330.51986674759	3
0	1568	330.973098016386	4
0	1569	332.105987831471	3
0	1574	332.190826420269	2
0	1579	332.726830271053	1
0	1586	333.871198932145	0
0	1642	356.564728627417	1
0	1643	356.949102928219	0
0	1667	361.317038172357	1
0	1668	361.781883505894	0
0	1698	365.461641691497	1
0	1700	365.749727556129	2
0	1701	366.756586489676	1
0	1706	368.349893546798	0
0	1717	369.409831049077	1
0	1721	371.499024591223	0
0	1791	397.323969193141	1
0	1792	397.832700659833	0
0	1845	416.717395452919	1
0	1846	417.166431498938	0
0	1903	428.63635099624	1
0	1905	430.628907450779	0
0	1911	431.626096354534	1
0	1913	433.281566729431	0
0	1920	433.755148854555	1
0	1923	436.2053733753	0
0	1946	443.488723272427	1
0	1948	443.501580116864	2
0	1950	445.793527571269	3
0	1951	447.085440514557	2
0	1957	447.360868790042	3
0	1961	448.283592888081	2
0	1966	448.914222432069	1
0	1972	449.140455509656	0
0	2018	459.58944964127	1
0	2020	459.60357754104	2
0	2021	459.730951397806	1
0	2026	460.264437030318	0
0	2032	460.296651462224	1
0	2033	462.246483195046	0
0	2052	463.110665110581	1
0	2055	463.327247509335	0
0	2079	467.40084748251	1
0	2080	468.4871227855	0
0	2086	468.5542833705	1
0	2088	468.948457247025	2
0	2093	470.342614015998	1
0	2099	471.171471564519	0
0	2121	473.867485341129	1
0	2122	474.853638230263	0
0	2128	476.086179598629	1
0	2132	476.966552867638	0
0	2172	489.98385519917	1
0	2176	490.805627552355	2
0	2178	492.007980711003	3
0	2180	492.680295359534	4
0	2182	493.815189232641	5
0	2183	494.276490177942	4
0	2188	495.221709146764	3
0	2195	496.191293246864	4
0	2197	496.461136666321	3
0	2202	496.931241125649	2
0	2207	497.014677714669	1
0	2214	498.108520784221	0
0	2228	503.920911727834	1
0	2230	504.536218523881	0
0	2254	510.539386940403	1
0	2256	511.770191323257	0
0	2277	515.103187914013	1
0	2278	516.219274099121	0
0	2284	517.946836478403	1
0	2288	519.23142884732	0
0	2294	519.352980971139	1
0	2296	520.991046252592	2
0	2297	521.275761607148	1
0	2302	521.339540831671	0
0	2324	524.528782350035	1
0	2331	527.611103991457	0
0	2342	530.135400961121	1
0	2347	534.357106926525	0
0	2387	544.177282759484	1
0	2388	544.60902036191	0
0	2454	566.661209987636	1
0	2456	567.129495913651	2
0	2458	567.386851217453	3
0	2459	568.006161768523	2
0	2464	568.246243041253	1
0	2470	569.117602716203	2
0	2471	569.609657854948	1
0	2478	569.873271010407	2
0	2479	571.353649264464	1
0	2485	571.664168303607	2
0	2487	572.435205567764	1
0	2492	573.956063370714	0
0	2508	575.509227894476	1
0	2515	576.430201131234	0
0	2519	577.918142389666	1
0	2523	579.225285227959	0
0	2527	580.496645623875	1
0	2530	581.940254547694	0
0	2543	584.415192409033	1
0	2544	584.687893013052	0
0	2553	585.727890794373	1
0	2556	586.292855185351	0
0	2570	587.957170629862	1
0	2575	588.942320850941	0
0	2647	611.142389481328	1
0	2648	612.345905338642	0
0	2656	613.639996891054	1
0	2657	614.890137187754	0
0	2663	615.673129516097	1
0	2665	616.630864086063	0
0	2686	620.817719923765	1
0	2687	622.999581946857	0
0	2707	625.904266500255	1
0	2709	625.987246491468	2
0	2711	626.030257600756	3
0	2713	626.590319568829	4
0	2716	627.411042459693	3
0	2724	629.297520657284	4
0	2725	629.597224798985	3
0	2731	629.602895730039	4
0	2734	630.110096969178	5
0	2735	630.210299120947	4
0	2741	630.608863683704	3
0	2746	630.980081436071	2
0	2753	632.426555270342	1
0	2761	632.827292426676	2
0	2765	633.998468121369	1
0	2774	635.108210205858	2
0	2775	635.827433940273	1
0	2780	637.34685248003	0
0	2823	641.636500007233	1
0	2824	642.545229604894	0
0	2830	643.059190328112	1
0	2832	643.090589444779	2
0	2833	643.160198265013	1
0	2841	643.880572195943	2
0	2842	644.74228814775	1
0	2847	645.69933150201	0
0	2870	649.397275210558	1
0	2872	650.730338967674	0
0	2902	656.467295206301	1
0	2905	656.612546367719	2
0	2906	657.470027371588	1
0	2913	658.864313664182	0
0	2920	659.418751514935	1
0	2924	662.961025153176	2
0	2925	663.549378945343	1
0	2930	663.87511322527	0
0	2934	664.45820645367	1
0	2936	664.613677783943	2
0	2938	665.443309403398	3
0	2940	666.270237193824	4
0	2942	668.069081229073	5
0	2947	669.124184213334	4
0	2952	669.459826863788	3
0	2956	669.624625560335	4
0	2960	670.011359894972	5
0	2961	670.643258814585	4
0	2970	673.877577070823	3
0	2974	674.761003706458	4
0	2979	676.461727008096	5
0	2982	677.443830739884	6
0	2985	678.712703275563	5
0	2990	679.534326682994	4
0	2996	680.769156584027	3
0	3002	681.03473819813	4
0	3003	681.042734971531	3
0	3008	682.553294139084	2
0	3014	683.159678967997	3
0	3017	684.209153709715	2
0	3024	686.552796938195	1
0	3029	689.129736932408	0
0	3052	695.578805323845	1
0	3053	696.36745615067	0
0	3062	698.206863193	1
0	3063	698.716172044103	0
0	3070	700.17056218406	1
0	3071	700.62961701231	0
0	3117	716.395436714153	1
0	3118	716.595826115045	0
0	3124	717.302635270244	1
0	3128	718.572846309198	0
0	3134	718.79899443143	1
0	3136	720.536495333926	0
0	3148	721.186574032956	1
0	3149	722.106070724307	0
0	3158	723.110023319965	1
0	3162	724.934960806479	0
0	3196	731.493711739338	1
0	3198	732.587892227632	2
0	3202	734.195694081086	3
0	3204	734.770849779306	4
0	3205	735.293569555236	3
0	3211	737.527258833215	2
0	3216	738.175063723949	1
0	3226	741.061098789174	2
0	3227	741.345348354507	1
0	3234	743.740844224832	0
0	3241	744.936324163073	1
0	3242	745.055166799234	0
0	3254	747.020516896797	1
0	3255	747.262785223013	0
0	3289	757.578232957462	1
0	3290	758.376426354801	0
0	3321	765.789204366271	1
0	3324	767.245682404656	0
0	3335	768.073846568872	1
0	3337	768.117567365776	2
0	3340	768.739631256519	1
0	3349	769.737796712162	0
0	3356	770.353522130667	1
0	3358	771.090639885401	2
0	3361	772.391635426746	1
0	3370	772.930253618549	0
0	3392	777.553776573704	1
0	3395	778.694563392628	0
0	3402	781.298078865348	1
0	3403	783.622060673634	0
0	3423	785.939516594243	1
0	3425	787.618683814021	0
0	3433	788.004769074846	1
0	3434	788.056669769488	0
0	3450	789.473019048795	1
0	3453	790.831632355875	0
0	3459	791.121514004189	1
0	3463	792.385526301528	0
0	3513	808.360514779847	1
0	3520	813.132625676521	2
0	3522	813.643307774611	3
0	3524	815.906811661142	4
0	3526	816.311034873035	5
0	3529	817.45205726693	4
0	3535	819.353395887329	3
0	3544	819.61775551865	2
0	3550	819.635935886182	3
0	3553	819.776287030534	4
0	3554	820.825581250572	3
0	3559	821.542755972168	2
0	3568	821.780554049619	1
0	3574	821.825222607472	2
0	3575	821.886302796621	1
0	3582	822.623085965043	2
0	3584	823.633533506449	3
0	3587	824.359095593995	2
0	3597	825.956631903364	3
0	3598	825.969340358415	2
0	3604	826.460643654225	3
0	3607	826.560170043507	2
0	3614	826.950778085671	3
0	3616	828.024593255791	2
0	3621	828.526567067472	1
0	3627	829.443065368621	0
0	3639	835.272970142926	1
0	3649	837.364044584084	0
0	3682	842.134201487005	1
0	3684	842.809134857164	2
0	3685	842.931544335904	1
0	3691	843.08226716549	2
0	3693	845.943408288503	1
0	3699	846.700722471977	0
0	3706	847.155717839579	1
0	3710	848.565891371939	2
0	3711	848.81275835598	1
0	3717	849.164823383414	0
0	3729	850.444070504833	1
0	3731	851.021837113419	2
0	3734	852.109436574644	1
0	3741	853.807445224701	2
0	3742	854.533197847075	1
0	3749	855.592432348814	0
0	3770	859.063837646122	1
0	3771	859.287259137721	0
0	3783	859.96145385197	1
0	3785	860.452563054623	2
0	3786	860.675057304498	1
0	3792	862.029281028601	0
0	3808	864.739589649683	1
0	3811	866.466180468378	0
0	3818	867.551489175002	1
0	3823	868.433892969327	2
0	3826	868.889850867918	1
0	3831	869.299066578792	0
0	3840	870.791339607735	1
0	3844	871.992389508664	2
0	3847	873.357846079008	3
0	3850	873.963046855173	2
0	3856	874.794499227592	1
0	3862	874.80827732136	2
0	3863	875.338522823698	1
0	3869	875.553188663029	2
0	3871	875.916923836911	3
0	3873	876.960749662187	2
0	3880	877.808082720733	1
0	3885	877.905740169763	0
0	3891	878.807338999708	1
0	3899	880.931441403274	0
0	3906	881.218493094855	1
0	3908	881.622068023899	2
0	3909	881.638429215043	1
0	3914	881.648908883158	0
0	3918	882.694050063916	1
0	3921	883.543958430709	0
0	3927	884.751601736107	1
0	3932	887.340741888005	0
0	3946	891.201564840986	1
0	3948	891.824029079397	0
0	3963	893.546248686373	1
0	3965	893.800917042892	0
0	3983	894.986455589611	1
0	3985	896.449838960124	2
0	3987	897.696496061553	1
0	3992	898.175225457236	0
0	4003	899.152851164312	1
0	4008	900.825382119555	0
0	4020	902.856605829883	1
0	4021	902.889152308057	0
0	4028	903.576421388538	1
0	4031	904.723021514909	0
0	4049	906.653722778905	1
0	4051	906.904543442659	2
0	4052	908.918594504698	1
0	4058	909.196523569902	0
0	4083	917.2257152464	1
0	4086	917.884716033098	0
0	4117	930.3078868582	1
0	4119	930.658121949572	2
0	4120	930.7587477103	1
0	4127	932.676199047936	0
0	4133	933.39060524905	1
0	4135	934.31849995284	0
0	4151	938.28662598857	1
0	4154	939.992342916304	0
0	4168	941.498529692487	1
0	4170	941.68302133205	2
0	4171	942.867743080842	1
0	4177	943.075636341703	0
0	4188	944.009879725471	1
0	4192	945.125322296283	2
0	4193	945.566101433668	1
0	4201	947.023067959454	2
0	4202	947.515154246169	1
0	4207	947.828170303646	0
0	4227	953.815696825262	1
0	4232	956.044903542985	0
0	4249	958.290834418359	1
0	4251	958.756892460587	2
0	4254	959.579709435149	3
0	4256	960.959701820428	4
0	4257	961.467944584903	3
0	4264	961.614305757365	4
0	4265	961.629435906864	3
0	4272	962.452820514928	2
0	4277	962.536953722616	1
0	4283	964.369110130855	0
0	4355	978.576007805641	1
0	4357	978.579366299003	2
0	4358	979.587594170838	1
0	4365	980.007481071138	0
0	4371	980.559334258682	1
0	4372	980.567132354402	0
0	4409	989.297491385931	1
0	4411	989.307798539778	2
0	4413	990.398466646751	1
0	4418	990.481881343118	0
0	4448	997.102466056058	1
0	4451	998.074752702439	0
0	4474	1007.690005407917	1
0	4475	1007.772032110063	0
0	4482	1008.875403222087	1
0	4487	1010.883160356691	2
0	4490	1014.203209077982	1
0	4496	1014.263688590232	2
0	4498	1014.944098217788	1
0	4505	1016.202708300098	0
0	4518	1016.688709433797	1
0	4522	1018.305387442312	0
0	4582	1026.551348392994	1
0	4583	1027.074844017387	0
0	4612	1034.71873206747	1
0	4614	1035.571643696239	2
0	4615	1036.515587950144	1
0	4620	1036.814333459702	0
0	4643	1041.304128056048	1
0	4644	1042.513236963101	0
0	4699	1055.13581951846	1
0	4701	1058.537383611691	2
0	4702	1059.632514939791	1
0	4708	1060.189523633468	0
0	4719	1061.060458127449	1
0	4722	1062.819418763479	2
0	4724	1063.688996910299	3
0	4725	1063.721825642767	2
0	4731	1065.353783056659	1
0	4737	1065.445980639197	0
0	4743	1066.52571099946	1
0	4744	1066.600650801674	0
0	4785	1077.519404370432	1
0	4788	1078.551315501767	0
0	4797	1079.27853851999	1
0	4799	1079.309988004482	2
0	4804	1081.987689727711	3
0	4805	1082.080093921726	2
0	4811	1083.565491503181	1
0	4818	1084.489532064936	0
0	4862	1093.379585359575	1
0	4864	1093.44839096668	2
0	4869	1097.335194385074	1
0	4876	1098.256321665532	2
0	4879	1100.071132050866	1
0	4885	1100.417909626402	0
0	4903	1105.807648665633	1
0	4907	1106.6090572224	2
0	4908	1107.759551143121	1
0	4916	1109.203781969114	2
0	4917	1109.994655629131	1
0	4923	1110.534638591794	0
0	4954	1118.555215027902	1
0	4958	1119.237593674077	2
0	4960	1119.277238539643	3
0	4961	1120.734670066643	2
0	4967	1121.308907153667	1
0	4976	1124.345511200086	0
0	4996	1126.087878404704	1
0	4997	1127.556591705203	0
0	5016	1129.370532052746	1
0	5018	1129.537862009182	2
0	5020	1129.545408049886	3
0	5021	1130.139094288631	2
0	5026	1130.572453941299	1
0	5031	1131.037674546139	0
0	5058	1136.386857374678	1
0	5063	1137.824962635978	0
0	5081	1143.981740564597	1
0	5082	1144.071184606277	0
0	5088	1144.127899832374	1
0	5089	1144.43435410423	0
0	5098	1145.138313428594	1
0	5099	1146.277742812301	0
0	5127	1154.659894660756	1
0	5133	1156.121745655814	0
0	5147	1160.763093387627	1
0	5149	1162.181058731285	2
0	5150	1162.820519541193	1
0	5157	1165.542182686287	0
0	5168	1167.43191422022	1
0	5170	1167.559262857502	2
0	5174	1168.347379069678	3
0	5176	1169.250464198141	4
0	5178	1169.351206834652	5
0	5179	1169.935785324286	4
0	5185	1170.388585417951	3
0	5191	1171.369600118354	2
0	5201	1174.302434962026	3
0	5202	1174.996705751613	2
0	5208	1176.075749800301	3
0	5210	1176.610062310583	4
0	5215	1179.474023186129	3
0	5220	1179.817711061181	2
0	5225	1179.892068337448	1
0	5230	1181.161918290545	0
0	5251	1183.223344606308	1
0	5255	1185.468978618626	0
0	5264	1186.944831810822	1
0	5265	1187.235489197766	0
0	5281	1189.7062157585	1
0	5283	1190.502361027401	2
0	5284	1190.511595167552	1
0	5290	1192.22207691954	0
0	5299	1192.818629842111	1
0	5303	1193.954332352039	2
0	5305	1195.909386883967	3
0	5307	1196.921668283661	4
0	5308	1198.281735859113	3
0	5314	1199.244990854588	2
0	5321	1199.95814093777	3
0	5322	1200.306814363298	2
0	5329	1202.801704860344	1
0	5335	1203.286681849653	2
0	5338	1205.559717379683	1
0	5344	1209.061704830849	0
0	5352	1209.725780811407	1
0	5354	1209.735979680197	2
0	5355	1210.442442733688	1
0	5362	1210.74350534446	0
0	5373	1214.381111042393	1
0	5376	1215.457071521575	0
0	5483	1246.798912048199	1
0	5489	1248.298048400476	2
0	5491	1249.62054662499	1
0	5496	1250.540163721226	0
0	5546	1270.927976937135	1
0	5548	1272.294242302844	2
0	5554	1274.353667005836	3
0	5557	1275.920838633889	2
0	5563	1276.911395055753	3
0	5564	1277.090427701319	2
0	5570	1277.556993472317	1
0	5575	1277.6328004938	0
0	5586	1278.519968418888	1
0	5587	1281.126634501418	0
0	5605	1284.392444697366	1
0	5606	1284.980810920204	0
0	5610	1285.215801876596	1
0	5612	1286.691101623995	2
0	5615	1289.6300223029	1
0	5623	1291.116434001484	0
0	5653	1297.17863909834	1
0	5654	1297.761269901184	0
0	5670	1299.077217022792	1
0	5671	1300.096448919186	0
0	5690	1306.442008257806	1
0	5692	1306.664738686608	2
0	5696	1306.944748962882	3
0	5700	1308.624810301046	2
0	5707	1309.547441569177	1
0	5712	1309.978334679654	0
0	5735	1315.11785971659	1
0	5737	1315.430439723054	2
0	5741	1316.899887560546	1
0	5748	1317.059364369465	2
0	5749	1317.903874128209	1
0	5756	1319.565692091023	0
0	5780	1325.007393600661	1
0	5783	1326.210051504579	2
0	5784	1326.385283460171	1
0	5789	1326.855758947843	0
0	5864	1344.932209333344	1
0	5867	1345.26708524703	0
0	5898	1352.839541521381	1
0	5899	1353.199095480064	0
0	5905	1354.146039025269	1
0	5909	1354.704500446195	2
0	5910	1355.534316832613	1
0	5917	1357.1859025773	0
0	5946	1360.50726560788	1
0	5947	1362.063133892728	0
0	5968	1365.168204503471	1
0	5971	1365.355637579017	2
0	5974	1366.695573873447	1
0	5980	1367.207230232101	0
0	6003	1370.131942175973	1
0	6004	1370.413519416683	0
0	6016	1371.157029565889	1
0	6019	1374.034748563144	0
0	6050	1382.306280228187	1
0	6051	1383.432591162998	0
0	6060	1383.968424122173	1
0	6062	1384.307842925298	2
0	6063	1384.816053627539	1
0	6070	1385.481727803804	0
0	6137	1400.960209028299	1
0	6139	1401.530811904878	2
0	6141	1402.264702646874	3
0	6143	1403.127608566558	4
0	6144	1404.066443665418	3
0	6152	1405.568492579426	2
0	6159	1406.284164225038	3
0	6160	1406.853470692657	2
0	6166	1406.897225440822	3
0	6170	1407.330472516384	4
0	6177	1409.36557181352	5
0	6178	1410.131155397833	4
0	6183	1410.30024468168	3
0	6189	1410.733567938829	4
0	6190	1411.490322665588	3
0	6197	1411.707663100256	4
0	6198	1411.967573138844	3
0	6203	1412.566625707287	2
0	6209	1412.613644224515	3
0	6211	1412.68776489176	4
0	6213	1414.36082069487	3
0	6221	1417.558565345423	2
0	6229	1418.780286125406	1
0	6234	1419.208281163068	0
0	6250	1420.557568172018	1
0	6252	1420.863522211666	2
0	6254	1421.550673006686	1
0	6264	1422.62754818799	2
0	6267	1423.350325240157	3
0	6268	1424.278054611102	2
0	6273	1424.467162628209	1
0	6279	1425.539157978537	2
0	6280	1425.642149020677	1
0	6285	1425.704677714649	0
0	6296	1426.752240996384	1
0	6299	1428.9336938644	0
0	6339	1445.005967775687	1
0	6341	1446.506999413388	2
0	6342	1447.337341664086	1
0	6349	1448.940227882747	0
0	6363	1452.018341090347	1
0	6365	1452.162491413109	2
0	6366	1452.387397466518	1
0	6372	1452.532417243699	2
0	6374	1453.409833782195	1
0	6379	1453.455816603521	0
0	6403	1455.584315448119	1
0	6404	1455.95460557519	0
0	6419	1461.274710811987	1
0	6421	1461.275144073113	2
0	6422	1462.458234619546	1
0	6430	1464.267599425757	0
0	6473	1474.234113111485	1
0	6474	1475.870545980979	0
0	6490	1480.274380949866	1
0	6491	1480.333134945052	0
0	6497	1481.244142218536	1
0	6500	1481.599796094527	0
0	6509	1482.870785655072	1
0	6511	1484.287314671008	2
0	6512	1485.425224638826	1
0	6518	1485.555992638488	2
0	6521	1486.719617088287	1
0	6531	1487.813710864748	2
0	6532	1487.911228866465	1
0	6537	1488.95552627258	0
0	6543	1489.168463165632	1
0	6545	1489.689991026461	2
0	6547	1491.041769760711	3
0	6549	1491.272440706474	2
0	6555	1492.496471130695	1
0	6563	1493.3095425714	2
0	6566	1493.957980914805	3
0	6569	1494.606576710918	4
0	6570	1494.777278646451	3
0	6575	1494.921294663604	2
0	6580	1495.363518082812	1
0	6585	1495.424912101139	0
0	6594	1496.606417632511	1
0	6596	1496.989158046809	0
0	6614	1498.56426522349	1
0	6616	1499.421279035978	2
0	6618	1501.495158536879	3
0	6620	1502.834299217917	4
0	6621	1503.215260395139	3
0	6626	1503.667837959356	2
0	6632	1504.048318574342	3
0	6635	1506.358259965266	2
0	6641	1507.961892407173	1
0	6648	1509.334963767424	2
0	6649	1510.054685912817	1
0	6655	1510.410405712163	2
0	6657	1510.768465624908	3
0	6659	1512.589581237628	4
0	6660	1512.612018614874	3
0	6665	1513.429835443981	2
0	6671	1514.085119233339	3
0	6672	1514.363571992379	2
0	6678	1515.068961160085	3
0	6680	1515.101099554173	4
0	6684	1518.796805530514	5
0	6685	1519.808487522189	4
0	6691	1520.053917011396	5
0	6692	1520.457490970857	4
0	6698	1520.723952763387	5
0	6701	1523.05056934039	4
0	6708	1523.718776321046	3
0	6714	1526.878375315104	4
0	6716	1527.228817224235	5
0	6717	1527.585446869655	4
0	6722	1527.962028393869	3
0	6727	1528.673278027672	2
0	6731	1528.877093407055	3
0	6739	1531.648704741858	4
0	6743	1533.132827371384	3
0	6748	1533.373883231242	2
0	6754	1533.675296313127	3
0	6755	1533.790445018308	2
0	6760	1534.483291764952	1
0	6766	1534.564799890485	2
0	6770	1535.061840485515	3
0	6771	1535.178654283764	2
0	6775	1535.617639863782	3
0	6781	1535.916937824339	4
0	6782	1536.592894223216	3
0	6791	1538.407785779678	2
0	6796	1542.423198435803	1
0	6801	1542.998170973621	0
0	6807	1544.007477154254	1
0	6808	1544.054111980775	0
0	6812	1544.073927573429	1
0	6814	1544.234569776232	2
0	6816	1545.23135565115	3
0	6818	1545.310843839185	4
0	6821	1548.145285342297	3
0	6825	1548.580160581183	4
0	6829	1549.421899751487	3
0	6835	1550.79864783161	2
0	6842	1551.250623992569	1
0	6850	1551.754422632965	2
0	6852	1552.014650406483	3
0	6854	1552.370507385549	4
0	6855	1552.838097718498	3
0	6862	1553.489697888179	2
0	6866	1554.16260759165	3
0	6870	1556.04280947174	4
0	6871	1556.203167490038	3
0	6876	1557.55177208145	2
0	6881	1557.669393297186	1
0	6885	1557.967160379033	2
0	6888	1562.734781827127	1
0	6896	1563.431847395454	2
0	6899	1564.544880161833	1
0	6905	1565.097199157861	2
0	6907	1565.875839603923	1
0	6915	1567.230121347504	0
0	6953	1574.377540706295	1
0	6957	1576.786402798961	2
0	6961	1577.857621681087	3
0	6962	1578.100372564244	2
0	6971	1579.383797830469	1
0	6977	1580.483810911735	0
0	6988	1581.200990645121	1
0	6991	1582.595993476056	0
0	7059	1597.570437615314	1
0	7060	1598.033624042837	0
0	7072	1600.937147719108	1
0	7073	1601.163535411358	0
0	7099	1605.302322729477	1
0	7103	1607.165241826112	2
0	7105	1607.461967477417	3
0	7113	1612.09633205665	2
0	7119	1614.172828468975	1
0	7124	1615.549766340407	0
0	7146	1625.122339891515	1
0	7150	1626.39098476774	0
0	7166	1628.938154982182	1
0	7167	1629.237351295992	0
0	7174	1632.024225435224	1
0	7177	1637.42906964254	0
0	7191	1639.395583688203	1
0	7195	1640.902946158006	2
0	7196	1641.569262925688	1
0	7201	1642.450024620539	0
0	7224	1644.312907928932	1
0	7226	1644.323551855517	2
0	7229	1648.206506350713	1
0	7234	1648.405553450117	0
0	7242	1649.005667440383	1
0	7243	1649.902965602876	0
0	7260	1651.673439613902	1
0	7261	1651.878897305613	0
0	7276	1653.018778808265	1
0	7277	1653.046945301789	0
0	7289	1655.23659267989	1
0	7291	1655.523507441133	0
0	7308	1657.885186520636	1
0	7309	1658.401921869376	0
0	7329	1665.164778367378	1
0	7333	1668.235197848896	0
0	7356	1675.4229063646	1
0	7357	1676.306455184081	0
0	7369	1678.369493873157	1
0	7371	1678.665176168501	2
0	7373	1679.441798864235	3
0	7375	1679.566244748566	4
0	7378	1680.931658601924	3
0	7383	1681.529805638	2
0	7388	1682.925713838709	1
0	7393	1683.159700365505	0
0	7417	1688.725953960625	1
0	7419	1689.753719854348	0
0	7425	1690.22844158538	1
0	7430	1691.587851586248	2
0	7433	1692.222783941689	1
0	7439	1692.30180935537	2
0	7440	1692.405542717455	1
0	7446	1694.028447175276	0
0	7454	1696.774355020691	1
0	7456	1696.798905366397	2
0	7457	1696.802382425658	1
0	7468	1699.87851379038	2
0	7470	1700.126132963774	3
0	7471	1700.312541779752	2
0	7476	1700.59188293714	1
0	7482	1701.199098244737	0
0	7504	1702.935582522973	1
0	7506	1703.064797905461	2
0	7507	1703.073657740735	1
0	7512	1703.316946779945	0
0	7531	1708.330653703042	1
0	7532	1709.170509977926	0
0	7539	1710.453419169404	1
0	7540	1710.844057402719	0
0	7547	1710.985834714608	1
0	7548	1711.301590986535	0
0	7602	1724.122235153048	1
0	7604	1726.186463159915	0
0	7624	1730.043649103344	1
0	7627	1730.548785239086	0
0	7633	1730.609790113936	1
0	7635	1732.311485850811	0
0	7641	1734.2520838103	1
0	7643	1735.317592684541	0
0	7657	1736.31650562157	1
0	7659	1736.607285915417	2
0	7661	1737.681873727657	3
0	7663	1737.877113926175	4
0	7666	1738.576984246199	3
0	7671	1738.721655895229	2
0	7678	1739.306661740058	3
0	7681	1740.590342125322	2
0	7688	1740.863324780361	1
0	7693	1740.915765347087	0
0	7706	1743.034566028033	1
0	7707	1743.44214996021	0
0	7769	1757.873496912719	1
0	7771	1757.913955539125	2
0	7776	1759.124761870856	3
0	7777	1759.330919664248	2
0	7784	1760.519223747654	1
0	7789	1761.373829853983	0
0	7995	1821.824800219599	1
0	7998	1822.483973039122	0
0	8004	1823.334846918773	1
0	8006	1823.956051939599	0
0	8027	1827.769686535381	1
0	8028	1827.895690045985	0
0	8051	1833.684056058331	1
0	8056	1834.91149898651	0
0	8067	1835.685120537667	1
0	8068	1835.867512006479	0
0	8075	1836.888531223422	1
0	8081	1838.840451539276	0
0	8091	1839.171202353612	1
0	8094	1839.601872946884	0
0	8117	1844.90911783174	1
0	8121	1845.313559658073	2
0	8122	1846.027317946546	1
0	8128	1846.495862188601	0
0	8154	1857.688583410628	1
0	8155	1858.568011486121	0
0	8248	1883.561474899081	1
0	8252	1884.939982451605	2
0	8254	1885.319013245513	3
0	8255	1885.511829298841	2
0	8261	1885.992479519745	3
0	8263	1887.131461700941	2
0	8269	1887.862835839279	1
0	8277	1888.558890984313	0
0	8283	1888.982599360168	1
0	8284	1890.251072908695	0
0	8290	1890.282317550322	1
0	8291	1890.369858362646	0
0	8297	1890.411966162956	1
0	8300	1894.66951224184	0
0	8306	1895.177050707609	1
0	8309	1895.898782524456	0
0	8313	1896.003989822676	1
0	8316	1896.725573548995	0
0	8324	1899.499763728391	1
0	8327	1901.224097226554	0
0	8338	1901.535961626313	1
0	8340	1901.889833488392	0
0	8409	1922.170637334288	1
0	8410	1922.2672179819	0
0	8416	1922.606822717387	1
0	8418	1923.461499527183	2
0	8419	1923.670912109332	1
0	8425	1923.713611372188	2
0	8427	1924.145984876772	1
0	8440	1926.940958859923	0
0	8458	1929.001684453205	1
0	8459	1929.220068066587	0
0	8465	1929.391018646737	1
0	8468	1930.415226005996	2
0	8469	1930.415745249336	1
0	8474	1931.578286165768	0
0	8487	1932.832920882073	1
0	8488	1933.026300654857	0
0	8500	1937.093500319111	1
0	8503	1938.390107520942	0
0	8517	1944.482583175564	1
0	8518	1944.514060284332	0
0	8554	1960.283729983086	1
0	8557	1964.195423318863	0
0	8569	1967.115832979038	1
0	8573	1967.528218320526	2
0	8574	1969.006597360013	1
0	8579	1969.075699656266	0
0	8626	1985.271788316587	1
0	8628	1987.642912876298	2
0	8629	1988.549466974714	1
0	8635	1989.277287117534	2
0	8636	1990.11788795792	1
0	8641	1990.468425029337	0
0	8647	1990.706455240194	1
0	8649	1990.777564881862	2
0	8652	1992.193452094897	1
0	8657	1992.508619203775	0
0	8677	1995.64638355704	1
0	8680	1996.217466613454	0
0	8702	2002.437088031863	1
0	8703	2002.744110922372	0
0	8733	2011.742315321223	1
0	8737	2014.586608516325	0
0	8755	2016.538918899767	1
0	8757	2018.852481547186	0
0	8764	2019.836225167955	1
0	8765	2020.275485394213	0
0	8787	2028.810319233776	1
0	8790	2029.406129681868	0
0	8803	2031.474830152537	1
0	8807	2033.691869521534	2
0	8809	2034.979753431838	1
0	8814	2035.125819202241	0
0	8825	2035.415184812525	1
0	8826	2036.755780985764	0
0	8851	2043.527781038857	1
0	8853	2044.992889532974	0
0	8866	2045.184731786959	1
0	8867	2045.839486358931	0
0	8883	2049.959530910677	1
0	8884	2050.169956554863	0
0	8895	2051.356498936126	1
0	8896	2052.755150539489	0
0	8911	2054.526385814013	1
0	8913	2057.700258006771	2
0	8917	2059.06704234064	3
0	8920	2060.468502136574	2
0	8929	2062.063519161804	3
0	8930	2062.373414590141	2
0	8937	2062.999997058668	3
0	8939	2064.442150699574	4
0	8940	2064.737507185382	3
0	8946	2065.209714994069	4
0	8948	2066.045924794792	3
0	8955	2066.812622845901	4
0	8956	2067.437966858784	3
0	8961	2068.02438422099	2
0	8969	2069.549989190359	1
0	8975	2071.127652126124	0
0	9006	2077.296736074513	1
0	9008	2077.558984740404	2
0	9011	2078.21435688306	1
0	9018	2079.203076078323	2
0	9019	2079.21813218236	1
0	9025	2079.803927781946	2
0	9026	2081.226376948056	1
0	9033	2085.064173599793	0
0	9049	2087.419066125203	1
0	9051	2087.754315473675	2
0	9052	2088.073213613172	1
0	9057	2088.266944998263	0
0	9098	2114.808467633049	1
0	9103	2116.346611037085	0
0	9122	2118.869899096233	1
0	9124	2119.078781863736	2
0	9128	2120.437645976705	3
0	9132	2123.890772088742	2
0	9138	2127.086928769542	1
0	9143	2127.704851702722	0
0	9172	2134.628366799244	1
0	9175	2135.304090192961	0
0	9183	2136.131736800611	1
0	9186	2136.878992066605	0
0	9198	2139.205950934386	1
0	9199	2141.630372965407	0
0	9235	2149.367119855865	1
0	9240	2152.670647551384	2
0	9244	2154.331560477182	3
0	9245	2154.376637441925	2
0	9251	2154.797040801919	1
0	9257	2155.480229945996	0
0	9294	2161.048348863736	1
0	9295	2161.136416575708	0
0	9309	2168.60116393291	1
0	9310	2169.282281996226	0
0	9324	2172.217934338787	1
0	9325	2172.96588957609	0
0	9366	2183.118475577001	1
0	9368	2183.186604815982	2
0	9369	2183.194817942973	1
0	9374	2183.838685058473	0
0	9461	2206.495213242184	1
0	9463	2208.092437466898	0
0	9476	2208.232602611634	1
0	9479	2209.674118027912	0
0	9485	2210.300533354034	1
0	9488	2210.569535538728	2
0	9490	2211.623638243088	1
0	9497	2217.647415056391	0
0	9526	2220.821699673581	1
0	9527	2221.014677744669	0
0	9550	2228.097179109086	1
0	9551	2228.973573298023	0
0	9566	2232.010800601179	1
0	9567	2232.032175281208	0
0	9582	2236.732837831496	1
0	9585	2237.054188616563	0
0	9600	2238.993947995015	1
0	9602	2240.69277359855	2
0	9603	2241.044439145353	1
0	9608	2241.335655831023	0
0	9619	2241.766544589501	1
0	9621	2242.043632526373	2
0	9626	2243.995774864293	1
0	9634	2245.387129866166	2
0	9636	2245.792284619394	3
0	9644	2247.83803488201	2
0	9650	2249.682601961196	1
0	9655	2249.849361163123	0
0	9661	2250.082394609146	1
0	9663	2251.04500523212	2
0	9664	2251.060242089697	1
0	9670	2251.461661770052	0
0	9694	2256.151656803576	1
0	9696	2256.197214669041	2
0	9702	2258.794239887437	3
0	9704	2259.156401487848	2
0	9711	2260.85151151987	1
0	9716	2261.337429497988	0
0	9736	2266.408928830097	1
0	9737	2267.243894011026	0
0	9764	2273.271895996223	1
0	9765	2273.363289522345	0
0	9772	2274.042760801917	1
0	9773	2274.057677786962	0
0	9782	2275.188683798549	1
0	9786	2275.264357271115	2
0	9789	2276.121506609287	1
0	9794	2277.12374089746	0
0	9802	2279.730573991766	1
0	9803	2280.180270328066	0
0	9825	2287.129659023029	1
0	9826	2287.192348362298	0
0	9860	2298.303653160443	1
0	9865	2300.9683652974	0
0	9889	2307.458966366093	1
0	9890	2309.068017484215	0
0	9904	2310.607526063655	1
0	9909	2311.132931068643	2
0	9911	2311.470515998793	3
0	9914	2315.254381376823	2
0	9922	2321.09208806713	1
0	9928	2321.804085284353	0
0	9934	2322.443707749739	1
0	9938	2324.079276239849	0
0	9977	2335.378710987864	1
0	9978	2335.8578644041	0
0	9987	2337.121735322071	1
0	9992	2337.77502148128	0
0	10010	2341.525320770301	1
0	10013	2342.175358064208	0
0	10020	2342.681120815564	1
0	10023	2344.428046530392	0
0	10045	2349.871031955051	1
0	10049	2351.225898540334	2
0	10053	2352.415479873521	3
0	10058	2355.3668435996	2
0	10064	2355.845228840343	1
0	10070	2363.514361660449	0
0	10077	2364.714999132892	1
0	10081	2364.854994868766	2
0	10087	2367.952090264495	3
0	10088	2369.257925493769	2
0	10098	2372.884586381076	1
0	10103	2373.029385870335	0
0	10130	2386.320422723768	1
0	10131	2386.48635545082	0
0	10159	2389.799679738313	1
0	10160	2390.111261678432	0
0	10166	2391.185005897177	1
0	10172	2393.073268746195	2
0	10174	2393.203088186481	1
0	10179	2393.323341970322	0
0	10193	2393.947543057429	1
0	10194	2394.001972260641	0
0	10205	2394.863189670887	1
0	10208	2395.819450191735	0
0	10221	2399.653392714249	1
0	10229	2403.375018255469	0
0	10239	2405.604540391451	1
0	10241	2406.425843132031	2
0	10246	2409.365922838346	1
0	10251	2409.478521749972	0
0	10283	2421.69293137667	1
0	10287	2422.981470813158	2
0	10288	2423.377206557177	1
0	10295	2424.144703211786	2
0	10297	2424.27733147474	3
0	10299	2424.879188110342	4
0	10300	2426.3994820942	3
0	10305	2426.45361852271	2
0	10310	2426.835894623385	1
0	10316	2427.305565955615	2
0	10319	2427.444914925389	1
0	10328	2430.883538239941	0
0	10337	2431.848168672531	1
0	10339	2434.173552304306	2
0	10345	2435.651097385827	1
0	10354	2436.18608181377	2
0	10355	2436.508231930839	1
0	10367	2439.297265761394	0
0	10402	2445.178445828506	1
0	10404	2445.392487326868	2
0	10408	2445.902956432454	3
0	10410	2446.147061097058	4
0	10411	2447.427485386705	3
0	10418	2447.623122334815	4
0	10421	2448.020005941373	3
0	10426	2448.141053248929	2
0	10431	2448.79804605381	1
0	10436	2449.17122116104	0
0	10479	2466.542576990903	1
0	10484	2469.223011426937	0
0	10521	2481.237270314561	1
0	10523	2481.459035096066	2
0	10527	2482.381217296346	3
0	10529	2482.486474220633	4
0	10532	2484.71205034012	3
0	10537	2485.824824030144	2
0	10545	2486.434661735371	1
0	10550	2486.453930132853	0
0	10562	2487.186332386681	1
0	10564	2488.11159499216	0
0	10580	2488.546969291888	1
0	10582	2489.597529136913	0
0	10603	2496.767046110318	1
0	10604	2498.21960338151	0
0	10610	2498.292160921501	1
0	10611	2498.49628807439	0
0	10636	2504.45196832363	1
0	10641	2505.524530745821	0
0	10665	2507.246602779881	1
0	10667	2507.331382947115	2
0	10669	2507.526323072816	3
0	10676	2508.29807479121	2
0	10681	2510.105733266729	1
0	10692	2512.767535453512	0
0	10698	2514.398277560616	1
0	10701	2516.399359060729	0
0	10713	2519.602739664694	1
0	10714	2519.794081520992	0
0	10735	2522.939485834508	1
0	10736	2523.898475462358	0
0	10748	2526.202132643972	1
0	10754	2528.832343172143	2
0	10757	2530.180328669255	3
0	10758	2534.192306878197	2
0	10765	2534.823143639975	1
0	10771	2535.227118033598	0
0	10789	2538.990842908762	1
0	10791	2539.08823096411	2
0	10793	2540.115567009445	3
0	10794	2540.408817165722	2
0	10800	2541.231358922368	3
0	10802	2541.446918978943	4
0	10803	2541.966891010442	3
0	10809	2542.012022310403	4
0	10814	2543.545037924179	3
0	10819	2543.925847839943	2
0	10824	2544.429456366149	1
0	10829	2545.310846434329	0
0	10870	2553.716721546387	1
0	10873	2553.993545826284	2
0	10876	2556.486853677122	3
0	10877	2557.532544173714	2
0	10882	2557.718092026418	1
0	10889	2557.963255359205	0
0	10921	2562.807314545172	1
0	10922	2563.436809331803	0
0	10932	2564.730203421574	1
0	10937	2568.968065659611	0
0	10949	2570.509544178682	1
0	10951	2571.133826034035	2
0	10952	2574.177000429119	1
0	10959	2575.195599265071	0
0	11005	2586.915807361403	1
0	11007	2587.445914361695	2
0	11009	2588.996827795993	3
0	11012	2592.94388040356	2
0	11017	2593.738520797881	1
0	11028	2595.009181421584	0
0	11040	2600.252686239789	1
0	11041	2600.63367404467	0
0	11061	2605.228991977413	1
0	11063	2605.435485171473	2
0	11064	2605.513559343362	1
0	11069	2607.789619690726	0
0	11115	2624.298929713381	1
0	11116	2624.822671814103	0
0	11132	2628.413805309918	1
0	11134	2628.754467640026	2
0	11135	2629.103479011214	1
0	11140	2629.417733158241	0
0	11147	2629.961854949208	1
0	11149	2630.110330831854	2
0	11151	2630.971133232563	3
0	11154	2631.571301687661	2
0	11159	2631.589790083968	1
0	11169	2634.311192177874	0
0	11180	2636.186418903182	1
0	11182	2636.700524225664	0
0	11205	2642.913240371689	1
0	11206	2643.037569159503	0
0	11238	2657.157772591205	1
0	11239	2657.551359619274	0
0	11252	2659.702425818717	1
0	11254	2660.128463952433	2
0	11257	2661.522468616204	3
0	11258	2662.476223201638	2
0	11266	2663.67218731572	1
0	11272	2663.810501145023	2
0	11273	2664.080685819329	1
0	11281	2664.288714670672	2
0	11283	2664.396022908748	3
0	11284	2664.80684647865	2
0	11290	2665.289703163284	3
0	11292	2666.130380615366	4
0	11298	2668.404446135272	5
0	11305	2670.52993224546	4
0	11310	2670.991346305474	3
0	11315	2671.066566060258	2
0	11322	2672.519528635513	1
0	11330	2675.155859291156	0
0	11350	2678.553426605258	1
0	11352	2680.130363607434	2
0	11354	2682.82170508355	3
0	11355	2682.902682686458	2
0	11360	2684.446497629788	1
0	11365	2685.141059188757	0
0	11376	2685.500676698537	1
0	11383	2687.145843803715	2
0	11384	2687.533411348436	1
0	11389	2688.046915019838	0
0	11408	2691.520532368093	1
0	11409	2692.695337389802	0
0	11444	2698.8538522203	1
0	11445	2700.114400739074	0
0	11451	2701.819028297437	1
0	11452	2702.633959018813	0
0	11461	2704.555735993792	1
0	11463	2705.335163311033	0
0	11470	2706.207008009497	1
0	11471	2706.333994188736	0
0	11496	2709.353063203334	1
0	11497	2711.18692330256	0
0	11506	2714.023390235552	1
0	11508	2714.116607817909	2
0	11510	2714.212922217075	3
0	11512	2714.339288350382	4
0	11514	2714.708030046107	5
0	11517	2715.097871134813	4
0	11523	2716.110741825408	3
0	11529	2716.491790206455	4
0	11530	2718.004981692788	3
0	11535	2718.057706022186	2
0	11542	2720.079874404237	1
0	11547	2720.512357913118	0
0	11551	2720.525144003499	1
0	11559	2722.894728346258	2
0	11560	2723.196980295055	1
0	11565	2723.26591637512	0
0	11577	2725.354396259445	1
0	11578	2725.696147823052	0
0	11584	2726.436698973404	1
0	11585	2726.460962346907	0
0	11610	2735.813245774197	1
0	11611	2736.214250052565	0
0	11730	2768.363613317644	1
0	11734	2769.263521714206	0
0	11789	2785.087037618064	1
0	11790	2785.903244721127	0
0	11829	2799.759749052096	1
0	11830	2800.868285613635	0
0	11858	2814.182458391841	1
0	11859	2814.714086510699	0
0	11874	2819.446172009283	1
0	11876	2820.306120712585	2
0	11877	2822.815494638187	1
0	11882	2825.91358684849	0
0	11888	2826.286756325726	1
0	11889	2826.321548769364	0
0	11914	2830.631635976269	1
0	11915	2830.960642061153	0
0	11967	2841.760772659447	1
0	11970	2843.715345702673	0
0	11976	2843.756921600862	1
0	11979	2845.472007222151	0
0	11994	2847.601964066286	1
0	11997	2848.603120254357	2
0	11999	2848.86967083711	3
0	12004	2851.387376553054	4
0	12005	2851.930134082743	3
0	12010	2852.073728588221	2
0	12015	2852.673181090732	1
0	12022	2853.435784065904	2
0	12023	2853.482247139476	1
0	12030	2853.773629754857	2
0	12033	2855.5278105821	1
0	12039	2855.828658096018	2
0	12042	2855.89862820214	3
0	12045	2857.614641311164	4
0	12049	2860.478465270453	3
0	12055	2860.74392354353	4
0	12057	2860.864239955959	3
0	12062	2861.134030503263	2
0	12067	2861.66574767229	1
0	12072	2862.119473076483	0
0	12079	2862.85304467107	1
0	12084	2863.914356761781	2
0	12085	2864.658310188844	1
0	12090	2864.898291063078	0
0	12096	2866.019817854699	1
0	12097	2866.856153503782	0
0	12130	2873.829241215345	1
0	12133	2873.915726153633	2
0	12134	2876.016232734239	1
0	12140	2876.530025272446	0
0	12146	2876.550435557258	1
0	12148	2876.86392330148	2
0	12149	2876.91337880828	1
0	12154	2876.964540997025	0
0	12173	2880.856270793984	1
0	12174	2881.071757161675	0
0	12195	2882.942844330365	1
0	12201	2884.089151577518	2
0	12203	2884.857123828442	3
0	12205	2884.898503232223	4
0	12206	2885.146547953046	3
0	12213	2885.447454061327	2
0	12222	2888.282440571538	1
0	12227	2889.717894526483	0
0	12261	2895.186015841193	1
0	12263	2896.053023144482	2
0	12266	2899.06981058317	1
0	12276	2902.155523695549	2
0	12278	2902.507868148643	3
0	12280	2903.330896708581	4
0	12281	2904.257950434989	3
0	12286	2904.525520740783	2
0	12293	2904.912014753046	1
0	12298	2905.256982752553	0
0	12312	2907.57012586355	1
0	12317	2909.608373986911	2
0	12321	2912.221784421436	1
0	12327	2913.319823655515	0
0	12333	2913.886330552357	1
0	12335	2914.341364577451	2
0	12336	2914.752064856171	1
0	12343	2915.931849523442	0
0	12367	2919.422730004295	1
0	12370	2921.619803259094	0
0	12377	2922.381443095391	1
0	12378	2922.660407365066	0
0	12388	2923.896189309272	1
0	12389	2924.359617074181	0
0	12406	2929.10366355115	1
0	12407	2929.438872206287	0
0	12420	2931.112052691631	1
0	12422	2931.259485928478	2
0	12423	2931.77447101202	1
0	12429	2932.439340410903	2
0	12430	2932.999566459231	1
0	12437	2933.333235781317	0
0	12469	2937.309755381044	1
0	12470	2938.703545689786	0
0	12482	2940.061240855035	1
0	12484	2940.238830548158	2
0	12486	2940.316165750858	3
0	12487	2942.348445596448	2
0	12492	2943.01991809741	1
0	12497	2943.85813446583	0
0	12514	2945.041377592044	1
0	12518	2947.474100969639	0
0	12524	2948.248453975693	1
0	12526	2948.493673631595	0
0	12539	2950.093787162606	1
0	12542	2952.273920154732	0
0	12554	2954.495311288708	1
0	12555	2954.772175428384	0
0	12562	2955.334956287777	1
0	12563	2955.586163364794	0
0	12570	2956.654630753926	1
0	12573	2959.261394954295	0
0	12581	2959.653492910519	1
0	12582	2960.030965685983	0
0	12637	2989.779329981336	1
0	12638	2990.010111229526	0
0	12644	2993.062837314693	1
0	12646	2993.888760577878	2
0	12647	2994.135268020043	1
0	12654	2994.826226792325	0
0	12661	2996.327404370646	1
0	12664	2998.077993802471	0
0	12678	3001.363890065963	1
0	12681	3001.936920760119	0
0	12699	3004.70753255816	1
0	12704	3006.422962855799	2
0	12708	3007.391855439165	3
0	12711	3008.677886227789	2
0	12716	3008.690350574621	1
0	12723	3009.25309138545	2
0	12726	3009.794281514641	3
0	12729	3010.911410858712	2
0	12735	3010.981604711343	3
0	12736	3013.321599001527	2
0	12745	3014.697929275632	3
0	12746	3016.234332175946	2
0	12751	3016.598341293811	1
0	12757	3019.479201146876	0
0	12838	3043.118438872041	1
0	12839	3043.244178925766	0
0	12892	3061.83383681093	1
0	12894	3062.764160446092	0
0	12918	3066.149017438752	1
0	12919	3066.283952579978	0
0	12926	3066.683723422355	1
0	12928	3067.852129934799	2
0	12929	3068.922307535869	1
0	12934	3070.64364382256	0
0	12942	3071.260313498777	1
0	12944	3072.525750067297	2
0	12946	3073.294875070942	1
0	12952	3073.313734367342	2
0	12953	3073.588061417609	1
0	12961	3077.538045474562	2
0	12962	3078.300864399898	1
0	12967	3078.367843574961	0
0	13026	3090.385851757657	1
0	13029	3092.083809374947	0
0	13040	3093.965437588498	1
0	13044	3095.21076891999	2
0	13045	3096.270488976399	1
0	13051	3096.317774665631	2
0	13053	3096.624698811951	3
0	13054	3096.803136308131	2
0	13063	3098.656520755701	1
0	13068	3098.720635824663	0
0	13074	3098.780546282316	1
0	13077	3099.053142329647	2
0	13079	3099.406794242038	3
0	13080	3099.851398229091	2
0	13087	3101.030612360711	1
0	13093	3101.245269707295	0
0	13104	3101.972033123283	1
0	13108	3102.203884243378	2
0	13117	3105.154412141994	3
0	13118	3105.353126779721	2
0	13124	3106.669803939816	1
0	13130	3107.514051811448	2
0	13135	3111.69468871973	1
0	13141	3111.935628838542	2
0	13142	3112.137155589451	1
0	13147	3112.657183142564	0
0	13153	3112.702646958413	1
0	13154	3112.749766305995	0
0	13162	3113.689187371202	1
0	13163	3116.936717404858	0
0	13179	3119.162623047144	1
0	13182	3120.700419344583	2
0	13183	3122.91494002588	1
0	13191	3125.132721952054	2
0	13192	3125.226954364435	1
0	13197	3125.308270335069	0
0	13235	3132.847596743153	1
0	13237	3132.9678582139	2
0	13239	3133.259288658293	3
0	13240	3134.102945744203	2
0	13245	3134.429074850742	1
0	13251	3134.605911416584	0
0	13315	3152.234465440753	1
0	13316	3154.016255447966	0
0	13322	3154.402159654311	1
0	13323	3154.934403755582	0
0	13335	3156.928403744757	1
0	13336	3157.184144474261	0
0	13376	3166.639577793236	1
0	13377	3166.708990586361	0
0	13401	3169.463800202885	1
0	13403	3169.503230914186	2
0	13406	3170.344969981817	3
0	13408	3171.298164967421	4
0	13411	3172.961408600601	5
0	13412	3173.114853196701	4
0	13417	3174.086753535806	3
0	13425	3175.97624728309	2
0	13430	3176.503061532852	1
0	13437	3178.072181752778	2
0	13441	3180.039249239899	1
0	13447	3181.577707695667	2
0	13448	3181.966361367305	1
0	13453	3183.221690633604	0
0	13466	3186.010342069363	1
0	13469	3186.688106280494	0
0	13475	3187.132432035744	1
0	13477	3188.044138062507	2
0	13479	3188.559000528374	3
0	13480	3188.865533630682	2
0	13485	3189.832781471396	1
0	13490	3190.012992133079	0
0	13510	3193.197642178369	1
0	13514	3196.433378943661	2
0	13516	3197.574932534314	3
0	13518	3198.073843923272	4
0	13519	3198.208158370149	3
0	13524	3198.816544370122	2
0	13531	3199.217421379112	1
0	13536	3199.251730187353	0
0	13542	3199.335340628675	1
0	13547	3200.88560001472	0
0	13553	3201.199968111542	1
0	13557	3202.036337602972	2
0	13558	3202.091067366455	1
0	13565	3204.023591071579	0
0	13603	3209.059148712004	1
0	13608	3213.653814901553	2
0	13609	3213.773852274467	1
0	13614	3213.809169705095	0
0	13645	3217.208882981464	1
0	13647	3217.5442328726	2
0	13648	3217.697764796689	1
0	13657	3218.980756836934	2
0	13662	3220.456577075535	3
0	13663	3221.807546971914	2
0	13669	3222.990871161135	1
0	13674	3223.708123311213	0
0	13680	3224.81213789071	1
0	13681	3225.276711759813	0
0	13726	3233.365186653465	1
0	13728	3233.810592451679	2
0	13729	3234.327282731137	1
0	13735	3234.863317985025	2
0	13738	3236.021078146643	3
0	13739	3236.921891951766	2
0	13745	3238.234405432137	1
0	13751	3238.46180385213	0
0	13767	3241.201237420603	1
0	13769	3241.896200807905	2
0	13770	3242.042443416366	1
0	13776	3242.3548475677	0
0	13787	3245.465331310062	1
0	13789	3245.573025472616	2
0	13790	3246.078189839938	1
0	13797	3246.524138765801	0
0	13808	3247.199355753313	1
0	13811	3248.419200185315	0
0	13848	3255.025308193257	1
0	13851	3256.626336813026	0
0	13863	3258.2669373269	1
0	13864	3258.67152838015	0
0	13870	3258.702835930061	1
0	13871	3261.572434696588	0
0	13926	3275.486810629646	1
0	13927	3275.754952812606	0
0	13982	3287.006512309262	1
0	13984	3287.810612166487	2
0	13986	3288.385759694739	3
0	13987	3288.531811174412	2
0	13993	3288.70513929041	3
0	13995	3289.195395181793	2
0	14001	3289.629099288986	1
0	14006	3289.787812032596	0
0	14071	3318.859997045878	1
0	14076	3321.619629804457	0
0	14110	3325.403091262331	1
0	14111	3325.724482762049	0
0	14132	3330.207031341322	1
0	14134	3330.662182248325	2
0	14135	3331.788465727156	1
0	14140	3331.991525400205	0
0	14157	3333.737018374723	1
0	14159	3334.035164838117	2
0	14163	3338.591550783106	3
0	14165	3339.617944197481	4
0	14168	3340.763183447453	3
0	14174	3341.634429195062	4
0	14177	3343.619326302762	5
0	14181	3346.838432165696	4
0	14189	3348.300693996058	5
0	14190	3350.585982079509	4
0	14200	3350.971944356432	3
0	14206	3351.738556307362	2
0	14211	3351.851912869598	1
0	14217	3352.777466295458	0
0	14275	3366.056172228797	1
0	14276	3367.917941563098	0
0	14295	3373.497936994222	1
0	14296	3374.580391166539	0
0	14310	3377.347941016379	1
0	14312	3378.674789835457	0
0	14366	3392.496587977332	1
0	14369	3393.499944634798	2
0	14371	3394.334090051956	3
0	14374	3396.312275863577	4
0	14375	3397.901165766598	3
0	14383	3398.79225589109	4
0	14385	3399.157293848819	5
0	14386	3399.268188587072	4
0	14391	3399.307944248211	3
0	14397	3399.920091386626	2
0	14405	3400.873954130712	3
0	14408	3402.377500868896	2
0	14413	3402.531475156003	1
0	14418	3402.563615220709	0
0	14424	3403.276470491627	1
0	14425	3403.485547230469	0
0	14467	3410.622043159552	1
0	14469	3410.846428726407	0
0	14475	3410.897861365821	1
0	14476	3412.813298226868	0
0	14491	3415.697608392772	1
0	14492	3416.067814513978	0
0	14498	3416.592937046256	1
0	14499	3416.817689679767	0
0	14530	3422.438888444767	1
0	14531	3423.16202639297	0
0	14583	3437.816223056795	1
0	14584	3437.897023669637	0
0	14604	3440.62659576463	1
0	14606	3442.378742764474	2
0	14607	3442.72960365976	1
0	14612	3442.840039942597	0
0	14637	3447.793393139769	1
0	14639	3447.947319157473	0
0	14677	3464.911463026301	1
0	14678	3466.016763135989	0
0	14692	3468.242693631733	1
0	14695	3468.92483800312	0
0	14713	3470.726994611317	1
0	14720	3472.635394180908	2
0	14723	3473.983518901068	1
0	14731	3474.729613007697	0
0	14746	3477.570377012623	1
0	14751	3477.997273634173	0
0	14777	3480.032828212398	1
0	14782	3480.694202183373	0
0	14796	3481.177690373653	1
0	14797	3481.982305742298	0
0	14820	3484.618715965073	1
0	14824	3487.167162522624	0
0	14845	3490.88268213173	1
0	14850	3492.817591714187	0
0	14857	3494.027773253665	1
0	14858	3494.967295272212	0
0	14867	3495.167414349692	1
0	14871	3496.111315756894	2
0	14877	3499.446372221839	1
0	14883	3499.702591539143	2
0	14887	3500.343496190091	3
0	14889	3500.44023757634	2
0	14898	3501.677016650249	1
0	14903	3502.140963271285	0
0	14909	3502.480681273822	1
0	14911	3504.349271224681	0
0	14918	3505.710170352169	1
0	14920	3506.000214290951	0
0	14931	3506.60764787695	1
0	14932	3507.052983760906	0
0	14952	3511.213845474604	1
0	14953	3511.368931665089	0
0	15012	3532.660770253377	1
0	15013	3532.801686002569	0
0	15070	3549.096476267088	1
0	15071	3549.322690984875	0
0	15099	3553.151889319697	1
0	15100	3554.414962553277	0
0	15106	3554.471093558207	1
0	15109	3556.064699370341	0
0	15123	3557.657061337791	1
0	15127	3558.743494161193	0
0	15151	3564.933233813282	1
0	15155	3566.393783562134	2
0	15156	3567.215405990074	1
0	15163	3568.008852445671	2
0	15165	3568.135168296868	3
0	15168	3568.301522656867	2
0	15174	3570.43914812427	1
0	15181	3571.297240493649	2
0	15185	3572.19341601397	1
0	15191	3572.61068196778	2
0	15192	3573.584849082331	1
0	15197	3573.726646382794	0
0	15253	3585.477702940629	1
0	15255	3585.534656659115	2
0	15261	3589.822819420803	3
0	15263	3589.952568789056	4
0	15264	3590.06354112652	3
0	15269	3590.343132336523	2
0	15274	3590.454229519072	1
0	15283	3591.409737394673	2
0	15285	3591.831655825416	1
0	15291	3591.961309501283	0
0	15297	3592.681047530811	1
0	15298	3594.245778406365	0
0	15334	3603.797387987847	1
0	15336	3604.807573566326	0
0	15362	3614.421810975783	1
0	15363	3614.537526424844	0
0	15385	3618.435858140568	1
0	15387	3619.66305114753	2
0	15388	3619.672549219399	1
0	15396	3620.775689590966	2
0	15398	3621.787229786435	1
0	15403	3622.888628010542	0
0	15417	3627.652973921948	1
0	15419	3627.804000082356	2
0	15423	3629.042902919888	1
0	15428	3629.546805680921	0
0	15442	3629.961829797677	1
0	15443	3630.838884799925	0
0	15465	3633.124635424423	1
0	15466	3633.772091490486	0
0	15472	3633.814829831245	1
0	15476	3635.187789045773	0
0	15487	3635.545286186218	1
0	15489	3636.116055721715	0
0	15495	3636.665847305095	1
0	15498	3638.287237394997	0
0	15524	3644.749070254104	1
0	15526	3644.80716437202	2
0	15532	3649.017186671064	3
0	15535	3649.481935935511	2
0	15540	3649.682331579405	1
0	15546	3650.474868340451	0
0	15575	3657.063492990531	1
0	15576	3657.833247952	0
0	15616	3669.621695903069	1
0	15617	3670.242960977376	0
0	15669	3686.449208415363	1
0	15670	3687.036639730148	0
0	15691	3693.061294922313	1
0	15692	3693.241645422885	0
0	15715	3703.142160614158	1
0	15717	3703.29944703563	2
0	15718	3703.668721282421	1
0	15723	3703.971204796796	0
0	15746	3714.01009903832	1
0	15747	3714.131646007883	0
0	15753	3714.678104212325	1
0	15758	3715.85074179245	2
0	15760	3716.146844124743	3
0	15761	3716.472206090297	2
0	15770	3720.010916863996	3
0	15772	3721.148029258495	2
0	15777	3721.376833498204	1
0	15782	3721.643301488209	0
0	15835	3737.823375810175	1
0	15839	3739.128904866227	2
0	15841	3739.664782585988	1
0	15847	3739.805590411649	2
0	15848	3741.134062577477	1
0	15853	3741.572179429604	0
0	15859	3742.03558835447	1
0	15860	3742.049640642467	0
0	15867	3742.752547443246	1
0	15870	3743.641316948096	0
0	15887	3747.775331857196	1
0	15888	3748.746738407067	0
0	15914	3751.644250065351	1
0	15915	3752.086510746356	0
0	15945	3762.461189169321	1
0	15946	3762.5492745883	0
0	15958	3765.874465570369	1
0	15961	3766.523897287174	0
0	15972	3767.835740397481	1
0	15977	3768.073145299673	0
0	16006	3772.951703746906	1
0	16007	3772.986256591992	0
0	16023	3778.152428310748	1
0	16024	3778.425361078479	0
0	16037	3781.164442843392	1
0	16039	3781.424057730729	0
0	16062	3787.168989513154	1
0	16063	3787.377566464078	0
0	16157	3817.706967700717	1
0	16160	3817.907999900586	0
0	16171	3818.692844728805	1
0	16173	3819.435332108768	2
0	16174	3820.543762580859	1
0	16180	3820.690622154675	0
0	16203	3827.804137474224	1
0	16205	3827.816952605441	2
0	16206	3828.492498062114	1
0	16211	3829.268077513852	0
0	16254	3843.295274902184	1
0	16255	3843.482040256609	0
0	16267	3844.835332295215	1
0	16269	3845.179879196503	0
0	16289	3848.589947223312	1
0	16290	3850.324680398496	0
0	16298	3851.206111686969	1
0	16299	3851.707040539574	0
0	16311	3852.983808160556	1
0	16312	3853.318328014913	0
0	16362	3864.971176618384	1
0	16366	3866.438143752207	2
0	16368	3867.062221077069	3
0	16372	3869.347419904351	2
0	16380	3869.963191709045	1
0	16385	3870.199333019543	0
0	16404	3872.521322148315	1
0	16406	3872.621538409279	0
0	16413	3873.205386133107	1
0	16414	3873.536594438396	0
0	16503	3892.971654412496	1
0	16504	3893.512078526071	0
0	16535	3910.651962224787	1
0	16539	3911.61353321742	2
0	16540	3912.461398153394	1
0	16546	3912.557687828719	2
0	16548	3913.03772225261	3
0	16551	3914.03066947511	2
0	16558	3914.362367547309	3
0	16559	3915.644235188603	2
0	16564	3916.479589675685	1
0	16569	3916.585114189712	0
0	16576	3917.838062667655	1
0	16577	3918.876020345845	0
0	16597	3924.036286370235	1
0	16598	3925.752043375265	0
0	16610	3926.826764220717	1
0	16613	3927.4360143672	2
0	16615	3929.690283987707	3
0	16620	3931.257459891295	2
0	16628	3933.446045384441	1
0	16635	3934.009939643399	2
0	16642	3934.690674099881	1
0	16647	3936.12559050811	0
0	16658	3938.506706858662	1
0	16661	3939.872933876864	2
0	16663	3940.839786245946	3
0	16664	3941.113790757593	2
0	16670	3942.800395201361	1
0	16677	3943.167449581364	0
0	16722	3949.773097777114	1
0	16725	3952.190721217837	0
0	16735	3953.739591765857	1
0	16738	3955.377095121135	0
0	16747	3955.987354013198	1
0	16753	3958.018252651304	0
0	16762	3958.606428277198	1
0	16765	3958.976650399502	0
0	16827	3981.851433924618	1
0	16828	3982.41184441872	0
0	16834	3983.252274483827	1
0	16836	3983.844311395112	2
0	16837	3983.962063501647	1
0	16842	3983.996331983927	0
0	16875	3988.350267455481	1
0	16877	3988.83956899169	0
0	16900	3997.155795009737	1
0	16901	3997.836710028706	0
0	16914	3999.206754653263	1
0	16915	3999.310361316668	0
0	16941	4002.466590198824	1
0	16943	4002.988726197926	2
0	16946	4006.933347435744	1
0	16951	4006.935264353308	0
0	16964	4010.431302025175	1
0	16965	4010.626586118007	0
0	16995	4012.92701789038	1
0	16996	4013.037401937418	0
0	17018	4014.991777260063	1
0	17020	4015.294088567339	2
0	17023	4017.072077881216	3
0	17028	4019.082373515986	2
0	17034	4019.757192429238	1
0	17041	4021.232268396054	2
0	17043	4023.606347151303	1
0	17050	4023.87448784965	2
0	17054	4025.755051796466	3
0	17055	4025.947024201671	2
0	17060	4026.193234579648	1
0	17066	4026.897107966779	0
0	17078	4027.75835597956	1
0	17080	4028.175977874486	0
0	17118	4037.202686020913	1
0	17119	4037.681679912694	0
0	17163	4046.093866852757	1
0	17164	4046.66963074509	0
0	17195	4053.715191495092	1
0	17196	4053.733709421507	0
0	17349	4088.968959526671	1
0	17350	4089.389343204823	0
0	17366	4093.039227415477	1
0	17368	4095.856310029552	0
0	17382	4100.076649330594	1
0	17383	4100.238278813144	0
0	17397	4101.450577980716	1
0	17398	4101.719018063901	0
0	17514	4135.664696592885	1
0	17516	4136.848285575749	0
0	17529	4140.044094365546	1
0	17541	4145.711617564608	2
0	17542	4147.761106934923	1
0	17548	4148.97209158253	0
0	17567	4150.405328646036	1
0	17571	4150.703149547952	2
0	17574	4153.226363830513	1
0	17579	4153.317437115582	0
0	17605	4157.903253198198	1
0	17608	4161.036724979715	2
0	17610	4161.374319740352	3
0	17613	4164.832541978139	2
0	17619	4165.616936624294	1
0	17624	4165.631442250084	0
0	17642	4169.621541521766	1
0	17644	4172.551766717157	2
0	17646	4172.572116724614	3
0	17649	4174.757672675687	2
0	17654	4174.88482193957	1
0	17663	4176.211526898936	0
0	17671	4176.911581991874	1
0	17672	4177.058351655314	0
0	17692	4179.490736114837	1
0	17693	4179.642402916868	0
0	17713	4182.703329823854	1
0	17714	4183.359457040129	0
0	17720	4183.401848674253	1
0	17722	4183.874910938511	0
0	17765	4198.010050176607	1
0	17770	4200.993381964433	2
0	17772	4203.62360344153	3
0	17773	4204.55785110738	2
0	17782	4205.356306182211	3
0	17783	4205.358207593271	2
0	17790	4207.662935316824	1
0	17796	4207.921114914569	2
0	17799	4208.55320478176	1
0	17804	4209.203408425056	0
0	17810	4209.438923753461	1
0	17813	4211.02492139041	0
0	17822	4214.237077741903	1
0	17823	4214.526672014698	0
0	17835	4215.198721455607	1
0	17836	4216.404211648591	0
0	17859	4226.407844141333	1
0	17860	4227.271314831495	0
0	17876	4230.095481898765	1
0	17878	4230.189118797311	0
0	17916	4238.005458752041	1
0	17917	4239.956924431339	0
0	17923	4240.11530356134	1
0	17925	4240.817803126058	2
0	17926	4241.549850541384	1
0	17934	4244.15814901735	0
0	17966	4250.96479473057	1
0	17967	4251.010942684202	0
0	18024	4268.280888198705	1
0	18027	4272.335706866962	0
0	18033	4272.724878914719	1
0	18034	4273.345773596056	0
0	18040	4274.021025312338	1
0	18041	4274.054073125953	0
0	18048	4275.811650056289	1
0	18049	4276.151759577127	0
0	18055	4277.024441062743	1
0	18059	4279.773304201568	0
0	18068	4281.888573018438	1
0	18072	4282.86838204848	0
0	18098	4288.38123305234	1
0	18101	4289.480170965614	0
0	18156	4304.723165234078	1
0	18157	4305.075181427025	0
0	18179	4311.733649493777	1
0	18180	4313.241865293805	0
0	18221	4320.004117687772	1
0	18225	4323.321136544049	0
0	18342	4356.733824244701	1
0	18345	4356.839001642425	0
0	18353	4356.948634457645	1
0	18354	4357.374180996229	0
0	18393	4368.846397909705	1
0	18395	4369.596826917305	2
0	18396	4370.930573866441	1
0	18401	4371.038040865119	0
0	18416	4374.437812637794	1
0	18420	4375.35756315744	2
0	18424	4377.318343590947	3
0	18426	4377.994662891177	4
0	18427	4378.341964899645	3
0	18432	4378.6469762869	2
0	18437	4379.269167787836	1
0	18443	4380.259571685013	2
0	18444	4380.384666594924	1
0	18449	4380.711712406285	0
0	18509	4395.637658253749	1
0	18514	4396.449535080885	2
0	18516	4397.151580411217	1
0	18522	4400.574637496048	0
0	18528	4400.718116458875	1
0	18533	4401.941279556826	0
0	18574	4415.493206033849	1
0	18576	4416.41886571086	2
0	18577	4416.973249740022	1
0	18586	4418.310049886187	2
0	18588	4418.49774584549	3
0	18589	4419.481746535954	2
0	18595	4419.704586025281	1
0	18603	4420.095814948578	0
0	18622	4423.81997944182	1
0	18624	4426.283662888531	2
0	18626	4426.760820012549	3
0	18627	4428.582218186398	2
0	18632	4429.127011992509	1
0	18638	4429.66370810643	0
0	18644	4429.74346618693	1
0	18647	4432.095784847792	0
0	18653	4432.384778580792	1
0	18655	4433.870447732311	0
0	18704	4441.8429199879	1
0	18707	4443.448842603945	0
0	18724	4447.040891168693	1
0	18725	4448.127861994816	0
0	18750	4453.737124807615	1
0	18751	4454.10525772927	0
0	18759	4454.694346600979	1
0	18760	4455.253403819058	0
0	18766	4455.457541609166	1
0	18767	4455.528750966878	0
0	18791	4460.41709084391	1
0	18794	4462.05084240987	0
0	18816	4465.304432503502	1
0	18819	4467.50671266509	0
0	18839	4472.934787006674	1
0	18840	4473.092317056582	0
0	18846	4474.110859440869	1
0	18849	4474.221467549132	0
0	18952	4505.55392947446	1
0	18953	4505.681199625165	0
0	18959	4506.210490899388	1
0	18960	4506.594920248259	0
0	18980	4509.43666395454	1
0	18982	4509.454905656561	2
0	18983	4509.539507656294	1
0	18988	4509.641048117528	0
0	18994	4509.674878134422	1
0	18996	4510.903927843508	0
0	19003	4511.54027437183	1
0	19004	4511.94770571292	0
0	19056	4527.95563244194	1
0	19057	4528.040037316422	0
0	19063	4528.347805107086	1
0	19064	4528.387555698315	0
0	19081	4533.588617638535	1
0	19082	4534.087793186754	0
0	19090	4534.44953149963	1
0	19091	4535.519585322323	0
0	19115	4536.285280076555	1
0	19117	4536.612223989626	0
0	19132	4537.86075738101	1
0	19134	4538.205391011518	0
0	19158	4546.890481126356	1
0	19159	4546.978367996882	0
0	19184	4554.007385042358	1
0	19185	4554.413975605341	0
0	19199	4555.755944602185	1
0	19200	4556.015836283079	0
0	19232	4565.123900658152	1
0	19235	4565.325942931545	2
0	19236	4565.661689816364	1
0	19241	4567.047506231683	0
0	19264	4574.301553070703	1
0	19265	4575.158652905402	0
0	19304	4585.753023264122	1
0	19305	4586.06873388372	0
0	19311	4586.440835382813	1
0	19312	4586.624214938609	0
0	19342	4590.310992371192	1
0	19343	4591.008277229653	0
0	19352	4592.531647777211	1
0	19355	4594.315098632712	0
0	19363	4595.364024524568	1
0	19364	4596.301193103697	0
0	19376	4597.105852379048	1
0	19380	4597.387465861136	2
0	19384	4597.93093182144	3
0	19386	4598.498355276487	2
0	19392	4600.140868081102	1
0	19398	4600.668214883709	0
0	19405	4601.92958541742	1
0	19407	4602.578705040225	2
0	19408	4604.289439217726	1
0	19414	4604.34653033864	0
0	19439	4612.921421879461	1
0	19443	4613.200479044307	0
0	19494	4622.265434754164	1
0	19495	4622.295815750632	0
0	19545	4639.468172627052	1
0	19547	4640.720128852615	2
0	19551	4644.407067537425	3
0	19554	4645.140630580495	2
0	19562	4645.261600864964	3
0	19563	4645.439569835989	2
0	19569	4645.568048965525	1
0	19575	4645.710418451967	2
0	19579	4648.538468634892	1
0	19585	4649.452393091708	0
0	19597	4651.255721085992	1
0	19598	4651.976583712983	0
0	19610	4654.766299174931	1
0	19612	4655.045889689918	2
0	19616	4657.296826560347	1
0	19622	4657.889837890786	0
0	19665	4662.841995045701	1
0	19667	4663.526312067355	2
0	19669	4664.556628424755	1
0	19674	4664.751006310759	0
0	19702	4673.099037852701	1
0	19703	4673.187493005435	0
0	19724	4679.518870449174	1
0	19725	4679.695489985676	0
0	19733	4684.496953993987	1
0	19735	4684.592797072499	2
0	19738	4685.189544468164	1
0	19742	4685.740061244	2
0	19744	4685.96841526069	3
0	19749	4687.983188986254	2
0	19755	4694.336243282573	3
0	19760	4695.132304698587	2
0	19765	4697.618793122326	1
0	19769	4697.84467228319	2
0	19771	4698.328205989661	3
0	19773	4698.99675412392	4
0	19776	4699.98244646114	3
0	19784	4701.961735633359	2
0	19789	4702.029367230111	1
0	19794	4702.379964485626	0
0	19798	4702.675203636224	1
0	19800	4702.816792562624	2
0	19806	4705.347605297217	1
0	19811	4705.903588811148	0
0	19851	4711.847555791641	1
0	19853	4712.872639519846	2
0	19854	4712.894070877359	1
0	19859	4712.994549559607	0
0	19868	4713.225467027998	1
0	19872	4714.518753972582	0
0	19906	4721.33203850587	1
0	19908	4721.579452496398	2
0	19910	4721.698046267154	3
0	19912	4722.387611192114	2
0	19920	4723.676268370149	3
0	19921	4724.286055145608	2
0	19927	4724.405023463426	3
0	19930	4724.829565503876	2
0	19936	4725.148132031757	3
0	19938	4728.107816510552	2
0	19944	4728.842429508984	3
0	19945	4729.551461053783	2
0	19952	4730.965134040375	3
0	19954	4731.041380890851	4
0	19957	4732.420319404579	3
0	19962	4732.547822139324	2
0	19967	4733.226956588422	1
0	19973	4733.965546431815	0
0	19979	4734.048726290414	1
0	19981	4734.109992720634	2
0	19985	4734.403119167208	3
0	19989	4734.97888638021	2
0	19995	4735.175302163578	3
0	19998	4735.365650553594	2
0	20003	4736.233214369455	1
0	20010	4736.900691139016	0
0	20035	4740.578523535071	1
0	20037	4740.647316848696	2
0	20038	4742.076187950854	1
0	20043	4742.331424461962	0
0	20053	4745.364721218121	1
0	20055	4746.124207842629	2
0	20057	4746.830784426065	1
0	20065	4748.798922633433	0
0	20077	4750.250001567981	1
0	20078	4750.651507874843	0
0	20118	4758.905596790552	1
0	20122	4759.3932262133	0
0	20135	4762.385199357759	1
0	20136	4764.119065231807	0
0	20144	4764.584184607357	1
0	20146	4764.869592183808	2
0	20148	4765.087960444386	1
0	20153	4765.105291479134	0
0	20160	4765.244930795336	1
0	20161	4765.260409361358	0
0	20203	4773.959972315919	1
0	20206	4775.253634080239	0
0	20235	4780.932484940476	1
0	20237	4781.345508960832	2
0	20238	4781.589049686907	1
0	20245	4783.154176308044	2
0	20248	4784.737445268567	1
0	20255	4785.333321414463	2
0	20258	4786.143685825556	1
0	20263	4786.285363875885	0
0	20296	4788.760795717318	1
0	20298	4788.993910414571	2
0	20300	4789.647388546482	1
0	20310	4790.070441569701	2
0	20313	4791.140909176494	3
0	20314	4791.455664549016	2
0	20320	4793.175664056098	1
0	20327	4797.319337399511	0
0	20372	4813.831943021749	1
0	20373	4814.329415868716	0
0	20403	4821.68944776818	1
0	20404	4822.11997144334	0
0	20428	4826.337685105595	1
0	20430	4826.479874234051	0
0	20442	4827.717564899608	1
0	20443	4828.083047911315	0
0	20514	4859.276467013981	1
0	20515	4859.366368750984	0
0	20553	4867.983719221008	1
0	20554	4868.229501989016	0
0	20598	4874.938605449163	1
0	20603	4876.472319010813	0
0	20638	4893.978198732998	1
0	20644	4895.118211186435	2
0	20645	4896.397630567733	1
0	20650	4896.602504244726	0
0	20659	4897.624956674868	1
0	20663	4899.373870523948	0
0	20682	4903.677302357096	1
0	20686	4905.032877351739	2
0	20687	4905.346368380665	1
0	20693	4906.790449502164	0
0	20715	4911.66450940276	1
0	20720	4913.510657131018	0
0	20727	4914.215489346602	1
0	20728	4914.655936279508	0
0	20840	4945.125341271113	1
0	20842	4945.655829155458	2
0	20843	4946.202853934763	1
0	20850	4947.281599416855	0
0	20856	4948.483954978529	1
0	20857	4949.087391678998	0
0	20863	4949.790625668575	1
0	20864	4950.124252051572	0
0	20872	4951.924537221915	1
0	20874	4952.730309795998	2
0	20875	4952.769463550878	1
0	20880	4952.899470236866	0
0	20897	4955.964088077364	1
0	20899	4956.176796604996	2
0	20900	4956.593605517804	1
0	20906	4957.791764938247	2
0	20907	4960.724252703495	1
0	20912	4962.090001951725	0
0	20942	4967.333394818056	1
0	20943	4968.284015208305	0
0	21005	4983.162931171209	1
0	21007	4983.95432271523	0
0	21015	4984.899546688326	1
0	21016	4985.308582418242	0
0	21031	4987.987075856733	1
0	21032	4988.515310069858	0
0	21038	4989.21581424953	1
0	21040	4989.256420968294	2
0	21044	4989.667510473631	3
0	21045	4990.75280795824	2
0	21050	4991.043012059962	1
0	21055	4991.55542863466	0
0	21063	4992.319206035718	1
0	21068	4995.801644209631	0
0	21096	5003.397532410249	1
0	21097	5005.329350982244	0
0	21114	5006.195149615493	1
0	21116	5006.912520936755	2
0	21119	5009.694352157835	1
0	21126	5010.346838044628	0
0	21152	5013.428448865625	1
0	21153	5013.98556680049	0
0	21160	5015.070235981898	1
0	21161	5016.358039980967	0
0	21185	5022.518466431618	1
0	21186	5023.078963822057	0
0	21192	5023.080564535642	1
0	21195	5023.401317647672	0
0	21241	5035.202821518473	1
0	21242	5035.663497276035	0
0	21274	5043.266267693567	1
0	21275	5044.261628172734	0
0	21281	5044.738121118644	1
0	21284	5046.898730560026	0
0	21299	5049.66762387383	1
0	21300	5049.722729335908	0
0	21372	5075.469743156758	1
0	21373	5075.66440391827	0
0	21419	5088.674486036304	1
0	21421	5090.269218284598	2
0	21422	5091.31177543409	1
0	21427	5091.495477644922	0
0	21443	5094.882561387405	1
0	21446	5097.71221744447	0
0	21452	5098.401765818593	1
0	21455	5098.838627532992	2
0	21458	5102.890198936173	3
0	21460	5103.165826666024	4
0	21461	5103.557815682511	3
0	21467	5103.797651373306	4
0	21470	5104.62857897367	5
0	21471	5105.363339402484	4
0	21478	5106.284627882755	5
0	21479	5107.029325067161	4
0	21484	5107.476884198414	3
0	21489	5110.736152850865	2
0	21494	5111.451309342681	1
0	21501	5112.603718688277	2
0	21503	5113.135605216736	1
0	21508	5113.543691902646	0
0	21550	5116.809024467514	1
0	21552	5117.751922757464	0
0	21598	5129.689266676648	1
0	21600	5131.487564819625	2
0	21606	5134.990561243845	3
0	21608	5136.813414349591	4
0	21610	5138.91647464187	5
0	21611	5139.787787492835	4
0	21619	5140.473489937655	3
0	21626	5141.36153887876	4
0	21631	5143.259285810862	3
0	21638	5143.387335330765	4
0	21640	5144.915977043919	5
0	21642	5145.584503276761	4
0	21650	5146.525461239489	3
0	21658	5148.102796060835	2
0	21664	5150.917712958546	1
0	21672	5152.509529073102	0
0	21709	5157.675489472152	1
0	21710	5158.426405785938	0
0	21717	5160.680899388887	1
0	21718	5161.221857113034	0
0	21743	5166.151868133862	1
0	21744	5166.189514955317	0
0	21760	5174.060653770316	1
0	21761	5174.111313171604	0
0	21767	5175.048743800747	1
0	21768	5175.052769666487	0
0	21793	5186.607450403439	1
0	21794	5186.620486037604	0
0	21859	5200.530411603289	1
0	21860	5201.312140864518	0
0	21891	5206.994794377313	1
0	21893	5207.271166592273	2
0	21895	5208.945124025835	1
0	21900	5209.052887050043	0
0	21907	5209.405721353069	1
0	21909	5209.567450993456	2
0	21911	5211.857488346856	1
0	21918	5212.417056216776	0
0	21929	5214.366431025723	1
0	21931	5214.610759705329	2
0	21932	5215.475283800052	1
0	21939	5215.794344438403	0
0	21984	5231.78935914055	1
0	21985	5232.43011265024	0
0	21991	5233.107052347321	1
0	21992	5233.270410386392	0
0	21996	5233.670147905932	1
0	22003	5236.439284791347	2
0	22008	5237.138210566928	3
0	22009	5237.366714382032	2
0	22014	5237.639138275769	1
0	22019	5238.362377411994	0
0	22025	5238.541830780926	1
0	22027	5239.405690367345	2
0	22028	5241.536424765473	1
0	22034	5241.775946886694	2
0	22036	5242.287381927909	1
0	22041	5243.475232913845	0
0	22096	5253.201071215105	1
0	22099	5253.648246290082	0
0	22135	5262.214134368983	1
0	22136	5263.78850635057	0
0	22171	5275.877727113075	1
0	22172	5276.664361998217	0
0	22184	5278.451547381677	1
0	22185	5279.949594218767	0
0	22200	5283.652371796316	1
0	22201	5285.001967353838	0
0	22217	5289.93902543674	1
0	22218	5290.28467242565	0
0	22232	5290.983467745804	1
0	22233	5292.353732668626	0
0	22271	5298.44357886544	1
0	22272	5298.683355952636	0
0	22364	5317.302539832324	1
0	22368	5319.084115359468	0
0	22381	5321.877951135388	1
0	22382	5324.030211010318	0
0	22398	5328.466496445731	1
0	22399	5329.024399803064	0
0	22416	5331.729737458364	1
0	22417	5331.767570117612	0
0	22425	5332.387834658712	1
0	22427	5333.350020574669	0
0	22440	5336.219687341547	1
0	22443	5336.499054181484	2
0	22445	5337.684554684594	1
0	22453	5339.711593120933	0
0	22484	5347.463069359995	1
0	22486	5347.627197424205	2
0	22491	5349.545236493362	1
0	22496	5349.671497673077	0
0	22507	5350.934663760336	1
0	22509	5350.970589619626	2
0	22510	5352.875690955042	1
0	22516	5353.182031781092	2
0	22518	5354.050836382835	1
0	22530	5358.371218556925	0
0	22548	5364.096528571206	1
0	22549	5364.56738874123	0
0	22560	5365.101930611886	1
0	22563	5366.935047188382	0
0	22574	5368.154184012499	1
0	22575	5368.638075040342	0
0	22587	5368.720923004289	1
0	22590	5369.861727995832	2
0	22591	5370.589544027887	1
0	22598	5372.925648033844	0
0	22694	5405.083316780465	1
0	22696	5405.281335417733	2
0	22697	5405.711856278957	1
0	22702	5407.058562794684	0
0	22720	5408.856095557454	1
0	22721	5408.990994109618	0
0	22734	5411.309477469212	1
0	22736	5413.097562786102	2
0	22737	5414.15724002965	1
0	22743	5415.384249343626	2
0	22744	5416.266857207639	1
0	22749	5416.349170205483	0
0	22804	5431.479654538146	1
0	22805	5432.968728180281	0
0	22826	5434.685156152051	1
0	22827	5435.045871612344	0
0	22842	5437.746582652951	1
0	22843	5438.937974142699	0
0	22882	5449.135883921242	1
0	22885	5451.311150007489	2
0	22886	5451.604213717416	1
0	22894	5452.374431945764	0
0	22918	5464.059068679746	1
0	22919	5464.260518300763	0
0	22939	5465.920139953204	1
0	22942	5466.936939472384	0
0	22955	5468.093830145512	1
0	22956	5468.946074132859	0
0	22962	5469.026529012285	1
0	22963	5469.289074955535	0
0	22979	5471.428941273933	1
0	22983	5474.437000517241	0
0	22994	5476.302740844176	1
0	22999	5478.818162843419	0
0	23015	5480.933226432527	1
0	23018	5481.730406275005	2
0	23020	5483.062307206273	3
0	23021	5484.830159613095	2
0	23027	5485.190273034792	1
0	23032	5485.832779513998	0
0	23038	5486.089997287384	1
0	23039	5486.576777395152	0
0	23096	5498.710908726827	1
0	23098	5500.119708834312	0
0	23141	5511.936508240187	1
0	23143	5512.079957154853	2
0	23144	5512.266085324953	1
0	23149	5512.640047174498	0
0	23155	5513.096861831499	1
0	23158	5513.742846812368	0
0	23164	5514.303973301515	1
0	23165	5514.473324468638	0
0	23174	5516.151006918973	1
0	23176	5516.404333711348	0
0	23239	5531.662661335423	1
0	23242	5532.134802026821	0
0	23270	5534.966096092672	1
0	23271	5535.034294020826	0
0	23334	5553.349645477616	1
0	23336	5553.553111800706	0
0	23358	5561.453619731764	1
0	23359	5561.550656050038	0
0	23384	5565.955033794312	1
0	23385	5566.101784322846	0
0	23441	5579.780962472851	1
0	23443	5580.24430275046	2
0	23444	5580.406294418686	1
0	23449	5580.969429734617	0
0	23461	5581.687908184939	1
0	23463	5583.1522119479	2
0	23464	5584.671990362194	1
0	23469	5584.88031806979	0
0	23484	5586.444128175856	1
0	23485	5586.563396089245	0
0	23491	5587.085747914659	1
0	23494	5587.501078000772	2
0	23495	5587.645317333614	1
0	23501	5587.802765880291	2
0	23505	5588.184781524266	3
0	23506	5588.472309320572	2
0	23511	5588.617628607671	1
0	23515	5589.7928012826	2
0	23518	5590.461597143961	1
0	23522	5590.694357009575	2
0	23525	5592.483481469868	1
0	23533	5593.470066760261	0
0	23564	5598.399089159413	1
0	23572	5600.5081381567	0
0	23578	5600.691946236832	1
0	23583	5603.874655877683	2
0	23585	5604.181553768909	3
0	23586	5604.395416487261	2
0	23592	5605.254495824951	1
0	23598	5606.117789764545	2
0	23600	5607.961175356701	3
0	23602	5608.566174154966	2
0	23608	5611.468300878155	1
0	23613	5611.815218936396	0
0	23626	5612.300785806221	1
0	23627	5612.448622387091	0
0	23684	5634.332663398215	1
0	23685	5635.213176707884	0
0	23700	5637.500081732895	1
0	23701	5637.752933319922	0
0	23715	5639.014537190973	1
0	23716	5639.898177687149	0
0	23739	5643.227389881651	1
0	23741	5643.522453633295	2
0	23745	5646.516750364068	1
0	23753	5648.071803881774	0
0	23788	5653.709153155756	1
0	23790	5653.800378272581	2
0	23791	5654.247663940678	1
0	23796	5654.387642559063	0
0	23823	5660.586631392623	1
0	23824	5661.321899065215	0
0	23863	5666.306691466421	1
0	23864	5666.515636230919	0
0	23891	5673.615438438619	1
0	23893	5674.403903814254	2
0	23894	5674.54192309058	1
0	23900	5676.302007296871	0
0	23909	5678.143627235604	1
0	23916	5680.176633498972	0
0	23976	5691.62826929545	1
0	23979	5692.143419757936	0
0	23988	5692.782940601215	1
0	23990	5692.950860766763	2
0	23992	5693.016333095859	3
0	23998	5695.910991621679	2
0	24003	5695.925037052562	1
0	24008	5696.178322165477	0
0	24020	5698.265295714553	1
0	24024	5699.212945616407	0
0	24033	5699.815383018441	1
0	24035	5700.249145317128	0
0	24057	5704.83175099928	1
0	24059	5708.060455583742	2
0	24060	5709.351502480048	1
0	24066	5710.029034124821	0
0	24073	5710.835994509465	1
0	24074	5712.009533488123	0
0	24080	5712.102643931624	1
0	24082	5713.587654787756	0
0	24089	5714.722431396089	1
0	24090	5715.636370869633	0
0	24122	5721.581870150258	1
0	24123	5721.620026251049	0
0	24131	5722.069807413025	1
0	24132	5722.34594316253	0
0	24167	5732.117825048458	1
0	24176	5734.280697000436	2
0	24179	5735.348684406927	1
0	24185	5735.828937265117	2
0	24186	5735.946735005469	1
0	24196	5737.775643074577	2
0	24197	5737.947303178268	1
0	24204	5738.908261988718	0
0	24227	5743.631841436949	1
0	24228	5743.648576834978	0
0	24257	5749.494833523118	1
0	24258	5749.505494752788	0
0	24343	5774.451143822534	1
0	24345	5774.705933996484	2
0	24347	5774.866793387458	3
0	24349	5775.732316573304	4
0	24350	5776.56212468181	3
0	24360	5780.938660532229	4
0	24362	5781.32273070792	3
0	24369	5781.997543460712	4
0	24372	5782.202136935921	5
0	24374	5782.42795714382	6
0	24377	5783.490952744815	5
0	24382	5783.983357680862	4
0	24388	5784.870686181225	5
0	24389	5785.301063435753	4
0	24394	5785.328540635622	3
0	24400	5786.764867649039	2
0	24406	5786.877268282533	1
0	24412	5788.89702985641	0
0	24446	5796.061101099931	1
0	24448	5796.360489773666	2
0	24449	5796.494197456223	1
0	24455	5797.740881968425	2
0	24456	5797.806620691476	1
0	24461	5798.13541629522	0
0	24513	5817.832041061869	1
0	24514	5818.682273359325	0
0	24535	5821.646941090771	1
0	24537	5822.168148725328	0
0	24558	5824.859363194335	1
0	24559	5825.324394383009	0
0	24598	5833.839306085481	1
0	24604	5835.970140373061	0
0	24656	5849.998266065203	1
0	24657	5850.236199282814	0
0	24666	5850.533434972421	1
0	24672	5852.840278850883	2
0	24675	5853.203750545601	1
0	24681	5853.932820153367	0
0	24693	5856.670616977073	1
0	24695	5857.43517898026	2
0	24696	5857.839878267629	1
0	24702	5859.630843760407	0
0	24709	5860.862121442927	1
0	24711	5860.958972311586	2
0	24712	5861.001994765245	1
0	24720	5862.836315790432	2
0	24722	5863.115215311969	3
0	24723	5863.570893991489	2
0	24728	5864.479500774316	1
0	24734	5864.613547464512	2
0	24735	5865.083854352326	1
0	24740	5865.233334736886	0
0	24748	5867.849474732274	1
0	24755	5870.074927567746	2
0	24756	5870.756080282286	1
0	24761	5871.246428296168	0
0	24779	5874.394918761879	1
0	24782	5875.086508372864	2
0	24785	5876.253837039683	3
0	24786	5877.41989088521	2
0	24791	5877.656185455367	1
0	24797	5878.442963924756	2
0	24798	5878.547193134802	1
0	24806	5879.017570636375	2
0	24809	5879.254835063189	3
0	24812	5880.112502373586	2
0	24818	5881.587557528051	1
0	24823	5881.861345533791	0
0	24845	5885.89596375911	1
0	24846	5886.293041829032	0
0	24866	5890.290458551093	1
0	24869	5890.874282306615	0
0	24893	5895.334144835909	1
0	24895	5896.28000876824	0
0	24902	5897.34921271576	1
0	24903	5900.370845808606	0
0	24916	5902.056221451363	1
0	24918	5902.546717502304	2
0	24923	5906.328538602672	3
0	24924	5907.065526510479	2
0	24931	5909.392071901603	1
0	24938	5910.128770414954	2
0	24948	5911.222461340391	3
0	24950	5911.445916302574	4
0	24951	5914.558769695402	3
0	24956	5915.053418548635	2
0	24962	5916.106896234595	3
0	24963	5917.002607243612	2
0	24969	5918.598152741123	3
0	24970	5918.800523340354	2
0	24976	5919.032433273466	3
0	24979	5920.49059971344	2
0	24984	5920.920024022576	1
0	24990	5920.949969371976	2
0	24991	5922.197263873925	1
0	24998	5923.618785361579	0
0	25019	5928.05499786195	1
0	25026	5929.088662807135	0
0	25037	5929.661415157084	1
0	25042	5930.863976003454	2
0	25044	5931.237156104624	3
0	25046	5932.584586666042	4
0	25048	5933.720143120208	3
[...]
4	116129	27548.063479508336	7.244303892718
4	116142	27551.002669073024	7.929693642011
4	116166	27553.289450154017	5.197826781513
4	116170	27553.54112349736	3.922999350211
4	116228	27575.042392252618	1.694820828268
4	116252	27578.556744482429	0.399419105418
4	116267	27583.583902178433	1.23545049268
4	116297	27594.941249100464	3.009272768878
4	116316	27598.986880233594	4.951267565913
4	116337	27607.307351407905	8.061393470285
4	116353	27610.82604413126	10.897667313031
4	116368	27612.959066445126	12.981971545379
4	116381	27615.415183979327	10.077102344036
4	116386	27616.030544795829	5.641648380098
4	116391	27618.070286954201	6.782444897639
4	116395	27619.892880852684	6.341836306084
4	116452	27636.076678858801	1.403680548391
4	116471	27645.200884070994	1.976834809552
4	116533	27656.913095819226	0.031788331673
4	116541	27657.535063885969	0.262705100223
4	116548	27658.475965005954	0.154793292919
4	116561	27663.976466406436	1.563732671395
4	116579	27666.102691457647	0.158743678206
4	116617	27678.042758207803	7.781230063215
4	116669	27684.252264070703	12.666691987596
4	116788	27711.911689591459	39.299837519493
4	116798	27712.933173197057	35.437688729602
4	116815	27714.633696757356	19.42944219608
4	116820	27716.220398376798	13.066754883485
4	116825	27716.637588830255	8.21003344798
4	116833	27717.508207059287	0.687434847886
4	116914	27738.874089063226	7.899646665498
4	116924	27740.001496514202	8.318639923252
4	116995	27761.867309512668	0.95590412705
4	117011	27766.909203288886	1.155921454632
4	117036	27772.58836263931	1.012358612506
4	117052	27774.749144632993	1.041763800445
4	117060	27778.841665024311	4.043997536948
4	117079	27786.570746983225	1.459332076842
4	117104	27793.929297385076	5.114169014737
4	117108	27794.454724399625	0.979349483883
4	117139	27797.770023354968	0.55646336012
4	117153	27800.732551028592	2.68507104379
4	117157	27802.379109929637	2.163708815532
4	117240	27817.930230634491	7.274629797986
4	117244	27819.634358014965	8.265725806823
4	117263	27829.941657984596	1.16341944271
4	117270	27831.642592493976	0.968764699483
4	117285	27834.082619111504	0.813398839342
4	117309	27839.545202992997	0.508462527535
4	117326	27853.675471021953	0.898659262242
4	117333	27854.281425603162	0.400303998557
4	117345	27857.565205889185	3.145434787508
4	117427	27871.286713310123	1.541914434668
4	117485	27883.05691119569	4.239758714818
4	117496	27884.251504791439	4.207539331083
4	117500	27884.775877573917	2.301131494662
4	117545	27895.506293268297	3.727323682478
4	117556	27897.905374839774	4.499926630653
4	117574	27901.811874110447	7.686337277741
4	117591	27910.984092309013	14.41100207141
4	117613	27914.257401529758	10.233834471959
4	117618	27915.68572763542	8.013508244573
4	117622	27918.189583567768	9.638153486484
4	117642	27923.722447960775	0.298658321528
4	117666	27930.167620439552	0.060747167086
4	117678	27935.545948111332	0.908533752828
4	117693	27937.850042660088	0.821684294825
4	117703	27940.629047473679	2.820326821129
4	117755	27951.917441136928	0.741702797555
4	117822	27963.923111575629	8.537700953819
4	117836	27966.150740977365	7.653354544495
4	117855	27969.569981268609	8.951450095103
4	117890	27975.458107298311	0.969731495991
4	117923	27981.825425533775	1.041535601163
4	117946	27987.122248746916	4.004113704041
4	117987	28000.525189822767	4.999327952316
4	118005	28009.044125511653	4.632608748451
4	118012	28011.406943342358	4.84503087937
4	118016	28011.823564447512	2.714611575952
4	118044	28018.441612852007	2.90205309156
4	118081	28038.670971542497	0.176182764392
4	118097	28043.458044772154	4.24812635247
4	118114	28044.570565272036	0.262166230313
4	118139	28056.857430299217	0.144600982307
4	118177	28063.259092394908	0.566133165137
4	118198	28070.795640217423	5.960063531523
4	118209	28072.281146124016	7.21575698678
4	118214	28072.527789764908	4.745584244177
4	118218	28072.561934688018	3.07169452261
4	118274	28082.062785182933	3.823219337459
4	118295	28087.252809320502	8.280759817285
4	118349	28106.776909460606	2.742848615302
4	118399	28113.346625231968	1.893116452777
4	118440	28120.409905328935	2.158871339712
4	118473	28125.924633506243	2.545258329241
4	118482	28127.771073774294	0.896820746437
4	118501	28131.317479988752	1.567509587008
4	118518	28142.977275142049	3.132814243178
4	118546	28153.79823949319	1.111695830955
4	118603	28184.593634889516	1.963555280791
4	118672	28200.764975710577	7.607596791626
4	118677	28200.987732270228	3.237340451163
4	118688	28202.379110286656	1.951349448116
4	118704	28205.960483930162	4.059386266958
4	118714	28211.232456955378	0.572342532285
4	118739	28217.836592300466	4.613426438688
4	118752	28218.689621759748	5.449897774015
4	118794	28227.484128667107	10.255143737777
4	118926	28258.220178415262	35.911841723139
4	118942	28264.343659863375	41.145778938054
4	118962	28266.644022447691	30.978064431895
4	118968	28267.433363968305	31.275736448812
4	118975	28268.672459257198	23.702066203026
4	118985	28269.27153447312	18.585794065267
4	118994	28272.387389758239	14.124644559392
4	119015	28276.33174380975	12.17539162845
4	119022	28276.963604501796	11.111742870094
4	119030	28279.188005854035	12.983090122288
4	119040	28280.62652255072	4.091834768156
4	119048	28291.025219436603	0.128713404752
4	119061	28293.483341709996	1.539652425531
4	119091	28298.097651401302	6.078819934688
4	119095	28298.696015432182	2.303532463271
4	119112	28306.52062669696	1.332856169762
4	119163	28322.236601886095	0.264968476571
4	119181	28325.344227433195	0.917044832976
4	119200	28328.229879350887	3.43759892349
4	119250	28341.161068296442	15.677812434106
4	119254	28341.831886060256	14.121645528422
4	119265	28344.748452674288	2.637941071117
4	119296	28351.673953226051	1.315813522991
4	119301	28352.354634575235	1.431788762512
4	119308	28353.222633268543	2.218332002105
4	119335	28358.285443268133	0.467997028273
4	119349	28359.923689308909	2.052476813293
4	119361	28362.235962518882	2.694629076274
4	119446	28376.222263147252	16.241133755736
4	119467	28378.876274589342	14.874982815844
4	119479	28380.093989702076	6.28814454742
4	119484	28380.576968764484	6.066949995042
4	119489	28382.355721160978	3.279950732504
4	119496	28386.695370308178	7.551897596928
4	119500	28388.070793436374	4.240756273633
4	119524	28397.60074580642	0.08022303256
4	119585	28409.117681719148	6.374791297389
4	119590	28409.467028041579	5.635152245546
4	119598	28411.360158162591	6.58579802707
4	119634	28418.857819166087	2.786325768006
4	119655	28423.540580931345	1.284198395275
4	119662	28425.636431220005	2.775991840118
4	119671	28427.033641256419	1.950929830805
4	119689	28430.062186798668	1.355840305722
4	119720	28442.356890868221	0.857675470202
4	119756	28458.718786225003	7.15292391668
4	119786	28461.476886570958	6.403709566322
4	119799	28463.78751732579	3.990964312763
4	119809	28468.648827849357	0.073355446865
4	119833	28470.375225648923	1.411846534615
4	119878	28487.439423540578	1.504904041028
4	119931	28495.377766813092	2.043300525351
4	119943	28503.139912078814	0.352243746688
4	119962	28509.254847183332	0.016071612986
4	119970	28509.630889669106	0.037927571936
4	120040	28532.640364151002	1.70527749405
4	120049	28533.002567334233	1.645978076579
4	120072	28538.386560549015	5.354174611493
4	120124	28549.499720962335	13.743272841251
4	120132	28549.874805163171	13.803381910669
4	120171	28556.407326343808	0.992454032681
4	120186	28559.511034832729	0.053372511846
4	120193	28565.863905696479	0.011004813722
4	120253	28584.582143191238	0.885505116099
4	120264	28585.471717589097	0.884815379696
4	120289	28594.502749388556	0.691825919215
4	120294	28596.034345816372	2.049425944659
4	120324	28616.179340870559	3.789383607547
4	120347	28620.064273927077	5.486381833942
4	120352	28620.185461950288	2.255377270455
4	120359	28622.727483862884	3.630596462407
4	120380	28629.073066827792	4.216375418145
4	120430	28637.554000417212	1.823121181713
4	120441	28639.63238271991	0.486577232061
4	120475	28646.622353735446	0.705849279142
4	120491	28650.160862982907	1.349874812713
4	120501	28653.186982822679	1.023625158263
4	120540	28659.961151552025	1.119543782559
4	120597	28673.079337919557	0.1598414742
4	120606	28674.444369510994	0.336083728991
4	120625	28688.777847837495	1.644653681195
4	120637	28691.222501090839	1.838577619351
4	120644	28694.299254908985	0.863744527959
4	120664	28699.659708728078	0.901240236741
4	120687	28707.991582136934	0.99035687854
4	120692	28710.140675631691	2.555224130098
4	120714	28716.415713516189	3.266201771383
4	120719	28716.456506029731	2.751912702658
4	120729	28720.778981094129	7.058005015119
4	120734	28721.383241301138	5.066979079879
4	120738	28721.669718929453	4.910138773926
4	120791	28728.900292775907	6.419327198307
4	120798	28729.243819794001	0.294477957905
4	120813	28733.773431922746	2.456133260104
4	120851	28740.812345113347	3.529396209379
4	120874	28746.973390927263	1.401863829741
4	120947	28764.76953979873	7.888505322408
4	120974	28769.825562909666	3.673091205125
4	121031	28784.932311600744	3.57760636494
4	121055	28791.552444690879	0.162238353208
4	121068	28793.983516866888	0.270025901346
4	121095	28798.16330123955	1.983828609165
4	121102	28798.61487329549	2.013397781079
4	121106	28798.715686412251	0.210251148454
4	121113	28802.006344205858	0.804032036208
4	121134	28804.822265812782	1.638316709622
4	121145	28808.361607748289	4.797034735527
4	121149	28809.013838333865	4.77472199163
4	121185	28817.282509828465	1.392528014155
4	121192	28819.616417273008	2.874109436695
4	121196	28820.81116385145	2.297353569074
4	121234	28836.797467271738	0.964250841074
4	121243	28838.04670193658	2.036810613591
4	121285	28845.509485978734	4.845747474434
4	121292	28846.79269550593	6.106841833424
4	121296	28846.930075083469	1.338786041714
4	121313	28850.948364349943	0.34425102658
4	121328	28857.993096080474	5.655911283367
4	121365	28867.576015985353	9.685047462505
4	121383	28873.238259485697	2.300287774336
4	121396	28877.679919246954	0.707508378217
4	121403	28887.797336267276	1.050901343045
4	121452	28906.237583908614	2.758852266605
4	121479	28911.812468425787	5.736627474769
4	121495	28914.615942522521	1.119444754638
4	121500	28915.247842950194	1.572690957697
4	121557	28925.168880776875	5.706149830612
4	121581	28933.522742796056	1.225739957947
4	121593	28935.771184951394	0.143970773338
4	121616	28944.581146802622	6.164973393137
4	121620	28944.728812815714	2.979915943099
4	121636	28948.513377486235	1.634021141546
4	121645	28952.05103623774	0.885229718225
4	121653	28954.213213910075	1.251990398948
4	121679	28962.602281715095	0.484188957679
4	121705	28966.576147928063	1.360860171211
4	121717	28969.724215425937	4.136730535492
4	121724	28969.933450072991	3.335505435235
4	121734	28974.848818480984	5.07802506484
4	121818	28993.632006131858	7.703603355714
4	121823	28994.07212243757	1.651295251672
4	121828	28996.481511055001	3.862205413257
4	121835	28998.490428948029	0.822973682937
4	121843	29000.649215174286	0.432781232499
4	121890	29013.851512878655	5.218871901595
4	121897	29014.609328069057	2.681562994113
4	121914	29016.487116174179	3.252443272984
4	121949	29021.338390589672	5.132381153028
4	121957	29028.076955098159	10.173603888989
4	121973	29030.933851875698	0.938562691697
4	121980	29031.42817467903	1.021678800734
4	121996	29034.699906903867	1.701479161838
4	122017	29046.53396537026	0.60500323659
4	122051	29052.255536009977	4.223809731765
4	122077	29055.493822478953	6.178212503562
4	122087	29059.226842465271	7.590775787619
4	122092	29059.888562101431	4.831355765305
4	122101	29064.966885494559	9.845884728514
4	122112	29067.200533868952	9.772842184352
4	122121	29072.53249403168	14.429152080778
4	122143	29077.354806895895	3.143195080225
4	122155	29079.270832438442	0.773722489494
4	122172	29084.663486779707	0.853612102784
4	122261	29103.619075607922	10.186251692005
4	122332	29122.140580175029	11.502323838328
4	122377	29128.886570437318	8.969164982958
4	122391	29131.223092594359	8.478523559509
4	122401	29132.123814656959	8.887658286347
4	122409	29133.051085208433	6.913980417702
4	122446	29142.193384928393	0.025800729345
4	122461	29143.685052483959	0.738300986174
4	122471	29144.562554172874	0.865329989344
4	122478	29148.151664146447	4.369431473085
4	122482	29150.483393384482	2.85380537322
4	122498	29156.506877735151	2.386700103646
4	122521	29161.860508180495	0.234009994248
4	122532	29163.462657059108	0.945397909181
4	122551	29170.417109782698	5.618556374871
4	122637	29186.015746612841	11.69466848228
4	122642	29186.447467622221	10.483602762149
4	122649	29186.505152297615	8.422516614205
4	122654	29186.580534742037	2.668562441798
4	122665	29188.076742547662	3.000777588855
4	122683	29192.02158293751	6.897277316156
4	122692	29194.32215759821	7.860108269984
4	122705	29195.922624478495	9.005704499727
4	122715	29203.094104126839	14.805695429819
4	122732	29204.806993018993	14.99536959096
4	122741	29208.187611999443	18.159581829931
4	122754	29209.301906593543	15.102774053505
4	122763	29211.777605309303	16.554061049799
4	122790	29217.042169034421	20.237668207048
4	122794	29219.195015454211	13.768080854328
4	122845	29237.51037733956	3.604615433277
4	122857	29238.778211946718	2.534851851164
4	122861	29239.811962735502	1.837731729296
4	122872	29243.389294444668	1.744683374755
4	122910	29252.583698590306	1.06118197513
4	122927	29254.285737110851	0.315336751048
4	122942	29256.722991327882	0.104778689276
4	122964	29267.295372131534	4.828142886032
4	122976	29267.920309901484	3.116577252576
4	122981	29271.15498432575	3.313101302782
4	122992	29274.167133973439	1.47871515993
4	122996	29274.595510951206	1.403262622833
4	123005	29278.344650490427	0.574034350812
4	123080	29298.200114199583	5.437205969883
4	123091	29301.925156734586	8.366511143446
4	123143	29313.28028015978	9.558120920401
4	123153	29313.901675647501	5.773555681138
4	123159	29315.030102803816	5.582115849291
4	123166	29316.228778549439	3.920824076815
4	123181	29332.743124830313	7.91974959121
4	123190	29342.70378802404	16.247511088488
4	123203	29347.63367456029	5.516982974813
4	123215	29350.095649150508	0.552257467107
4	123240	29358.113666527136	7.51793733133
4	123279	29365.040563857523	11.807131422469
4	123284	29365.278727651677	6.605036926726
4	123292	29366.632020914877	6.042785667835
4	123299	29367.440180381318	4.784248455627
4	123315	29372.130785539159	6.701286699023
4	123326	29374.644032878908	4.743377013291
4	123345	29382.440818092838	2.566278460926
4	123384	29397.363928173785	8.268220390002
4	123433	29403.411884419973	10.551251399918
4	123444	29406.366619902122	8.035903380639
4	123458	29408.668145485583	5.794662570586
4	123465	29409.774452066549	6.308844478491
4	123487	29416.421933226659	5.91219998595
4	123519	29428.452269484283	1.376263368999
4	123526	29429.269505677553	0.010875595271
4	123543	29432.899120883036	2.36025762477
4	123550	29435.824520867308	4.737146892008
4	123554	29436.187417039946	0.862637324449
4	123587	29452.259953549709	3.991220267741
4	123596	29452.840701117745	2.962731478114
4	123639	29465.394554538023	3.03436781604
4	123648	29468.499862230929	3.662103245749
4	123654	29469.755189684479	3.427182129694
4	123658	29471.057508786045	4.679585264824
4	123684	29478.093405629912	6.649902488194
4	123688	29478.557539085464	7.066223110274
4	123727	29492.137120722444	10.956448484635
4	123732	29492.718747060553	9.895096590711
4	123736	29492.951389579348	9.016412635891
4	123782	29504.532582077281	1.080031298566
4	123846	29515.101538638315	3.888589779072
4	123850	29515.865534987442	0.805494476752
4	123896	29526.018796496505	6.560347694436
4	123905	29528.589724137707	9.006526325017
4	123919	29531.213974985645	9.638182465255
4	123954	29535.950174728364	7.901889994887
4	123965	29539.21740865213	5.352041153988
4	123980	29550.310050712782	15.087314185016
4	124017	29556.225722742949	20.715101430029
4	124021	29556.318263169493	14.607078853177
4	124028	29557.460778581629	0.54970443763
4	124067	29563.529014771152	2.681621259924
4	124094	29569.440991121304	3.645516185378
4	124120	29581.547647994108	1.463970155717
4	124225	29601.607697451318	17.385867537131
4	124230	29602.317312543841	17.208849824908
4	124245	29606.27633440583	18.237215986543
4	124269	29607.641036340127	18.993155058077
4	124276	29609.540938942093	13.397162763678
4	124287	29611.286022768482	11.231422176317
4	124296	29618.931243184237	14.944805569047
4	124311	29624.001146044742	17.783239735314
4	124344	29629.452379269923	16.560558741692
4	124361	29635.143491075161	3.089347028637
4	124381	29644.125390238917	1.92755967413
4	124398	29652.787941535619	10.065213333996
4	124480	29663.779231879334	19.787992964082
4	124484	29664.958106262032	18.69081694587
4	124507	29671.343095417851	1.03533572934
4	124514	29672.165650623649	0.675530854672
4	124659	29711.987436113734	15.447831210009
4	124666	29713.016486234545	14.063954019649
4	124674	29713.961509293563	13.201700743803
4	124681	29716.465308704124	15.242591139772
4	124694	29719.94367963055	13.727046775498
4	124699	29722.361177752905	14.054985570353
4	124704	29727.197836409315	13.440249343808
4	124708	29730.317769592075	12.557052142945
4	124739	29735.168885448288	0.344621913712
4	124752	29742.168148740696	4.949153722127
4	124765	29744.371365706544	3.214162247412
4	124786	29755.205286196525	9.550651471339
4	124800	29759.987518668173	13.428854040698
4	124806	29760.441044293775	8.371134037383
4	124814	29762.051148522838	9.406297817466
4	124826	29765.190249445408	6.091374339864
4	124831	29766.615720225803	3.044270090956
4	124883	29778.978373487102	10.258589339723
4	124890	29779.095416712248	6.403392441897
4	124922	29782.514354629886	0.447199399356
4	124926	29783.283125016886	0.944129445601
4	124941	29784.134184957491	0.163115891266
4	124959	29788.061768665323	0.654570222554
4	125019	29796.05486895692	3.844198732907
4	125039	29801.390012731299	7.433808987571
4	125068	29805.039829923971	3.369792815798
4	125139	29818.716390743733	12.770685710034
4	125145	29819.182590792232	11.711091924665
4	125150	29819.400118472564	5.637177392155
4	125155	29819.809580474978	3.665130362506
4	125161	29820.228117780282	2.114480388535
4	125166	29820.490343175626	2.366552175871
4	125173	29823.988693322751	5.284703855857
4	125178	29824.516094383572	3.265299562857
4	125189	29830.66126752783	3.527293284486
4	125204	29834.442894483467	0.128921367704
4	125211	29837.71349381854	2.352830022971
4	125227	29841.584805011425	1.123085525646
4	125247	29847.231992388402	1.629072102587
4	125262	29849.491450958817	2.174128649968
4	125276	29853.321251367748	5.05373287862
4	125318	29857.999492717572	5.144223643257
4	125328	29859.227820120105	4.447363164512
4	125351	29867.392894997558	8.628619365935
4	125373	29869.797836919497	8.314202990183
4	125378	29870.258351490469	5.709150831184
4	125388	29872.02919886218	6.532760758668
4	125408	29874.861063620858	7.899701191686
4	125419	29876.831225850923	7.403869462843
4	125423	29878.763342355795	7.817584936311
4	125431	29879.183142589714	0.287223843819
4	125454	29888.086155591005	2.790266018163
4	125473	29893.924648738964	3.833476760888
4	125505	29899.915492959481	9.397247454328
4	125524	29906.087661631366	10.933491332867
4	125568	29915.21899099268	13.929853290898
4	125582	29918.228163040113	14.152123914212
4	125603	29923.608592255684	15.821951158129
4	125612	29926.615047053123	10.549865305261
4	125632	29929.577868352438	11.037823810827
4	125642	29932.134911653814	12.572678189101
4	125652	29932.936863259219	5.002037979424
4	125657	29934.075434428782	6.00787529804
4	125664	29936.778552522782	5.951563163637
4	125698	29945.950900046694	4.840325434448
4	125728	29952.911268109347	6.475406113654
4	125732	29953.826077407821	2.431403865294
4	125742	29957.643682858731	2.356999883023
4	125773	29963.434091382945	0.066278553255
4	125788	29966.786504655064	0.719004049851
4	125798	29970.250841059042	1.621414060148
4	125802	29971.440944559074	2.298603715295
4	125819	29975.418220993412	1.430692382156
4	125837	29980.79499039471	3.437228424669
4	125864	29986.416999064568	3.113415223799
4	125874	29987.316870753614	0.017875754008
4	125881	29988.182098309558	0.617085951777
4	125893	29996.207478204403	2.956871916324
4	125903	29997.26604610084	3.248657456953

