version 2
run Second-n2-10-20191016-17:03:35-15220
attr configname Second-n2
attr datetime 20191016-17:03:35
attr experiment Second-n2
attr inifile omnetpp.ini
attr iterationvars ""
attr iterationvarsf ""
attr measurement ""
attr network org.omnetpp.queueing.Pizza
attr processid 15220
attr repetition 10
attr replication ""
attr resultdir results
attr runnumber 10
attr seedset 10
param **.PS.maxInventoriedPS 2
param **.U1.interArrivalTime exponential(3s)
param **.U2.interArrivalTime exponential(5s)
param **.PS.serviceTimeForInventoryU1 exponential(1.0s)
param **.PS.serviceTimeForInventoryU2 exponential(1.2s)
param **.PS.serviceTimeDirectU1 exponential(1.4s)
param **.PS.serviceTimeDirectU2 exponential(1.4s)
param **.PS.probabilityProducing 0.7
param **.CS.serviceTimeU1 exponential(1.1s)
param **.CS.serviceTimeU2 exponential(1.4s)

vector 0 Pizza.EntryQueueU1 queueLength:vector ETV
attr interpolationmode sample-hold
attr title "queue length, vector"
vector 1 Pizza.CS queueLength:vector ETV
attr interpolationmode sample-hold
attr title "queue length, vector"
vector 2 Pizza.EntryQueueU2 queueLength:vector ETV
attr interpolationmode sample-hold
attr title "queue length, vector"
vector 3 Pizza.sink lifeTime:vector ETV
attr interpolationmode none
attr title "lifetime of arrived jobs, vector"
attr unit s
vector 4 Pizza.sink lifeTimeU2:vector ETV
attr interpolationmode none
attr title "lifetime of arrived jobs, vector"
attr unit s
vector 5 Pizza.sink lifeTimeU1:vector ETV
attr interpolationmode none
attr title "lifetime of arrived jobs, vector"
attr unit s
0	0	0	0
0	10	4.426303334927	1
0	13	5.190193022171	2
0	14	5.226442253557	1
0	19	5.565963103578	0
0	28	5.852368194736	1
0	35	8.270382894642	0
0	43	9.321344875805	1
0	45	9.414630265741	2
0	48	10.318267787685	1
0	52	13.252393413152	2
0	55	13.970900553774	1
0	62	15.587730492576	2
0	64	16.725008943626	1
0	69	17.351113464247	0
0	82	18.951534058602	1
0	84	18.987108245275	2
0	85	19.189286547838	1
0	90	19.632906490464	0
0	111	21.199328183423	1
0	118	24.152130854766	2
0	120	24.817617375866	3
0	121	25.005449644874	2
0	126	25.482111187317	1
0	131	26.483402308796	0
0	137	29.186223772872	1
0	142	30.367626345407	2
0	145	30.789867756084	3
0	146	31.458040973766	2
0	151	31.991204509479	1
0	158	32.621865692452	0
0	176	36.340919291081	1
0	177	36.942066111104	0
0	192	37.739049492387	1
0	195	38.399535064559	0
0	206	38.832565717365	1
0	208	39.39857423323	0
0	222	40.099415665934	1
0	223	40.861663133184	0
0	254	50.607665201865	1
0	256	50.608482897399	2
0	257	50.794895709672	1
0	262	51.316203685759	0
0	301	65.853039274504	1
0	302	66.294259482028	0
0	324	75.68261931991	1
0	326	75.771460564432	2
0	327	76.260175265142	1
0	333	76.513700209586	0
0	349	79.129132655272	1
0	351	79.986053035148	2
0	353	81.350168636359	3
0	356	81.60042366876	2
0	361	81.724760911046	1
0	368	82.024230909982	0
0	372	82.538840583624	1
0	380	85.274658718446	2
0	382	85.733873495733	1
0	388	87.043579282822	0
0	394	87.463121842715	1
0	397	88.733866157984	2
0	399	88.937090221352	3
0	400	89.853018151348	2
0	405	90.015568657076	1
0	413	91.446410775936	2
0	417	93.999527652109	3
0	418	94.229887605112	2
0	426	96.796103757412	1
0	431	98.153411449276	0
0	437	98.706676456486	1
0	439	99.061064763718	0
0	463	102.796662401678	1
0	464	102.887587413374	0
0	486	105.466687708024	1
0	488	105.707245469154	2
0	489	107.311600825381	1
0	496	107.794948247115	0
0	502	108.151803160119	1
0	508	110.803838636635	0
0	514	110.893572254609	1
0	515	111.096955840888	0
0	531	115.450453399005	1
0	534	115.50198336014	2
0	538	116.445504405203	1
0	543	116.880351394428	0
0	569	121.083109401486	1
0	570	121.745219693149	0
0	576	121.774936923163	1
0	577	121.944606936075	0
0	583	122.81864136574	1
0	586	124.384806881774	0
0	593	125.537617484572	1
0	594	126.981817298596	0
0	609	129.250701470837	1
0	611	130.228098630278	2
0	614	132.647985365935	1
0	619	133.14025917345	0
0	626	134.227869264436	1
0	628	135.080914266597	2
0	629	135.6268858602	1
0	635	136.224702382095	2
0	637	137.339127198703	3
0	640	137.937849960666	4
0	641	137.986248497712	3
0	647	138.089189314464	4
0	650	138.303784756897	5
0	653	139.410734914732	4
0	660	139.574041832267	5
0	662	140.271549785182	4
0	669	141.123918283837	5
0	673	142.085752584964	6
0	674	142.409652562954	5
0	680	143.261515189593	4
0	685	144.186498216688	3
0	693	145.087295478474	2
0	700	145.493194630414	1
0	704	145.790141241846	2
0	707	146.271467259421	1
0	712	147.113079338407	0
0	716	147.937599931766	1
0	718	147.99876196981	2
0	724	149.593255859896	3
0	730	151.337520807824	2
0	737	152.009735401877	1
0	743	153.449689993144	2
0	745	154.57991401189	3
0	747	155.956638298441	4
0	750	157.214587332973	3
0	760	159.118864121124	2
0	767	162.186707970335	1
0	772	162.330248460793	0
0	784	164.664266699456	1
0	785	164.665337468266	0
0	792	165.308504902695	1
0	795	166.980151676861	0
0	813	169.938455562447	1
0	815	170.798009792706	0
0	831	171.334238996455	1
0	834	172.570596493719	2
0	835	172.980838310702	1
0	840	173.577815417548	0
0	867	179.419658945461	1
0	868	180.030329132766	0
0	874	180.240703671421	1
0	876	180.970695419813	2
0	879	182.369903635289	1
0	884	182.758299600833	0
0	895	183.726732720274	1
0	900	184.196759467943	2
0	901	185.169604609824	1
0	906	185.264461806936	0
0	917	188.702255182222	1
0	921	189.485609434715	2
0	925	190.794473113132	1
0	932	192.012954220971	0
0	941	193.880890540494	1
0	947	195.151335400514	2
0	949	195.615171552782	3
0	952	197.970885006163	4
0	954	199.733915708495	5
0	956	199.913005881677	6
0	958	200.986076389807	7
0	960	201.875669995519	8
0	961	202.678589860025	7
0	969	204.701114470128	8
0	971	206.491979981875	9
0	973	206.98561226295	10
0	974	208.565196453128	9
0	979	208.677764444078	8
0	988	209.745306774819	9
0	989	209.866707005334	8
0	996	211.241934924011	7
0	1000	212.14620842762	8
0	1004	212.758333926786	9
0	1006	213.604149177278	8
0	1011	214.686421246839	7
0	1018	216.601289100766	6
0	1023	218.191237559179	5
0	1031	219.298244054685	6
0	1032	219.359111208901	5
0	1040	222.278818276573	6
0	1041	222.802229235706	5
0	1049	224.660065566926	4
0	1054	224.670865384243	3
0	1060	225.024225280264	2
0	1065	225.033578537174	1
0	1069	225.124711389882	2
0	1071	225.549685265427	3
0	1073	225.824364001079	4
0	1076	227.873389085903	3
0	1081	227.968764691246	2
0	1086	228.481315159568	1
0	1090	229.703248740533	2
0	1092	230.137576754861	3
0	1096	230.560441727869	4
0	1097	230.977275757573	3
0	1104	232.451263070896	2
0	1109	233.090512163963	1
0	1118	234.776549985085	2
0	1119	235.252782234071	1
0	1126	236.50216388957	0
0	1133	237.350828407567	1
0	1134	237.549832950051	0
0	1158	242.809722399246	1
0	1160	243.745188482023	2
0	1163	244.484291986884	1
0	1168	244.665247413898	0
0	1180	246.835052479617	1
0	1181	246.837551958539	0
0	1190	248.429349004695	1
0	1191	248.579161684373	0
0	1207	252.145806272356	1
0	1208	252.236659515099	0
0	1219	252.894163013691	1
0	1221	253.247076693445	2
0	1222	253.387555438602	1
0	1227	253.509793821298	0
0	1231	253.684269560422	1
0	1233	253.774493740891	2
0	1239	256.011232302196	1
0	1245	256.588624511548	0
0	1260	258.382199978608	1
0	1261	260.93655855819	0
0	1267	260.956907328004	1
0	1268	261.007262357423	0
0	1286	264.121724654484	1
0	1289	266.63779914823	0
0	1313	269.624969485056	1
0	1315	269.989866742244	2
0	1316	270.043058751801	1
0	1323	271.680794203207	0
0	1329	272.079802608042	1
0	1332	272.352846688539	0
0	1354	276.387098590182	1
0	1355	277.031426750473	0
0	1382	281.335793549071	1
0	1383	281.609568715558	0
0	1389	281.855856704089	1
0	1390	282.417105069751	0
0	1410	288.336996542472	1
0	1411	288.406521226927	0
0	1418	289.646863539477	1
0	1419	289.775877918887	0
0	1425	290.109893293345	1
0	1426	290.828151683652	0
0	1462	297.550782338835	1
0	1465	297.911653710987	0
0	1475	299.25656852646	1
0	1478	301.715265865124	0
0	1517	318.409644715143	1
0	1519	320.324182319904	2
0	1522	321.800193217665	1
0	1529	323.181837353305	0
0	1565	327.591675994789	1
0	1571	328.373267679072	0
0	1577	328.676861411904	1
0	1580	328.846908743459	2
0	1581	330.211209148056	1
0	1587	330.736139593049	0
0	1593	331.465330511279	1
0	1594	331.853887379405	0
0	1600	332.115826031807	1
0	1603	332.445317726341	2
0	1605	332.964898298421	1
0	1615	333.93193238373	2
0	1621	334.31774388584	3
0	1624	334.45769512698	2
0	1630	335.265461621145	1
0	1635	335.859531382193	0
0	1654	340.788673273338	1
0	1660	341.540154755019	0
0	1687	347.844439752922	1
0	1692	350.978601806121	2
0	1693	354.337745568161	1
0	1699	355.091041312166	0
0	1731	359.342293085611	1
0	1735	359.459146198433	2
0	1737	359.914840073838	1
0	1742	359.919699203957	0
0	1755	360.988286627432	1
0	1756	361.817957151485	0
0	1824	379.324806714609	1
0	1825	381.119196812856	0
0	1855	393.006261057086	1
0	1858	395.923857931861	0
0	1866	396.258708800964	1
0	1867	396.331960454534	0
0	1881	397.36298893995	1
0	1884	400.010425661592	0
0	1905	402.134545162074	1
0	1907	404.536521917423	2
0	1909	404.567824792802	3
0	1916	405.588250158814	4
0	1918	407.22302980293	3
0	1924	407.295828738473	4
0	1927	407.812598345181	5
0	1931	408.781721851798	6
0	1934	409.657822036383	5
0	1939	410.160743363634	4
0	1945	410.461298614012	5
0	1948	411.676355222455	6
0	1950	412.760845750767	7
0	1952	412.868073334849	8
0	1953	413.130744527211	7
0	1961	413.618127688783	6
0	1967	414.003640172426	7
0	1968	415.038605654856	6
0	1972	415.40538430072	7
0	1976	418.032277947804	6
0	1982	418.540137236217	7
0	1983	419.567084336313	6
0	1989	421.817827475398	5
0	1995	423.285863589398	6
0	1996	423.314588804317	5
0	2002	424.452594848272	4
0	2010	425.681451025459	3
0	2016	427.113357688975	2
0	2021	428.324913105819	1
0	2025	429.776424715218	2
0	2027	430.224198783984	3
0	2034	435.494323124025	2
0	2041	438.151302788352	1
0	2053	444.592153005801	0
0	2079	447.699145859695	1
0	2081	449.880458012173	2
0	2083	450.391667932052	3
0	2086	456.92175209029	2
0	2092	458.17685966699	3
0	2094	460.741600125956	2
0	2102	463.776190312065	1
0	2109	466.158305988559	0
0	2126	469.301516427448	1
0	2128	469.663821458331	2
0	2130	470.484271198185	3
0	2134	471.011055738285	4
0	2135	471.829594368828	3
0	2141	472.136339429722	4
0	2143	472.748797712467	3
0	2148	472.839515889464	2
0	2153	473.956294953384	1
0	2159	474.810451875208	2
0	2161	476.013471214736	1
0	2165	476.643887982186	2
0	2170	477.199564828863	1
0	2175	478.729063379262	0
0	2179	478.73938542819	1
0	2182	480.277899383215	0
0	2186	481.316090848684	1
0	2190	481.706295631925	0
0	2209	483.220518547722	1
0	2212	484.532394042367	0
0	2220	485.200006977272	1
0	2221	485.410028491797	0
0	2240	487.429706640412	1
0	2241	487.84459086972	0
0	2258	490.707713502817	1
0	2261	492.22117044263	0
0	2277	493.767446124059	1
0	2285	499.976705706447	2
0	2286	500.500892283567	1
0	2291	502.384182375376	0
0	2314	513.84296631291	1
0	2316	513.928953161304	2
0	2317	514.780776199107	1
0	2323	514.809846985154	2
0	2326	515.237803040573	1
0	2336	516.658438022969	2
0	2337	516.751375382915	1
0	2344	518.060285956677	0
0	2363	521.996946296926	1
0	2364	522.538813556719	0
0	2390	527.520851457992	1
0	2392	527.819273006912	2
0	2395	528.202090365477	1
0	2406	531.562997680595	0
0	2434	542.503651230795	1
0	2436	542.511774300277	2
0	2437	543.223770768384	1
0	2444	543.343266079187	2
0	2445	544.502132064051	1
0	2450	544.684303737371	0
0	2459	546.192011226399	1
0	2463	549.484841887973	2
0	2464	549.58103317112	1
0	2475	553.150788840721	2
0	2477	553.169891945315	3
0	2478	554.1383879744	2
0	2483	554.299231927692	1
0	2488	554.301023639868	0
0	2508	558.111367716065	1
0	2510	558.13211769189	2
0	2517	561.93044180348	1
0	2522	562.116354372317	0
0	2537	565.064744995062	1
0	2540	565.814729840846	2
0	2542	566.305313351831	3
0	2543	566.544748230229	2
0	2551	567.114474706877	3
0	2553	567.259777151359	2
0	2560	568.00735763844	3
0	2561	569.299092291462	2
0	2566	569.711634589258	1
0	2573	570.907276427306	2
0	2574	571.028619177945	1
0	2579	572.146461814033	0
0	2583	572.821528807551	1
0	2585	573.156159396946	2
0	2589	575.339918539105	3
0	2590	575.835872711202	2
0	2596	578.569839561218	3
0	2598	579.873016726073	4
0	2601	581.135548933418	3
0	2609	583.815853210462	4
0	2610	584.9618170177	3
0	2615	586.911202983283	2
0	2619	587.261580875074	3
0	2622	588.006145960376	2
0	2628	588.70484366425	3
0	2629	588.919777136732	2
0	2634	590.379190142698	1
0	2640	595.300839619951	2
0	2644	595.514800209169	3
0	2651	599.683937073037	2
0	2657	600.662037931632	1
0	2663	601.255480415322	2
0	2666	603.19152592969	1
0	2674	604.257183629904	0
0	2702	611.516478708565	1
0	2705	612.117658584612	2
0	2706	612.2706732224	1
0	2711	613.711374507341	0
0	2725	617.86241204111	1
0	2727	618.644248621332	2
0	2734	619.96895557293	1
0	2740	621.234577887533	0
0	2755	624.207546370452	1
0	2759	625.189580951397	2
0	2760	625.208977698189	1
0	2766	626.037114442254	0
0	2775	628.423907015625	1
0	2777	629.803801552702	2
0	2780	632.617616328	1
0	2786	632.622685473763	2
0	2788	633.311969466319	3
0	2791	633.671585711001	4
0	2792	634.178132734938	3
0	2797	634.344513198833	2
0	2805	635.228420454081	1
0	2810	635.622717147592	0
0	2816	635.727827856051	1
0	2817	638.821745417279	0
0	2831	641.189937334444	1
0	2833	641.278363027471	2
0	2836	642.129535033527	3
0	2837	642.25486124739	2
0	2843	642.331254968467	3
0	2846	642.615659741222	4
0	2848	642.74235813371	5
0	2850	643.469822653312	6
0	2851	643.482518780737	5
0	2857	644.762238995308	6
0	2860	645.477469558073	5
0	2867	645.823247290694	4
0	2871	646.694552606848	5
0	2874	647.191360810275	4
0	2878	647.276973646572	5
0	2882	648.541726436624	6
0	2883	648.731644774789	5
0	2887	649.517416917415	6
0	2889	650.632639831899	7
0	2891	650.770628687197	8
0	2893	650.938629120634	9
0	2901	655.144251189004	10
0	2902	655.932375552155	9
0	2907	656.088980017936	8
0	2912	656.281249732501	7
0	2917	658.293843304159	6
0	2928	660.061069143042	5
0	2935	660.904948926991	4
0	2940	661.177744200587	3
0	2946	661.949580123707	2
0	2951	662.010920629569	1
0	2960	664.590339062484	2
0	2961	666.712426176495	1
0	2967	667.656987135982	0
0	2975	672.631506273655	1
0	2976	673.033083220148	0
0	2987	674.813396035483	1
0	2988	675.778762728132	0
0	2994	676.854477409974	1
0	2995	676.933575173378	0
0	2999	678.244337394143	1
0	3003	679.465923771222	2
0	3004	679.563968145051	1
0	3009	680.672484278087	0
0	3015	681.474504973882	1
0	3018	682.196803574585	2
0	3023	683.181048776084	3
0	3024	683.408273149231	2
0	3029	683.568231759805	1
0	3034	684.073192303884	0
0	3038	684.542485207967	1
0	3040	685.044937010399	2
0	3046	686.660833878262	3
0	3049	687.67152972002	4
0	3050	687.864388328308	3
0	3055	688.02473187002	2
0	3063	692.09952981562	1
0	3068	692.667204406244	0
0	3097	699.586320621054	1
0	3099	700.888903255653	2
0	3103	701.546131028105	3
0	3105	701.91513964587	4
0	3106	702.043555878638	3
0	3113	702.158082976169	4
0	3114	702.633225589943	3
0	3121	704.652936042041	2
0	3126	704.925699340268	1
0	3131	705.657359073699	0
0	3137	707.602782474053	1
0	3139	708.00314037139	2
0	3141	708.201844469705	3
0	3145	710.383334872729	4
0	3149	711.70367229844	5
0	3155	714.699184194927	4
0	3161	716.453699601729	5
0	3163	716.51032992026	6
0	3168	719.250729930524	5
0	3174	720.789277951047	6
0	3178	725.275078914674	7
0	3183	726.59636332517	6
0	3187	727.154927067662	7
0	3189	728.034429061762	8
0	3192	730.640424848275	7
0	3200	735.779373675473	6
0	3207	736.800372901515	7
0	3208	737.154709616873	6
0	3213	737.954271847715	5
0	3221	741.064279210752	6
0	3222	742.733370828707	5
0	3229	743.966488190622	4
0	3236	745.087905698781	3
0	3241	746.792368920828	2
0	3246	747.452060213336	1
0	3251	749.72478084132	0
0	3274	755.407475039376	1
0	3276	756.647813872215	2
0	3281	758.71538620016	1
0	3286	758.820150867351	0
0	3306	760.73014132662	1
0	3310	763.265435569773	2
0	3311	763.389408542	1
0	3316	763.519629947355	0
0	3320	765.002187822516	1
0	3322	765.955738176128	2
0	3327	766.622524179868	1
0	3331	766.968868011276	2
0	3334	769.108891844434	1
0	3340	769.783048254687	0
0	3369	774.646532567936	1
0	3371	774.683390123847	2
0	3373	774.949204991454	3
0	3377	774.961615998013	4
0	3378	775.019564978079	3
0	3383	775.433134157227	2
0	3389	775.469931827197	3
0	3390	775.819246225739	2
0	3394	777.251114880001	3
0	3397	780.575537367101	2
0	3408	785.029527868288	1
0	3413	785.181970282328	0
0	3437	789.414393849302	1
0	3440	792.045228729479	0
0	3460	797.009254862715	1
0	3462	798.439283958426	2
0	3465	799.777011359884	1
0	3470	800.144916834752	0
0	3481	805.091167091281	1
0	3484	807.296378730725	2
0	3486	807.876994570898	1
0	3491	808.022683119992	0
0	3495	808.231706773009	1
0	3499	808.581411763958	2
0	3501	809.368514616569	3
0	3506	811.971822173655	2
0	3512	812.121552061922	3
0	3515	813.416554365023	2
0	3520	815.60191926949	1
0	3527	817.346796765331	0
0	3531	821.961802865315	1
0	3534	822.560335002115	0
0	3570	827.481199734235	1
0	3571	828.33084876226	0
0	3608	834.208167344515	1
0	3614	836.430533337905	0
0	3653	843.629956574158	1
0	3655	844.430010970336	2
0	3657	845.5079575674	3
0	3661	850.021522678613	4
0	3662	850.057003173365	3
0	3667	850.174463885747	2
0	3673	850.83275452547	1
0	3678	851.819279430024	0
0	3691	854.231846569131	1
0	3693	854.8387974862	2
0	3696	855.606710679904	1
0	3704	857.709179442004	0
0	3708	858.049076093897	1
0	3710	858.871221059683	2
0	3714	859.867695578439	1
0	3719	860.495758623128	0
0	3741	868.419215341643	1
0	3745	869.432724549583	0
0	3765	872.846889281426	1
0	3767	873.379625077394	2
0	3769	873.644867980553	1
0	3775	873.812229263585	2
0	3779	874.57875714582	3
0	3782	876.895996751589	2
0	3787	877.195371663672	1
0	3796	880.082633826338	0
0	3802	881.019670546624	1
0	3809	886.672586522208	0
0	3834	892.7166231987	1
0	3836	893.308322098852	2
0	3838	894.794095500647	3
0	3841	895.459178482843	2
0	3848	896.660340546783	3
0	3849	896.863743432742	2
0	3855	897.819665161035	3
0	3859	898.302611364706	4
0	3861	899.175098604115	3
0	3867	899.318314181689	4
0	3870	900.00302235846	5
0	3874	902.734254736228	4
0	3880	904.23639838156	3
0	3892	905.660388729103	2
0	3897	905.9885725443	1
0	3902	906.022453202259	0
0	3910	907.364479475122	1
0	3911	907.876263479575	0
0	3919	908.19877627658	1
0	3920	908.921265972735	0
0	3936	911.343658063985	1
0	3939	912.281733454148	0
0	3958	919.214832462404	1
0	3959	919.478652050061	0
0	3976	922.023904321922	1
0	3980	923.280796810852	2
0	3983	924.293158310405	1
0	3988	925.217425936678	0
0	3995	925.617020197347	1
0	3997	925.868385091679	0
0	4017	927.541210111558	1
0	4020	927.95089189429	0
0	4024	928.096677968569	1
0	4028	929.260741688952	0
0	4039	930.5656658196	1
0	4041	930.693759569028	2
0	4043	931.428236000374	1
0	4048	931.76998098851	0
0	4054	932.814492498712	1
0	4056	933.069171637561	0
0	4086	939.300431598434	1
0	4092	939.963931451319	2
0	4097	942.110239006125	3
0	4098	943.222619422434	2
0	4106	944.218053953811	3
0	4107	946.172060654886	2
0	4113	946.918624453297	1
0	4118	947.50524468276	0
0	4125	948.275963779586	1
0	4126	948.377252611899	0
0	4154	952.536057260133	1
0	4156	952.969884834074	2
0	4159	955.100672563395	1
0	4166	955.573126295287	2
0	4167	956.455265309859	1
0	4172	956.688264600239	0
0	4179	957.395564066737	1
0	4180	957.411094670362	0
0	4219	966.414438017366	1
0	4222	970.322133424166	0
0	4247	977.447255331248	1
0	4250	978.578120681625	0
0	4257	979.176289517349	1
0	4258	979.879788157041	0
0	4295	989.497425843356	1
0	4301	991.984963583852	2
0	4305	995.275900071459	3
0	4311	999.695175549564	4
0	4312	1000.456454089173	3
0	4320	1001.771285352765	2
0	4325	1002.315856333967	1
0	4330	1002.685977948066	0
0	4358	1006.185904289178	1
0	4361	1007.047071752953	0
0	4368	1008.260695628124	1
0	4370	1008.737341593473	2
0	4371	1009.205571451706	1
0	4377	1009.837616368483	2
0	4378	1010.291005471065	1
0	4383	1010.652667161562	0
0	4387	1010.873934549284	1
0	4390	1012.400262230309	0
0	4397	1013.989624005946	1
0	4398	1014.167742285978	0
0	4407	1015.073824253642	1
0	4409	1017.2024846775	2
0	4413	1017.860757306203	3
0	4414	1018.404683283323	2
0	4418	1019.65463581876	3
0	4420	1020.068987193603	4
0	4426	1023.164525377738	5
0	4429	1024.626591379002	4
0	4435	1024.785993714051	5
0	4436	1024.955673657013	4
0	4442	1025.589479817237	5
0	4443	1025.606031759375	4
0	4450	1028.640710368505	3
0	4454	1030.006564257969	4
0	4458	1031.278896562944	5
0	4462	1033.494455693493	6
0	4465	1034.952364919497	5
0	4471	1035.854673081374	4
0	4476	1035.893828101187	3
0	4483	1037.619964431828	4
0	4485	1038.188399166028	3
0	4494	1038.55120290971	4
0	4496	1038.957005903466	5
0	4497	1039.209958704784	4
0	4502	1039.408020773729	3
0	4511	1040.180107873922	2
0	4516	1040.558161889147	1
0	4522	1041.151151674354	2
0	4524	1041.237453682216	3
0	4525	1041.292288779423	2
0	4529	1041.918868749671	3
0	4531	1042.334751320258	4
0	4534	1043.556980454654	3
0	4545	1046.11210510487	2
0	4550	1046.855040235707	1
0	4556	1047.877217864468	0
0	4564	1050.300951784258	1
0	4568	1051.567457267232	2
0	4569	1052.474315298695	1
0	4575	1052.519611106726	2
0	4577	1052.662094692265	3
0	4579	1053.096019785787	2
0	4587	1055.242654082949	1
0	4593	1055.732614970493	2
0	4594	1056.057378883664	1
0	4603	1056.894662592684	0
0	4622	1058.83567051748	1
0	4624	1060.565685606304	2
0	4626	1060.700889160966	3
0	4627	1063.280525864466	2
0	4632	1063.290317426962	1
0	4637	1063.428055374727	0
0	4646	1064.157917736346	1
0	4648	1064.779446503384	2
0	4655	1066.607068579266	1
0	4661	1067.34241920915	2
0	4662	1068.898127996314	1
0	4667	1070.950025092874	0
0	4671	1072.085625337642	1
0	4673	1072.092440116834	2
0	4680	1074.541674930968	1
0	4684	1075.539220127126	2
0	4689	1076.779301996785	3
0	4692	1077.885722459929	2
0	4697	1078.220325313954	1
0	4702	1079.83384082399	0
0	4708	1080.543058177053	1
0	4712	1082.076662635057	2
0	4713	1082.6746820296	1
0	4720	1084.735836612665	2
0	4721	1084.871006445019	1
0	4726	1085.572527835498	0
0	4741	1089.163566334557	1
0	4743	1093.052034575865	0
0	4755	1097.215918902286	1
0	4756	1098.259974540974	0
0	4762	1098.623580880152	1
0	4764	1099.174151930104	2
0	4769	1102.466470997208	3
0	4770	1103.814957100426	2
0	4775	1104.876973053942	1
0	4780	1106.045982217086	0
0	4797	1110.10505918398	1
0	4799	1111.38227472562	2
0	4800	1112.767311847054	1
0	4808	1113.809977111617	2
0	4810	1114.768130822285	3
0	4811	1114.794545100198	2
0	4817	1116.14382956955	3
0	4818	1116.536785871704	2
0	4825	1117.389582491676	1
0	4832	1119.820266714596	2
0	4834	1120.231220677251	3
0	4835	1120.449745127153	2
0	4841	1121.198081431943	1
0	4846	1121.212988689929	0
0	4866	1124.814034440094	1
0	4868	1125.361927756442	2
0	4870	1125.417718468459	3
0	4873	1125.543593438042	2
0	4878	1125.834796527873	1
0	4885	1127.9935077913	0
0	4891	1128.837615173268	1
0	4893	1129.134338349309	2
0	4895	1129.246677005377	1
0	4901	1130.366605298115	0
0	4918	1132.318333875936	1
0	4922	1135.257830106664	0
0	4932	1138.006169985429	1
0	4934	1140.455336971768	2
0	4936	1140.603860418684	3
0	4941	1140.845047638997	2
0	4949	1142.710233102837	3
0	4951	1142.890283923188	2
0	4955	1143.121817787337	3
0	4958	1143.874726161073	2
0	4962	1144.153027592371	3
0	4968	1146.953805361003	4
0	4970	1147.728489188969	3
0	4975	1147.965423440658	2
0	4981	1148.174797667062	1
0	4986	1148.415139066567	0
0	5019	1154.529723935715	1
0	5029	1161.86919726999	2
0	5031	1163.002997012071	3
0	5032	1163.112142191139	2
0	5037	1163.286709264175	1
0	5042	1164.232362603137	0
0	5053	1165.355686652347	1
0	5057	1166.382627665564	2
0	5064	1168.684576425881	1
0	5072	1171.692040371507	0
0	5079	1174.009626569038	1
0	5080	1176.120573136842	0
0	5091	1178.188156533388	1
0	5095	1179.283608240403	0
0	5102	1179.952152515689	1
0	5106	1181.647747850664	2
0	5109	1182.46971012326	1
0	5117	1184.954200408441	0
0	5123	1186.337592588634	1
0	5126	1187.55359151131	0
0	5137	1187.653162965118	1
0	5138	1188.17735894762	0
0	5162	1191.903994542298	1
0	5163	1192.115439815523	0
0	5173	1193.237977194115	1
0	5175	1193.653276186836	2
0	5180	1196.945404870182	1
0	5185	1198.092146264318	0
0	5194	1200.009489297188	1
0	5196	1201.466867975788	2
0	5198	1201.844454016677	3
0	5200	1202.580457154945	4
0	5202	1202.718139758706	5
0	5206	1204.342161076979	6
0	5208	1204.960325380941	7
0	5210	1206.629466310924	8
0	5212	1206.67000998483	9
0	5217	1208.436260461911	8
0	5223	1208.79074750489	9
0	5226	1209.865331873175	8
0	5231	1209.958626710602	7
0	5236	1211.79512517349	6
0	5241	1213.743481745502	5
0	5249	1215.059675084999	4
0	5255	1215.387696987084	3
0	5263	1216.128402685035	2
0	5269	1217.025269439848	3
0	5270	1217.108888762254	2
0	5274	1217.324412813757	3
0	5279	1218.868494453237	4
0	5282	1219.673408525758	5
0	5284	1220.076005657115	6
0	5286	1220.094894992606	7
0	5287	1221.389850709261	6
0	5292	1221.5699224247	5
0	5298	1221.656258965919	6
0	5300	1222.127408546291	5
0	5306	1223.377680342476	4
0	5313	1225.785557905079	3
0	5320	1226.831777689993	2
0	5329	1228.909122554711	1
0	5335	1230.871730021969	0
0	5352	1233.502989282159	1
0	5355	1236.145042063378	2
0	5356	1236.526344127923	1
0	5363	1240.885684408757	0
0	5374	1242.029662974639	1
0	5375	1243.065848644532	0
0	5405	1250.622123380774	1
0	5407	1250.631302429145	2
0	5409	1251.091743450891	3
0	5412	1256.688008702287	2
0	5417	1256.787549886784	1
0	5423	1256.822667164537	0
0	5430	1257.565225446485	1
0	5432	1257.971164569367	0
0	5458	1261.746861623075	1
0	5461	1263.58087943439	2
0	5462	1263.884018028796	1
0	5467	1264.380773710198	0
0	5473	1264.398476076187	1
0	5477	1264.889332317074	0
0	5503	1268.552782905508	1
0	5504	1269.048650454064	0
0	5510	1269.285503676838	1
0	5511	1271.555658886266	0
0	5518	1271.813465940124	1
0	5519	1271.971516133492	0
0	5540	1277.816133954851	1
0	5541	1278.267415726741	0
0	5547	1278.285144550831	1
0	5548	1278.613372082833	0
0	5563	1281.322413528446	1
0	5565	1282.523430649445	2
0	5569	1288.07800801622	3
0	5571	1288.291785074991	4
0	5572	1288.786110402909	3
0	5582	1290.763625699801	2
0	5587	1290.83815270622	1
0	5592	1290.937927319802	0
0	5596	1291.404515774087	1
0	5598	1291.472482018259	2
0	5602	1292.844053257597	3
0	5604	1294.708038790981	4
0	5605	1295.04658665229	3
0	5612	1295.491315179565	2
0	5617	1296.176716388198	1
0	5624	1298.562367765916	0
0	5628	1299.440465263284	1
0	5634	1301.72703580721	2
0	5635	1302.120908471024	1
0	5640	1302.260637120399	0
0	5656	1304.463255721776	1
0	5661	1310.044839114059	0
0	5674	1312.43680714779	1
0	5682	1315.700016813085	0
0	5705	1317.305410207416	1
0	5706	1318.386703706115	0
0	5729	1324.980851815107	1
0	5731	1328.387085841457	0
0	5743	1329.063824751919	1
0	5746	1329.475976453119	0
0	5768	1336.803874835766	1
0	5773	1337.825310732303	0
0	5799	1341.34538561748	1
0	5800	1341.453483124281	0
0	5810	1343.773008815235	1
0	5814	1346.308800459845	0
0	5821	1346.481924625579	1
0	5822	1348.149202815835	0
0	5837	1348.565947122306	1
0	5841	1349.300568211143	2
0	5844	1353.199400979527	1
0	5850	1354.029671759596	0
0	5857	1354.850198516213	1
0	5858	1355.369943058873	0
0	5869	1359.40096480079	1
0	5875	1361.395853098968	0
0	5896	1364.739743828002	1
0	5901	1367.279853351858	0
0	5910	1368.012525474909	1
0	5912	1368.64303602031	2
0	5916	1369.900918427767	1
0	5922	1371.498327990339	0
0	5935	1372.912612243001	1
0	5937	1373.121442956991	2
0	5939	1373.26761670436	3
0	5940	1374.065776760832	2
0	5946	1374.158094398665	3
0	5948	1374.303016667465	4
0	5953	1374.672981800744	5
0	5954	1375.084330431733	4
0	5960	1375.506467057761	5
0	5961	1375.696674546811	4
0	5966	1375.913387173651	3
0	5971	1381.303976279623	2
0	5979	1384.743391889747	1
0	5988	1386.602428160039	0
0	6005	1391.22620465596	1
0	6006	1391.952205580073	0
0	6015	1394.142505500257	1
0	6016	1394.398545916383	0
0	6029	1398.622814649987	1
0	6031	1399.768842039463	0
0	6040	1404.413138372123	1
0	6044	1405.490569786776	0
0	6078	1415.389237976996	1
0	6079	1416.039336038217	0
0	6098	1419.831882262904	1
0	6100	1419.893562986979	2
0	6102	1420.078459764191	3
0	6103	1421.024583177026	2
0	6110	1421.45856649585	1
0	6115	1421.888513660279	0
0	6135	1426.761040585949	1
0	6136	1427.004028555442	0
0	6150	1429.224284371388	1
0	6151	1429.264972847186	0
0	6180	1433.263057524934	1
0	6181	1434.069465250913	0
0	6211	1443.566091005634	1
0	6212	1443.91207627104	0
0	6249	1452.744999139668	1
0	6250	1453.044330272008	0
0	6301	1467.363944253284	1
0	6302	1467.553214816601	0
0	6310	1468.326722447585	1
0	6313	1469.109162348697	0
0	6324	1469.493480592733	1
0	6325	1470.03732554257	0
0	6348	1473.421440632476	1
0	6350	1473.536799383516	2
0	6351	1473.951193456343	1
0	6360	1476.240288120258	0
0	6371	1479.838353091718	1
0	6373	1480.410810187727	0
0	6379	1480.897408079092	1
0	6381	1481.260017152853	0
0	6389	1482.439240586903	1
0	6390	1482.870117727455	0
0	6435	1493.669361404657	1
0	6439	1494.092561905965	0
0	6482	1502.179517314922	1
0	6485	1502.804856593975	0
0	6491	1503.00444804809	1
0	6495	1503.216092169779	2
0	6497	1505.52900678662	1
0	6505	1506.827148665783	0
0	6518	1507.447776140534	1
0	6519	1508.491575836899	0
0	6545	1519.07658261864	1
0	6547	1519.723753324774	2
0	6553	1520.996510238655	3
0	6554	1521.493517809623	2
0	6559	1522.041050980328	1
0	6564	1522.104821118336	0
0	6568	1522.16705331038	1
0	6570	1522.478259083647	2
0	6574	1523.56088314464	1
0	6580	1524.811692855323	2
0	6586	1526.49300551135	1
0	6594	1528.365575370883	0
0	6623	1534.515867967847	1
0	6626	1535.348752084439	0
0	6646	1536.909868044986	1
0	6648	1537.615175004104	2
0	6652	1538.291900616898	3
0	6654	1539.480908782556	2
0	6659	1539.740163921216	1
0	6664	1539.81857624133	0
0	6670	1540.782250513684	1
0	6672	1541.126236591896	2
0	6675	1542.817218451355	1
0	6680	1543.097164052719	0
0	6713	1561.822620436835	1
0	6715	1563.03749654736	2
0	6717	1565.251905269899	3
0	6721	1566.181234264299	2
0	6727	1566.337690786841	1
0	6736	1567.532045983179	0
0	6752	1569.786530648533	1
0	6755	1570.756625882778	2
0	6757	1572.277768284146	1
0	6762	1572.327945934004	0
0	6771	1573.175137323369	1
0	6773	1573.739357213011	2
0	6775	1575.047661337282	3
0	6778	1577.313712399545	2
0	6784	1577.562694664431	3
0	6785	1577.7649316246	2
0	6801	1579.92699121746	3
0	6802	1581.803339471654	2
0	6807	1583.17994859563	1
0	6812	1583.277193546126	0
0	6825	1586.963718293852	1
0	6826	1588.12259579005	0
0	6837	1588.680835268953	1
0	6840	1590.465411311241	2
0	6841	1590.718404159555	1
0	6846	1591.191112632887	0
0	6850	1592.482345030652	1
0	6853	1593.968655984493	0
0	6894	1601.151054593936	1
0	6896	1602.08042538599	0
0	6911	1604.281464075568	1
0	6913	1604.298029756934	2
0	6914	1606.707344163067	1
0	6922	1609.513809746757	2
0	6923	1609.545406654606	1
0	6929	1610.086005661081	2
0	6931	1611.042488854664	3
0	6932	1611.266275714367	2
0	6937	1611.719895082658	1
0	6941	1611.735537735772	2
0	6945	1614.369198145221	3
0	6947	1614.781739914387	4
0	6950	1615.217761461289	3
0	6955	1615.254514155902	2
0	6960	1615.793554724086	1
0	6966	1616.917065460201	0
0	6983	1620.180992453355	1
0	6984	1620.447217210446	0
0	6997	1621.504953457329	1
0	6998	1621.64477317423	0
0	7010	1623.184287743227	1
0	7011	1623.590560069741	0
0	7022	1625.138807870247	1
0	7024	1625.746893706349	2
0	7030	1626.454125768021	3
0	7032	1627.48033646446	2
0	7037	1627.997643599751	1
0	7041	1628.031275476396	2
0	7047	1630.263983502165	3
0	7050	1631.080323241432	2
0	7058	1632.773865468951	1
0	7065	1633.308517167348	0
0	7069	1633.336882036959	1
0	7074	1634.362978176368	0
0	7081	1635.610636396251	1
0	7083	1636.272022698032	2
0	7084	1636.380563372949	1
0	7090	1636.401545547477	0
0	7099	1638.094765591818	1
0	7103	1643.250947810532	0
0	7110	1644.102206720713	1
0	7112	1644.342775852147	2
0	7113	1644.588774491099	1
0	7121	1644.850409920005	2
0	7122	1644.986460657632	1
0	7130	1646.375166736318	0
0	7156	1653.433150258267	1
0	7161	1653.957289862746	0
0	7182	1660.730698118498	1
0	7183	1662.39812656849	0
0	7197	1663.425346055763	1
0	7198	1664.526731333799	0
0	7258	1682.843381623316	1
0	7265	1683.375459542945	2
0	7266	1683.447202337211	1
0	7271	1684.42655935021	0
0	7279	1686.068164154852	1
0	7283	1687.227052830338	2
0	7284	1688.083362164807	1
0	7292	1689.754492967798	0
0	7309	1693.607897170064	1
0	7310	1695.355079438056	0
0	7317	1695.68071089179	1
0	7318	1695.848529911942	0
0	7341	1705.795444915678	1
0	7343	1706.806641217239	2
0	7346	1708.412381260668	1
0	7357	1710.212463462843	0
0	7363	1710.77250753008	1
0	7364	1711.128274552505	0
0	7376	1713.132805843606	1
0	7380	1715.00501175007	0
0	7394	1718.056853854538	1
0	7398	1720.790367950607	2
0	7402	1721.535797188029	3
0	7404	1723.267045355814	4
0	7405	1723.73818655437	3
0	7411	1724.315885251075	2
0	7416	1724.703437234905	1
0	7424	1725.396956289467	2
0	7427	1726.76316323904	1
0	7432	1727.154004701177	0
0	7436	1729.628226651884	1
0	7442	1733.624969069074	2
0	7445	1733.997960651141	1
0	7451	1735.535582335281	0
0	7490	1741.361532285078	1
0	7492	1741.979271372518	2
0	7496	1743.768450894516	1
0	7501	1743.880214362331	0
0	7505	1744.160532830893	1
0	7510	1745.307858219513	0
0	7514	1746.427218824189	1
0	7518	1748.79249884855	0
0	7537	1752.464826103453	1
0	7539	1752.747470221467	2
0	7540	1752.841262518072	1
0	7545	1752.876822495595	0
0	7558	1757.249742515918	1
0	7562	1758.781301603981	2
0	7563	1759.969122062868	1
0	7568	1760.057436914992	0
0	7576	1760.66981818433	1
0	7578	1761.587878090688	2
0	7579	1762.50672241623	1
0	7585	1764.053359307361	0
0	7593	1764.738913502901	1
0	7596	1764.845332655793	2
0	7597	1766.180823587312	1
0	7602	1766.779243144944	0
0	7691	1798.273548782451	1
0	7692	1799.393291182561	0
0	7696	1799.96332817846	1
0	7703	1801.740473907806	2
0	7706	1802.110267982533	3
0	7709	1802.9937126481	2
0	7715	1803.507533704846	1
0	7722	1805.891496134483	2
0	7724	1807.119224773227	1
0	7730	1807.876554299811	0
0	7736	1808.851126440353	1
0	7737	1808.937279085827	0
0	7745	1809.001884389776	1
0	7747	1809.596556228495	0
0	7763	1810.287030782807	1
0	7768	1813.859161744826	2
0	7770	1814.645508345075	3
0	7771	1814.966359706673	2
0	7777	1816.040192732167	1
0	7782	1817.021065017447	0
0	7804	1821.750369638664	1
0	7805	1823.189720267093	0
0	7818	1823.731875411086	1
0	7821	1823.970352175004	2
0	7822	1825.813878893432	1
0	7827	1826.044958262154	0
0	7833	1826.965395344296	1
0	7834	1827.195313982004	0
0	7865	1835.130490709542	1
0	7867	1835.894386316648	2
0	7868	1836.418574905431	1
0	7874	1837.010582554166	2
0	7876	1840.142369359569	1
0	7881	1840.63481151029	0
0	7915	1849.226275648341	1
0	7919	1849.787973616741	2
0	7920	1850.56394756986	1
0	7925	1850.986498863503	0
0	7980	1867.859896061577	1
0	7982	1867.965514526193	0
0	7998	1870.117852277243	1
0	8000	1870.925130801347	2
0	8001	1871.178591508965	1
0	8006	1871.477403136951	0
0	8015	1874.232350871108	1
0	8019	1874.517257742703	2
0	8022	1874.906954908393	3
0	8025	1875.682160915564	2
0	8033	1877.224582021664	1
0	8040	1877.608011213801	2
0	8041	1877.97094175741	1
0	8047	1879.849011915431	0
0	8074	1890.616440180188	1
0	8076	1891.151820802416	2
0	8077	1891.2060005399	1
0	8085	1892.523149222376	0
0	8125	1898.104471891715	1
0	8128	1899.57005119679	0
0	8151	1907.870333307528	1
0	8152	1908.38578374987	0
0	8158	1908.390618639399	1
0	8163	1910.094064249532	2
0	8164	1910.748078073316	1
0	8169	1911.497172906621	0
0	8197	1920.669491394872	1
0	8200	1921.030274204114	0
0	8213	1922.747309270515	1
0	8214	1922.772518048577	0
0	8235	1926.254168605682	1
0	8236	1926.521019057956	0
0	8245	1927.884706964617	1
0	8246	1928.006849357321	0
0	8260	1934.449646604275	1
0	8261	1935.950634260326	0
0	8267	1936.834217421195	1
0	8270	1937.620515424502	0
0	8312	1945.742020383353	1
0	8316	1946.324987095365	2
0	8317	1947.579132423057	1
0	8322	1947.656538758134	0
0	8384	1962.953784382619	1
0	8385	1963.665817665111	0
0	8456	1989.335198422039	1
0	8457	1989.402603640272	0
0	8486	2000.828402471697	1
0	8489	2001.919996268774	2
0	8490	2001.980703815418	1
0	8495	2002.659634758119	0
0	8519	2010.853170441166	1
0	8521	2011.744318628757	2
0	8524	2012.540881534682	1
0	8530	2012.695174173301	2
0	8531	2012.709189959195	1
0	8536	2015.058747361669	0
0	8540	2015.293974539122	1
0	8546	2018.356500380127	2
0	8547	2021.079852359551	1
0	8552	2021.233279135341	0
0	8579	2025.926289771239	1
0	8582	2026.823287557664	0
0	8588	2026.846555751684	1
0	8591	2027.928571220824	2
0	8592	2028.434590493308	1
0	8598	2028.811169863085	2
0	8599	2030.083049645835	1
0	8604	2030.17444342046	0
0	8612	2034.46986422455	1
0	8614	2035.91464389505	0
0	8649	2048.219962107919	1
0	8652	2048.664685609336	2
0	8654	2048.859248852361	1
0	8661	2053.091482946084	2
0	8662	2053.668757360086	1
0	8668	2054.021010759392	0
0	8706	2059.368805680121	1
0	8708	2060.147474225532	0
0	8720	2062.17669497891	1
0	8726	2064.428256308319	2
0	8728	2066.178021521466	3
0	8731	2067.272500144876	4
0	8732	2068.186691322486	3
0	8737	2068.245636887684	2
0	8745	2069.272474024455	3
0	8747	2070.896433934838	2
0	8752	2071.080815483948	1
0	8757	2071.802732817575	0
0	8765	2074.713565537417	1
0	8766	2076.384637109649	0
0	8777	2077.100306574658	1
0	8779	2077.11027145081	2
0	8780	2077.688314847657	1
0	8788	2079.131887879293	2
0	8792	2080.370588514666	1
0	8797	2080.594864548218	0
0	8803	2080.838167439936	1
0	8804	2080.886173877497	0
0	8830	2088.454626551133	1
0	8831	2088.540398447466	0
0	8843	2089.836937258389	1
0	8845	2089.847730773171	2
0	8847	2090.821706755251	3
0	8848	2091.265552245242	2
0	8855	2092.083972598081	3
0	8859	2093.752259952927	2
0	8864	2094.821213889485	1
0	8871	2096.15857310812	0
0	8907	2102.845012776281	1
0	8908	2103.427781702095	0
0	8915	2104.544182079891	1
0	8918	2105.286795823764	0
0	8924	2105.370912117879	1
0	8926	2106.091725734372	0
0	8946	2107.256279154649	1
0	8947	2107.663008982811	0
0	8970	2118.997589162858	1
0	8972	2119.387230966484	2
0	8973	2119.593616016814	1
0	8979	2120.184858485862	0
0	9044	2137.809956240088	1
0	9046	2138.715730578903	0
0	9104	2153.839937206006	1
0	9106	2154.23082535161	2
0	9107	2154.682731348158	1
0	9116	2156.254938484501	0
0	9138	2162.262331893984	1
0	9139	2164.166650326651	0
0	9150	2164.38967464948	1
0	9155	2166.146224360063	2
0	9156	2166.58766201194	1
0	9161	2166.642229682598	0
0	9178	2169.028454335332	1
0	9181	2169.665623828437	0
0	9189	2171.521140562599	1
0	9191	2172.75613419567	0
0	9246	2189.337986599418	1
0	9247	2189.361966109943	0
0	9265	2192.410568566168	1
0	9268	2194.03341874537	2
0	9269	2196.089318161621	1
0	9274	2197.083688451815	0
0	9282	2198.695855431916	1
0	9283	2198.875112048761	0
0	9305	2203.588220811359	1
0	9308	2204.255497572203	0
0	9322	2206.410731146336	1
0	9325	2207.916303753367	2
0	9326	2208.004413623575	1
0	9333	2209.096972106324	2
0	9334	2209.250878720249	1
0	9340	2209.441043573769	2
0	9342	2209.604703821636	3
0	9343	2209.683468118337	2
0	9347	2212.105214405062	3
0	9352	2214.23779996784	2
0	9357	2214.807277237896	1
0	9364	2217.867849241174	0
0	9467	2245.04409003778	1
0	9468	2246.236646581866	0
0	9553	2264.440186050773	1
0	9554	2265.640016418432	0
0	9577	2270.041258324566	1
0	9583	2276.245684354666	2
0	9585	2276.817144498808	3
0	9586	2277.645481018016	2
0	9591	2278.430519924332	1
0	9597	2278.565181655092	2
0	9600	2279.267468071842	3
0	9602	2279.992558929935	4
0	9604	2281.115042209926	3
0	9609	2282.191558253925	2
0	9614	2283.964755706345	1
0	9620	2286.922977923872	2
0	9621	2287.171787823216	1
0	9625	2287.502178170474	2
0	9632	2290.703972126739	1
0	9637	2291.408328248021	0
0	9648	2295.885692547689	1
0	9649	2295.924228519066	0
0	9670	2298.72063480533	1
0	9671	2299.360290249621	0
0	9699	2306.222163083532	1
0	9700	2306.666439207707	0
0	9725	2318.373880432515	1
0	9726	2320.525426190693	0
0	9771	2331.062877740333	1
0	9773	2331.647104140366	2
0	9774	2332.530321624068	1
0	9780	2332.651241779118	2
0	9781	2333.275050288427	1
0	9786	2333.401080040948	0
0	9790	2333.87822929014	1
0	9792	2334.414856344908	2
0	9798	2339.220510674757	3
0	9802	2339.572384006407	4
0	9804	2340.52178304419	3
0	9810	2342.350055517581	2
0	9817	2342.657131060177	3
0	9820	2342.89900627717	2
0	9825	2343.456501797451	1
0	9831	2343.706463576412	2
0	9834	2344.17027545452	1
0	9838	2345.571972448212	2
0	9842	2347.334974321777	3
0	9844	2348.445409870739	2
0	9851	2349.229917940731	1
0	9856	2350.525992830346	0
0	9868	2353.867151159953	1
0	9870	2354.936472597	0
0	9890	2358.496184465076	1
0	9892	2361.690591512527	2
0	9893	2362.37368369945	1
0	9900	2362.444852765651	2
0	9901	2363.547931246883	1
0	9906	2363.760753050109	0
0	9912	2364.289682755242	1
0	9914	2364.356981356811	2
0	9918	2365.148605445983	3
0	9920	2365.311920054989	4
0	9925	2367.350587179817	3
0	9931	2368.04080618662	4
0	9938	2369.388723378482	5
0	9939	2369.770257527952	4
0	9944	2370.14337280659	3
0	9950	2370.146652882202	4
0	9951	2370.542468694364	3
0	9958	2372.729721323089	2
0	9964	2374.038885550432	3
0	9968	2376.813620711606	2
0	9974	2377.136903164043	3
0	9975	2377.583014213564	2
0	9981	2378.390205794217	3
0	9982	2378.561969294567	2
0	9986	2379.20180818015	3
0	9989	2379.917602012464	2
0	9994	2381.534781629892	1
0	9998	2382.044521153317	2
0	10001	2384.056204108021	1
0	10005	2385.449983783831	2
0	10007	2385.880730302274	3
0	10011	2387.952271658109	4
0	10012	2388.580620755496	3
0	10018	2389.964932141093	4
0	10021	2391.255107767322	3
0	10025	2391.830553067418	4
0	10028	2392.725624121158	3
0	10037	2395.779526778982	2
0	10042	2395.969849563882	1
0	10047	2396.556362786445	0
0	10051	2396.997662574862	1
0	10054	2398.842586891619	0
0	10077	2405.118004063855	1
0	10078	2405.294202729701	0
0	10084	2406.162414678533	1
0	10086	2407.651698966726	2
0	10090	2409.183469554321	1
0	10096	2410.647955071025	0
0	10122	2422.852000583955	1
0	10126	2425.466843837357	2
0	10127	2425.62391079622	1
0	10136	2426.794028541563	0
0	10165	2436.606580196559	1
0	10168	2437.243562786488	0
0	10197	2442.797050324255	1
0	10200	2445.251925119824	0
0	10206	2445.629944116014	1
0	10209	2445.874116594312	2
0	10211	2447.048561217645	1
0	10216	2447.7728853964	0
0	10224	2450.828146312842	1
0	10226	2450.915808987711	2
0	10228	2451.910710651322	3
0	10230	2453.707077115917	4
0	10232	2454.419733447362	5
0	10234	2455.177245688848	6
0	10235	2456.236211393646	5
0	10241	2456.611789620641	6
0	10247	2458.593757205735	7
0	10248	2460.59478532453	6
0	10254	2460.725805887112	5
0	10262	2461.374390637723	6
0	10264	2461.550687743561	5
0	10270	2461.89186329364	4
0	10276	2462.598602472006	3
0	10281	2463.445819018358	2
0	10287	2465.2859716143	1
0	10296	2466.835095434879	0
0	10309	2472.090853188591	1
0	10313	2472.778588457866	2
0	10317	2473.164325020892	3
0	10318	2473.690524415829	2
0	10324	2474.454466612056	1
0	10329	2474.539196986289	0
0	10335	2474.546170060627	1
0	10340	2475.334984265129	2
0	10342	2476.38722571752	3
0	10343	2476.612667329796	2
0	10354	2478.298982509226	3
0	10355	2478.321308379157	2
0	10361	2479.339657697411	3
0	10363	2482.507209077011	2
0	10373	2483.288025764677	1
0	10378	2483.976658031416	0
0	10382	2484.505057581818	1
0	10385	2485.118674007533	0
0	10391	2486.992581069446	1
0	10395	2488.434921910772	0
0	10418	2490.356521168292	1
0	10426	2491.675003882585	0
0	10443	2497.386259349173	1
0	10445	2498.595127491886	2
0	10447	2499.619290655523	3
0	10448	2500.471121215357	2
0	10455	2501.233566490977	3
0	10460	2505.164383082865	2
0	10466	2505.519276308493	3
0	10467	2505.614992995406	2
0	10473	2506.098258116073	3
0	10478	2506.923751364921	2
0	10483	2509.646212574899	1
0	10488	2510.086347762862	0
0	10508	2512.345896671253	1
0	10509	2512.687771236716	0
0	10520	2519.79535227171	1
0	10530	2521.830864911015	2
0	10534	2523.580130456623	3
0	10536	2524.127247985241	4
0	10538	2525.956735432965	5
0	10540	2526.284430081884	6
0	10543	2526.596549251048	5
0	10550	2527.822034534226	6
0	10551	2528.299394145439	5
0	10556	2528.495484433937	4
0	10561	2528.837695920582	3
0	10566	2530.980485727474	2
0	10570	2531.435163803312	3
0	10573	2531.798110678453	2
0	10579	2536.46159863778	1
0	10584	2536.5805481793	0
0	10590	2538.45025897722	1
0	10594	2540.037155393862	2
0	10597	2540.465832212499	1
0	10601	2541.834009997527	2
0	10603	2542.455342452013	3
0	10610	2545.402206678912	2
0	10615	2545.509396197156	1
0	10623	2547.114200894301	0
0	10680	2560.931347362397	1
0	10681	2562.25161946122	0
0	10693	2565.43923225396	1
0	10695	2565.8344625674	2
0	10696	2567.294362060779	1
0	10702	2568.039976898978	2
0	10704	2568.653243577066	1
0	10710	2568.679669931001	2
0	10711	2568.907263026197	1
0	10716	2569.073351967413	0
0	10720	2569.092834835056	1
0	10726	2571.536434735246	0
0	10749	2576.50744009143	1
0	10751	2576.847399446861	2
0	10753	2577.307482978838	3
0	10754	2577.655206791922	2
0	10759	2577.982423168665	1
0	10764	2579.110429399386	0
0	10768	2580.610208246795	1
0	10778	2583.12149347941	2
0	10779	2584.579850008912	1
0	10786	2585.623467258177	2
0	10787	2585.725382505217	1
0	10792	2586.080256544026	0
0	10803	2589.93821844674	1
0	10807	2591.563316182785	2
0	10809	2592.506657638524	1
0	10816	2594.325352308539	2
0	10817	2594.570459447886	1
0	10822	2594.60221228071	0
0	10842	2597.808253162844	1
0	10844	2598.545967192465	2
0	10849	2599.38880630584	3
0	10856	2604.026343683667	2
0	10861	2605.451009653131	1
0	10866	2605.837443529424	0
0	10874	2607.657728843044	1
0	10875	2607.717349694405	0
0	10881	2608.050317425069	1
0	10882	2608.163672730204	0
0	10888	2608.633030537111	1
0	10891	2609.553621035348	0
0	10925	2617.405166902295	1
0	10932	2618.291519066345	0
0	10980	2632.502572482721	1
0	10982	2633.596599155835	2
0	10986	2635.2485411009	1
0	10992	2637.277680161204	2
0	10993	2637.667461228358	1
0	11001	2638.547828987396	0
0	11037	2643.46151802158	1
0	11038	2643.630639666034	0
0	11044	2644.583244202556	1
0	11046	2645.373710973282	0
0	11056	2648.382037845263	1
0	11057	2649.008289669407	0
0	11074	2650.901998468278	1
0	11075	2651.036735299866	0
0	11090	2654.33799143662	1
0	11092	2654.661581278745	2
0	11095	2656.072521147721	1
0	11101	2656.228630561189	2
0	11102	2656.352317003347	1
0	11111	2657.944929489505	0
0	11127	2658.915356480139	1
0	11130	2661.230137792816	0
0	11159	2665.454624338089	1
0	11161	2666.485473804161	0
0	11176	2673.435550785924	1
0	11177	2674.561729687769	0
0	11234	2691.137953168877	1
0	11238	2692.47956808255	2
0	11243	2695.335340424567	1
0	11248	2696.371067393954	0
0	11254	2696.710370522628	1
0	11257	2697.760751165229	0
0	11306	2709.842390791217	1
0	11308	2711.028129082975	0
0	11344	2718.283564204889	1
0	11345	2718.475583869452	0
0	11369	2725.123559873577	1
0	11376	2727.956708536877	0
0	11396	2731.760595501191	1
0	11399	2733.760625747228	0
0	11407	2734.053729618836	1
0	11408	2734.433152251296	0
0	11414	2734.986282155086	1
0	11419	2735.421888468484	2
0	11422	2736.874852825561	1
0	11431	2737.936561306183	2
0	11434	2741.174879783324	3
0	11436	2741.720584217948	4
0	11437	2741.763254313408	3
0	11443	2742.872456632284	2
0	11448	2743.53793677585	1
0	11454	2744.134254712148	0
0	11460	2744.954218177594	1
0	11463	2745.213486592776	0
0	11467	2745.496305033739	1
0	11469	2746.199914836836	2
0	11471	2747.063131595378	3
0	11477	2747.637352923082	2
0	11482	2748.483467433831	1
0	11487	2749.287778305524	0
0	11491	2750.641607823203	1
0	11494	2751.434426638015	0
0	11498	2751.547602228747	1
0	11502	2753.823290077005	2
0	11506	2755.555251450987	1
0	11512	2757.657458489821	0
0	11540	2760.208294556654	1
0	11543	2761.406890676119	0
0	11551	2762.917933798533	1
0	11552	2763.392277930805	0
0	11565	2766.748116679206	1
0	11566	2768.780557805475	0
0	11572	2769.14609833536	1
0	11574	2770.131503261457	0
0	11580	2770.260206360412	1
0	11584	2772.245769365256	0
0	11618	2779.812708345885	1
0	11619	2780.546815602548	0
0	11638	2787.325697320127	1
0	11639	2787.335040884636	0
0	11651	2789.436729695956	1
0	11652	2790.743596752312	0
0	11664	2792.638888045428	1
0	11667	2793.218838997309	0
0	11687	2801.008282328341	1
0	11690	2806.311872756481	0
0	11705	2806.910115588577	1
0	11706	2807.652180839535	0
0	11766	2830.546770469192	1
0	11769	2832.893008071041	0
0	11784	2833.828405365052	1
0	11786	2834.810588792542	2
0	11789	2836.106294167648	1
0	11794	2836.484496382662	0
0	11800	2836.691251934322	1
0	11804	2841.628345802345	0
0	11821	2847.103836255663	1
0	11822	2847.168547221207	0
0	11828	2847.282744687832	1
0	11830	2847.290033104617	2
0	11832	2849.243959230531	1
0	11838	2851.436037681273	0
0	11859	2870.177923348001	1
0	11861	2870.363395543031	0
0	11876	2872.469241276924	1
0	11879	2875.579012479769	0
0	11891	2879.694333544977	1
0	11893	2879.898310097505	2
0	11894	2880.447103421632	1
0	11900	2880.793969506042	2
0	11902	2882.234893968542	3
0	11906	2883.10164536687	4
0	11910	2884.561494656626	5
0	11914	2886.001941699109	4
0	11920	2886.355293372826	3
0	11925	2886.569430728364	2
0	11930	2887.829596743923	1
0	11934	2887.940581551359	2
0	11939	2889.620865573829	3
0	11940	2889.925769719012	2
0	11946	2890.44365151672	3
0	11947	2890.447633603629	2
0	11954	2892.594342382783	1
0	11960	2894.704468034526	0
0	11976	2901.489829105562	1
0	11977	2905.061794548819	0
0	11983	2905.664002039915	1
0	11985	2906.452482074793	0
0	11998	2909.601161748058	1
0	12000	2910.14643043788	2
0	12001	2912.177319489085	1
0	12008	2912.494192773718	2
0	12011	2914.943752856388	1
0	12018	2915.197698072699	2
0	12019	2915.242114903936	1
0	12025	2915.563842385067	0
0	12038	2918.237022165466	1
0	12039	2918.299507008215	0
0	12045	2919.123733038692	1
0	12046	2919.175075439271	0
0	12064	2921.918657180885	1
0	12065	2921.942845187798	0
0	12076	2922.309295377138	1
0	12078	2922.345770689095	2
0	12083	2925.973389800407	1
0	12092	2926.270686982422	2
0	12093	2926.476946369342	1
0	12100	2927.244989692666	2
0	12102	2927.832368261129	1
0	12107	2928.215047567339	0
0	12122	2929.983947283928	1
0	12123	2930.177907432348	0
0	12141	2934.131174016364	1
0	12143	2935.570861025386	0
0	12155	2938.059095311426	1
0	12156	2940.443877344133	0
0	12162	2940.489644923385	1
0	12167	2940.838870608158	2
0	12168	2940.865147856859	1
0	12174	2941.394081582481	0
0	12190	2944.199135153901	1
0	12197	2946.216545306454	2
0	12198	2947.430655779341	1
0	12204	2948.622046128845	2
0	12205	2948.861104469754	1
0	12213	2951.219453174756	2
0	12214	2951.722853909387	1
0	12219	2951.737650415004	0
0	12230	2953.012836350389	1
0	12232	2953.100208282138	0
0	12243	2955.328798486039	1
0	12247	2955.922537062362	2
0	12248	2957.184623050033	1
0	12257	2959.549216509205	0
0	12263	2959.599546771005	1
0	12267	2962.061126405893	0
0	12274	2962.843714283025	1
0	12275	2962.856927310165	0
0	12284	2964.410370312603	1
0	12288	2965.354980206351	2
0	12296	2969.170824379413	3
0	12300	2970.293114080019	4
0	12302	2970.887747984318	5
0	12304	2972.133474831846	6
0	12306	2973.016402731049	7
0	12307	2973.803701837476	6
0	12312	2974.150617232812	5
0	12320	2976.448001934176	4
0	12325	2976.587927623143	3
0	12332	2980.186038899384	2
0	12338	2980.630713114097	1
0	12346	2982.045220147454	0
0	12369	2989.111189607027	1
0	12372	2990.159864858164	0
0	12400	2997.329725121109	1
0	12401	2997.656266347742	0
0	12413	3000.981390408358	1
0	12414	3003.043200086062	0
0	12427	3004.364178911571	1
0	12429	3004.777635499854	0
0	12441	3005.753136590094	1
0	12445	3009.252548360684	0
0	12451	3009.49715030025	1
0	12452	3009.994461791493	0
0	12469	3012.893554558753	1
0	12473	3013.772765770758	2
0	12477	3015.45687767443	1
0	12483	3016.073359263461	0
0	12510	3022.92165335608	1
0	12511	3023.434370029683	0
0	12534	3029.209744177799	1
0	12535	3030.203920250657	0
0	12555	3034.29034865943	1
0	12557	3035.494812855913	2
0	12559	3035.587691986034	3
0	12562	3036.425744209071	2
0	12568	3036.495156058079	3
0	12569	3036.65751377491	2
0	12575	3038.290672227428	1
0	12580	3039.065070486381	0
0	12590	3041.531388372686	1
0	12591	3041.69349030549	0
0	12635	3050.317664202238	1
0	12636	3050.934009614105	0
0	12658	3054.499261548208	1
0	12670	3056.131685344616	0
0	12677	3056.929631363509	1
0	12680	3060.510061649006	0
0	12697	3064.721947163183	1
0	12699	3064.823223176243	2
0	12700	3065.156717788998	1
0	12705	3067.130809309657	0
0	12711	3068.33551771975	1
0	12712	3068.460118079248	0
0	12716	3068.66717647099	1
0	12718	3069.482054563199	2
0	12722	3073.618152113394	1
0	12729	3073.982032119988	2
0	12731	3074.171068085286	1
0	12736	3074.640804615302	0
0	12763	3080.095840807719	1
0	12766	3081.011795683576	0
0	12775	3081.618106755419	1
0	12777	3081.821834715175	2
0	12782	3083.962771825794	3
0	12787	3085.569048694347	2
0	12792	3085.857336437496	1
0	12797	3085.967764354919	0
0	12804	3088.377817444746	1
0	12805	3089.511487940185	0
0	12831	3092.571216227621	1
0	12833	3093.530934711211	0
0	12839	3093.784207937835	1
0	12840	3094.07299200318	0
0	12844	3094.298923712111	1
0	12850	3096.688936896859	0
0	12859	3098.399579201228	1
0	12860	3098.60435912616	0
0	12919	3117.724250287966	1
0	12921	3118.472752963392	2
0	12924	3119.319822542628	1
0	12930	3120.072012157538	0
0	12958	3125.45900953809	1
0	12962	3125.837324856819	2
0	12963	3126.102982245642	1
0	12968	3126.392212997615	0
0	13040	3147.151786070462	1
0	13041	3147.352615742766	0
0	13047	3147.356089881727	1
0	13050	3148.306020313307	2
0	13051	3148.882813226786	1
0	13056	3149.225387000571	0
0	13062	3150.624571878534	1
0	13067	3153.323681600303	0
0	13092	3155.84094495225	1
0	13093	3156.460686203821	0
0	13104	3158.589860811797	1
0	13109	3159.371392089343	0
0	13120	3164.844149075232	1
0	13125	3167.296854185476	0
0	13134	3168.151825250055	1
0	13138	3170.884419395316	0
0	13151	3173.782381783416	1
0	13154	3174.764785984254	0
0	13164	3176.776754754482	1
0	13166	3176.938421656996	2
0	13167	3178.209771569906	1
0	13172	3178.225839928587	0
0	13178	3178.250503866247	1
0	13185	3180.205015281106	0
0	13205	3181.794902646866	1
0	13207	3181.897244134718	0
0	13216	3182.716870793672	1
0	13218	3183.933515654139	2
0	13220	3184.169606211635	3
0	13223	3185.26882571231	2
0	13229	3185.497383749127	3
0	13230	3185.668426826807	2
0	13236	3189.01531073832	1
0	13242	3190.94636766836	0
0	13248	3190.969352148201	1
0	13252	3192.350083643596	2
0	13253	3192.730982689839	1
0	13258	3193.335748702327	0
0	13264	3194.388911952047	1
0	13267	3196.736622132585	0
0	13273	3197.662879557586	1
0	13275	3199.733612605029	0
0	13287	3203.56281997895	1
0	13288	3203.588970289961	0
0	13301	3207.490173036763	1
0	13303	3208.461024190694	2
0	13305	3208.943058690858	3
0	13306	3209.489214613222	2
0	13311	3210.006929129921	1
0	13315	3210.906219364379	2
0	13318	3211.20811064295	1
0	13323	3213.169853057648	0
0	13334	3214.858770687911	1
0	13335	3215.214513545291	0
0	13370	3220.315841558411	1
0	13373	3221.696426068028	0
0	13382	3222.199016842226	1
0	13385	3222.89621624067	0
0	13397	3224.374836826993	1
0	13405	3226.501734155073	2
0	13406	3226.760622702233	1
0	13412	3227.750754017595	0
0	13418	3228.153305491691	1
0	13419	3228.37623506445	0
0	13430	3228.482147802397	1
0	13431	3229.877952781758	0
0	13444	3231.963761771904	1
0	13449	3234.788917600401	0
0	13458	3235.835825194748	1
0	13459	3236.202745715922	0
0	13477	3237.553855002011	1
0	13478	3238.424971694365	0
0	13489	3241.10913397621	1
0	13492	3241.649986426117	2
0	13493	3241.958162597861	1
0	13498	3241.976359619316	0
0	13537	3251.010534297772	1
0	13542	3253.011084072206	0
0	13576	3257.18992470857	1
0	13577	3257.299560542463	0
0	13581	3257.349017373192	1
0	13583	3257.44661476727	2
0	13586	3257.710669871906	1
0	13591	3258.525051882343	0
0	13595	3258.609370803008	1
0	13598	3261.564936321607	0
0	13628	3268.446560448015	1
0	13630	3268.675014920497	2
0	13631	3269.605981985746	1
0	13637	3270.588382427573	0
0	13652	3274.621595144785	1
0	13654	3274.717092555214	2
0	13655	3275.763145160062	1
0	13664	3276.473877574535	0
0	13704	3287.934034774594	1
0	13706	3288.77309433166	2
0	13708	3289.118435080419	3
0	13709	3290.604766651791	2
0	13714	3290.705851541462	1
0	13721	3291.298159171651	2
0	13723	3291.389730163873	3
0	13724	3291.534954055786	2
0	13732	3292.88424296621	3
0	13733	3293.570872097233	2
0	13739	3294.169934397912	3
0	13746	3294.947580783715	2
0	13754	3297.19168315282	3
0	13755	3297.355882894658	2
0	13761	3298.394543289798	1
0	13766	3299.19196419613	0
0	13783	3300.300056958821	1
0	13785	3301.65158737151	0
0	13811	3311.434571777403	1
0	13813	3312.904528043752	0
0	13846	3316.042489566215	1
0	13848	3316.386176330894	2
0	13849	3317.570454405693	1
0	13855	3318.184159178475	0
0	13865	3321.950283139417	1
0	13869	3325.059705229293	2
0	13871	3325.631437336102	3
0	13873	3326.24821263919	4
0	13874	3326.296419147974	3
0	13880	3326.491579835471	4
0	13883	3326.838617871661	5
0	13884	3326.866160600535	4
0	13890	3330.987633821094	3
0	13895	3331.429542968558	2
0	13900	3331.590510942545	1
0	13912	3336.963125391594	0
0	13919	3337.350693588908	1
0	13921	3337.404173665943	2
0	13923	3338.576259649111	3
0	13924	3338.654110665941	2
0	13931	3340.575406077664	1
0	13936	3341.346012960945	0
0	13940	3342.026007303544	1
0	13942	3342.888726565331	2
0	13944	3344.448050113962	3
0	13949	3345.347158361867	4
0	13951	3345.8434774369	5
0	13954	3346.671858264688	6
0	13956	3347.119532865627	7
0	13957	3347.405511845293	6
0	13962	3347.560599903756	5
0	13969	3348.11676225619	6
0	13970	3348.335380552384	5
0	13975	3348.906548014668	4
0	13983	3350.194994232765	5
0	13986	3352.040551358842	4
0	13992	3354.037162400784	5
0	13993	3354.06993371516	4
0	14002	3357.866019420345	3
0	14007	3358.380041525226	2
0	14013	3360.014787683284	1
0	14019	3360.094160301944	0
0	14039	3363.853200793801	1
0	14043	3365.208064562491	2
0	14045	3365.360898752798	1
0	14052	3367.684388100315	0
0	14079	3371.195048045045	1
0	14082	3372.286257740175	0
0	14108	3387.619853615292	1
0	14111	3389.462258729443	2
0	14112	3389.831737640655	1
0	14117	3390.053446182496	0
0	14130	3391.336756639627	1
0	14132	3392.126148646943	0
0	14139	3392.972937374735	1
0	14140	3393.541643134929	0
0	14167	3397.107517276976	1
0	14169	3397.963194892178	0
0	14209	3411.899896683384	1
0	14212	3415.269928773551	0
0	14218	3415.346866672547	1
0	14219	3415.573917153352	0
0	14226	3416.481081662441	1
0	14228	3418.813168169945	0
0	14242	3421.470623949259	1
0	14243	3421.782188893984	0
0	14275	3430.876361228666	1
0	14277	3433.646179937138	0
0	14292	3437.799119919265	1
0	14293	3438.778167323423	0
0	14307	3442.353002239121	1
0	14308	3442.456757531661	0
0	14329	3447.885715020133	1
0	14332	3449.942572076768	0
0	14338	3450.340665147948	1
0	14339	3450.446894244931	0
0	14353	3452.110802911203	1
0	14356	3452.640762791357	0
0	14371	3453.173910565573	1
0	14372	3453.273595620285	0
0	14446	3475.222374805258	1
0	14447	3475.64766484824	0
0	14508	3486.182919797843	1
0	14513	3489.032117578135	0
0	14534	3494.509144466852	1
0	14539	3496.050841468113	0
0	14548	3498.480308779682	1
0	14551	3500.23207339004	0
0	14642	3531.170107616267	1
0	14646	3532.207189589888	2
0	14648	3532.491392529015	3
0	14654	3533.947248478694	2
0	14660	3534.45862321863	1
0	14666	3535.95068001985	0
0	14672	3536.606467084914	1
0	14673	3536.638155235311	0
0	14679	3537.41267738872	1
0	14680	3537.447123094228	0
0	14691	3540.1063340442	1
0	14693	3540.195096616813	2
0	14694	3540.478707821157	1
0	14701	3542.171420327981	0
0	14705	3545.806874054339	1
0	14709	3547.838227542198	0
0	14746	3556.271537809204	1
0	14749	3556.928865076098	2
0	14750	3557.413997311818	1
0	14758	3559.258194881362	0
0	14765	3561.46931852698	1
0	14766	3561.582457464289	0
0	14791	3566.359489155454	1
0	14792	3566.411801871383	0
0	14798	3566.573941947011	1
0	14800	3568.392217412355	2
0	14805	3570.046320413671	3
0	14806	3572.616845140706	2
0	14815	3573.538483015295	3
0	14817	3573.978410057703	4
0	14819	3574.33950184189	5
0	14821	3574.454860972562	6
0	14823	3574.692305183044	7
0	14825	3574.903454519534	8
0	14826	3575.551884252005	7
0	14832	3576.739819893011	8
0	14833	3577.089921597422	7
0	14838	3577.762048756444	6
0	14843	3577.849342631707	5
0	14850	3580.483776969171	4
0	14854	3580.598343881669	5
0	14856	3582.926179291449	6
0	14860	3583.213953150011	7
0	14861	3583.454444395664	6
0	14865	3583.842728873078	7
0	14870	3585.53215189985	6
0	14876	3587.611275781439	7
0	14879	3592.024382362464	6
0	14884	3593.185573993773	5
0	14889	3595.07373207314	4
0	14893	3595.586050467441	5
0	14897	3596.949327348463	6
0	14902	3598.819328189517	7
0	14904	3599.445638150429	6
0	14910	3600.131116950399	7
0	14913	3600.922785646405	6
0	14918	3601.23577579138	5
0	14923	3601.847173156891	4
0	14927	3602.500285114671	5
0	14935	3607.359365343243	4
0	14940	3607.385621492175	3
0	14944	3608.593631677221	4
0	14946	3610.576421085835	5
0	14955	3614.692556061572	6
0	14957	3616.315197152378	5
0	14963	3617.633271525658	4
0	14968	3617.933612778287	3
0	14974	3618.288019833996	4
0	14975	3618.375596733386	3
0	14980	3622.482690917245	2
0	14986	3623.073276065233	1
0	14993	3623.955450828685	2
0	14995	3624.060004548343	3
0	15000	3626.138548981948	4
0	15001	3626.321198518103	3
0	15007	3627.399237878077	2
0	15012	3628.015395363785	1
0	15021	3629.290942443112	0
0	15033	3629.875517257584	1
0	15034	3633.21424256035	0
0	15045	3633.602272979632	1
0	15049	3634.619150078273	0
0	15061	3638.007736235562	1
0	15063	3639.918677908634	2
0	15064	3640.168234352971	1
0	15070	3640.346554672855	0
0	15077	3641.385187213407	1
0	15079	3642.492433604627	2
0	15080	3643.067883957357	1
0	15085	3643.326119638446	0
0	15094	3645.637869230733	1
0	15096	3647.444969716441	0
0	15102	3647.608271864354	1
0	15104	3648.632185991791	2
0	15106	3648.771154082026	1
0	15112	3650.256031331735	0
0	15129	3652.705359366586	1
0	15131	3653.583507253864	2
0	15134	3655.279050937396	1
0	15139	3655.323659655364	0
0	15145	3655.954209078984	1
0	15146	3656.834346656206	0
0	15152	3658.628923425413	1
0	15156	3659.450604196772	2
0	15160	3661.507208409087	1
0	15167	3662.199831131342	0
0	15178	3663.283109003594	1
0	15179	3663.576128350389	0
0	15186	3663.791280361528	1
0	15187	3663.826350686368	0
0	15205	3669.435973522062	1
0	15208	3672.377194901679	0
0	15234	3678.291251824219	1
0	15235	3678.88932348064	0
0	15244	3680.074131536851	1
0	15248	3680.764709661235	2
0	15251	3682.921661539884	1
0	15258	3683.15884425075	2
0	15259	3683.576204958165	1
0	15266	3684.304471024042	0
0	15289	3686.530906000278	1
0	15293	3689.893967894063	2
0	15297	3691.67803084669	3
0	15300	3692.526960114317	2
0	15305	3692.533165086307	1
0	15310	3693.180020858199	0
0	15316	3695.218507865197	1
0	15320	3697.301630953507	0
0	15324	3698.011869237501	1
0	15326	3698.239649700408	2
0	15330	3700.475467879215	1
0	15335	3701.922974831874	0
0	15339	3702.648585432567	1
0	15342	3703.591754289676	0
0	15346	3706.244994046491	1
0	15348	3706.311496749465	2
0	15352	3707.680496781516	3
0	15353	3707.696731777884	2
0	15358	3708.148815628311	1
0	15365	3710.994803022506	0
0	15376	3712.786280497172	1
0	15378	3712.983634205568	0
0	15394	3715.436244039287	1
0	15397	3715.957783370455	0
0	15417	3725.692971169717	1
0	15419	3727.2068325714	2
0	15425	3732.670365300036	1
0	15430	3732.855157246167	0
0	15436	3733.00389203383	1
0	15439	3733.683111781491	2
0	15440	3733.852800455464	1
0	15446	3734.163018724872	0
0	15464	3737.045750725112	1
0	15468	3737.442933641197	2
0	15470	3737.670396084246	3
0	15472	3739.288333363381	4
0	15475	3739.918441221504	3
0	15483	3740.969092609086	2
0	15489	3741.154835007666	3
0	15491	3741.60615142918	4
0	15492	3741.620012564649	3
0	15497	3741.6286827033	2
0	15505	3742.428403598507	1
0	15510	3742.540910263917	0
0	15519	3744.758637306996	1
0	15521	3744.860056470981	2
0	15523	3747.495179309616	3
0	15525	3747.691472972244	4
0	15527	3747.833913975389	5
0	15531	3750.200729082783	4
0	15536	3750.902665899972	3
0	15541	3751.445023417274	2
0	15546	3752.442480805384	1
0	15552	3754.778825512528	2
0	15560	3755.878456544538	3
0	15562	3755.884240964104	4
0	15565	3756.372154698719	3
0	15571	3756.732304023752	4
0	15572	3756.810582144897	3
0	15578	3756.872364385732	4
0	15580	3757.209557969672	5
0	15581	3757.706887094449	4
0	15585	3760.146975191043	5
0	15587	3760.589594016293	6
0	15593	3763.557887722568	7
0	15594	3763.677704680995	6
0	15604	3766.095212878322	7
0	15605	3766.586227218772	6
0	15609	3767.013507291766	7
0	15611	3767.391178672788	8
0	15613	3767.696095283578	9
0	15616	3768.785647460221	8
0	15622	3771.196731913342	9
0	15623	3771.9987604168	8
0	15630	3777.538875104439	7
0	15636	3779.472905053127	6
0	15643	3780.12582431442	5
0	15650	3780.468108752976	6
0	15654	3781.931804275139	5
0	15659	3781.983380467351	4
0	15665	3782.677856764231	3
0	15670	3782.762612328157	2
0	15678	3783.598060559136	1
0	15684	3784.188443754189	0
0	15707	3789.00438929362	1
0	15710	3789.492811740645	0
0	15724	3793.397132644734	1
0	15726	3793.780995699749	2
0	15728	3793.843774481312	3
0	15731	3795.068968479827	2
0	15736	3795.081577138612	1
0	15743	3797.079522304694	0
0	15783	3809.235719953758	1
0	15787	3810.056058841383	2
0	15788	3810.580423427809	1
0	15794	3811.6131713813	0
0	15821	3819.173811858069	1
0	15823	3819.326521075295	2
0	15824	3820.406596522631	1
0	15829	3820.57072476968	0
0	15850	3824.803761538122	1
0	15854	3825.368645887022	2
0	15855	3825.470200848466	1
0	15860	3826.43800696048	0
0	15887	3835.069439274123	1
0	15888	3837.156244437292	0
0	15899	3838.431308458809	1
0	15902	3839.818526462193	0
0	15908	3840.320521838141	1
0	15909	3840.816385623815	0
0	15928	3842.302648808258	1
0	15933	3843.795578620997	2
0	15940	3846.527601363431	1
0	15946	3846.534474662969	2
0	15949	3847.912618883369	1
0	15954	3848.112969293846	0
0	16010	3858.851356122183	1
0	16011	3859.736217167867	0
0	16035	3864.775270273874	1
0	16036	3865.523051679691	0
0	16074	3877.316143138218	1
0	16075	3877.532325732274	0
0	16089	3880.523741936386	1
0	16090	3880.854764582622	0
0	16148	3908.837405766087	1
0	16152	3910.369144087753	2
0	16154	3910.712776242102	3
0	16155	3911.336737369544	2
0	16164	3913.504587919806	3
0	16168	3913.953369065763	4
0	16169	3914.551778696739	3
0	16174	3914.882404934543	2
0	16179	3915.125391320391	1
0	16191	3919.235222455248	2
0	16192	3919.412718435335	1
0	16197	3919.433613741136	0
0	16204	3920.518861686908	1
0	16206	3920.893873187687	2
0	16208	3922.240195089036	1
0	16213	3922.247601027685	0
0	16224	3922.660105445386	1
0	16225	3922.766994846365	0
0	16242	3925.105780110355	1
0	16245	3925.480537163206	2
0	16248	3927.067063146133	1
0	16257	3929.241146375759	0
0	16263	3930.325433763044	1
0	16267	3933.836967901376	0
0	16300	3938.072244101522	1
0	16301	3938.643682438172	0
0	16307	3939.943228953163	1
0	16313	3941.456522846138	2
0	16314	3941.793697391852	1
0	16319	3942.436188682347	0
0	16339	3944.483802387191	1
0	16341	3946.44274931556	2
0	16345	3950.102090174863	3
0	16346	3950.312204876609	2
0	16351	3950.410461883883	1
0	16356	3951.354381927405	0
0	16367	3952.908410750283	1
0	16373	3955.461077189183	2
0	16375	3956.482775953555	1
0	16380	3956.593087133886	0
0	16392	3959.145288825064	1
0	16397	3963.025569847379	0
0	16448	3976.800386901329	1
0	16450	3977.729536294686	2
0	16455	3980.638625061941	1
0	16461	3982.950199441652	0
0	16472	3989.209483213941	1
0	16473	3990.273249025185	0
0	16493	3994.629675713842	1
0	16494	3994.916627989453	0
0	16498	3995.293954799975	1
0	16502	3996.882029488081	2
0	16506	4000.092529992311	1
0	16512	4002.109891243679	0
0	16532	4007.550421404839	1
0	16534	4008.142710409661	2
0	16535	4008.304243839117	1
0	16540	4009.523830791457	0
0	16546	4010.082869546236	1
0	16547	4010.573763766135	0
0	16551	4012.280647206528	1
0	16553	4012.354933878303	2
0	16555	4012.67143720932	3
0	16559	4014.803200601886	2
0	16568	4015.870625326105	1
0	16578	4018.946895308175	0
0	16584	4019.464305496502	1
0	16586	4020.11421408084	2
0	16589	4021.103711373247	1
0	16594	4021.135637416266	0
0	16601	4021.993517369092	1
0	16602	4022.11875578933	0
0	16618	4023.541566460721	1
0	16620	4024.464683352053	0
0	16631	4026.575079724856	1
0	16635	4029.288378842057	2
0	16636	4029.304472707892	1
0	16641	4029.416071294457	0
0	16709	4054.527476713993	1
0	16710	4054.671824627133	0
0	16723	4056.27055506767	1
0	16727	4056.962423721541	2
0	16728	4057.652829483781	1
0	16734	4058.412653330421	2
0	16735	4058.630842659925	1
0	16741	4059.243871476697	2
0	16742	4059.41631561259	1
0	16747	4060.421422969068	0
0	16802	4082.213354917232	1
0	16803	4082.488116646852	0
0	16833	4087.559187297404	1
0	16834	4089.082320616651	0
0	16848	4091.191032891123	1
0	16850	4091.422230376287	2
0	16856	4095.270895179364	1
0	16862	4095.813160165608	0
0	16896	4101.148244417043	1
0	16898	4101.603059258341	0
0	16976	4126.627967314855	1
0	16977	4127.939819111919	0
0	16992	4136.232020451736	1
0	16994	4137.406638925398	2
0	17000	4140.791718192954	1
0	17005	4141.011979576774	0
0	17019	4148.809791414483	1
0	17021	4149.01365758138	2
0	17025	4150.596906873211	3
0	17028	4152.499415659827	4
0	17030	4153.775836933634	5
0	17031	4154.000908384552	4
0	17037	4154.99558984034	3
0	17042	4156.122224471441	2
0	17051	4159.776613353498	1
0	17058	4162.863116309857	0
0	17080	4167.851965493493	1
0	17082	4168.151481814915	2
0	17083	4168.288647592471	1
0	17088	4168.441211204359	0
0	17100	4169.873303408326	1
0	17102	4171.085240246745	2
0	17104	4171.662489902834	3
0	17108	4172.973977319726	2
0	17113	4174.921072553886	1
0	17118	4175.342475970466	0
0	17127	4177.907651630613	1
0	17130	4179.409392204595	0
0	17150	4185.393130649722	1
0	17151	4186.846141823986	0
0	17160	4189.551736536793	1
0	17166	4192.134329338754	0
0	17188	4200.438141107657	1
0	17189	4201.507779264046	0
0	17202	4202.465751259467	1
0	17203	4202.96198991651	0
0	17226	4207.907602232451	1
0	17228	4209.606528988344	2
0	17230	4210.11782085323	3
0	17231	4210.976850779195	2
0	17239	4211.992552726494	1
0	17244	4212.697015483969	0
0	17253	4214.06203509481	1
0	17254	4214.137815330666	0
0	17260	4214.723827246974	1
0	17262	4215.263346509167	2
0	17263	4215.494106538106	1
0	17269	4215.527022840946	2
0	17273	4218.304004022921	3
0	17274	4218.833348741963	2
0	17279	4219.000884313068	1
0	17285	4220.045935643332	0
0	17293	4220.140390347394	1
0	17296	4221.368490766899	0
0	17317	4224.416899163247	1
0	17321	4229.420292337996	2
0	17322	4229.980688716221	1
0	17328	4230.18438626361	2
0	17329	4230.280935252507	1
0	17334	4231.324214308329	0
0	17505	4285.356979546182	1
0	17507	4287.524363891955	2
0	17509	4287.59431482395	3
0	17513	4288.24016819916	4
0	17516	4288.328097930248	3
0	17523	4289.157577301745	4
0	17525	4289.753551457105	3
0	17530	4290.449726240976	2
0	17535	4290.864280344006	1
0	17541	4291.50812864732	2
0	17543	4291.520597347069	3
0	17545	4291.543540340498	4
0	17546	4291.690605159901	3
0	17552	4291.864015440249	2
0	17557	4291.869285988468	1
0	17562	4292.569815285061	0
0	17566	4294.444422755824	1
0	17568	4295.035629636868	2
0	17577	4298.696787673963	3
0	17579	4301.361138180518	2
0	17584	4301.44057930183	1
0	17590	4302.065293815833	0
0	17601	4302.354209019342	1
0	17604	4303.758988102256	0
0	17611	4304.833558334767	1
0	17613	4305.857716026513	0
0	17619	4309.92591736152	1
0	17622	4310.120518026685	0
0	17637	4312.414093479051	1
0	17638	4314.09900765982	0
0	17660	4320.550295449445	1
0	17662	4320.810316490395	2
0	17669	4322.73541925309	3
0	17671	4322.960510868707	4
0	17674	4326.268606947582	3
0	17679	4326.460866012359	2
0	17686	4327.370138027224	1
0	17691	4327.693119626634	0
0	17698	4328.881243349409	1
0	17699	4329.277197441488	0
0	17715	4333.607920210964	1
0	17718	4335.919381295281	0
0	17738	4341.82326810451	1
0	17739	4342.060095138522	0
0	17745	4342.518831115907	1
0	17747	4343.004103376744	2
0	17750	4344.911848883504	1
0	17755	4345.232946054971	0
0	17759	4345.792392278368	1
0	17762	4346.097355120966	0
0	17782	4350.890049963214	1
0	17783	4350.899543286806	0
0	17787	4352.152442719104	1
0	17792	4352.860856845028	0
0	17798	4354.085381589107	1
0	17800	4354.413600003046	0
0	17814	4358.026475360608	1
0	17815	4358.030758245217	0
0	17827	4360.11838652438	1
0	17830	4360.580875928756	2
0	17832	4361.185688861243	3
0	17834	4362.154315550512	2
0	17839	4362.259518948786	1
0	17844	4362.367297395075	0
0	17848	4365.144236963828	1
0	17850	4365.162215169981	2
0	17853	4365.608159613436	1
0	17857	4365.903696258781	2
0	17859	4366.877817599322	3
0	17864	4368.236591190469	2
0	17870	4368.686634602386	1
0	17876	4368.884098891042	0
0	17912	4377.095409878687	1
0	17914	4377.43503074558	2
0	17915	4378.86644377086	1
0	17920	4378.934827995272	0
0	17931	4380.65217878096	1
0	17937	4382.750863808305	2
0	17938	4382.777137716718	1
0	17943	4384.587662342588	0
0	17947	4385.584232910818	1
0	17953	4388.958897283523	2
0	17954	4389.340652332436	1
0	17963	4391.993139294226	2
0	17964	4392.009146208952	1
0	17972	4392.620717170881	2
0	17973	4392.648405916404	1
0	17978	4394.15841762007	0
0	17982	4394.759306194548	1
0	17986	4397.175504682244	2
0	17987	4397.183863864223	1
0	17995	4402.775677473538	2
0	17998	4403.57761150493	1
0	18002	4403.880206115664	2
0	18005	4404.175604444762	1
0	18011	4406.839185721655	2
0	18013	4406.915305641762	3
0	18014	4408.265795209324	2
0	18021	4410.402364258732	1
0	18026	4410.442604560778	0
0	18032	4410.742251764747	1
0	18036	4411.547854175921	2
0	18037	4411.570120889979	1
0	18042	4412.766033716531	0
0	18058	4414.234924671835	1
0	18059	4415.925099399542	0
0	18101	4427.539905135817	1
0	18102	4428.110544476443	0
0	18143	4446.490424014557	1
0	18145	4447.655811482266	2
0	18149	4450.401815151396	3
0	18150	4451.881336974427	2
0	18158	4458.577213005021	1
0	18163	4458.662051737399	0
0	18169	4458.845065055678	1
0	18170	4458.85266370821	0
0	18174	4459.700887974042	1
0	18177	4463.400122361211	0
0	18181	4464.117529469377	1
0	18185	4464.688697391343	0
0	18208	4470.222302124626	1
0	18209	4472.317714282504	0
0	18223	4476.614304299921	1
0	18224	4477.973292148656	0
0	18237	4479.652933447338	1
0	18239	4479.765416232856	2
0	18240	4480.111473784647	1
0	18249	4481.903866147715	0
0	18257	4486.69116633807	1
0	18258	4487.034241990867	0
0	18285	4489.6006681248	1
0	18289	4490.050558127045	2
0	18294	4491.500703568353	3
0	18295	4492.315606792624	2
0	18300	4493.005091169411	1
0	18307	4494.24531131193	0
0	18348	4502.353118883132	1
0	18350	4502.553691868601	2
0	18352	4503.298917264298	1
0	18357	4505.265338624528	0
0	18381	4511.654397663329	1
0	18382	4512.167629913185	0
0	18392	4515.165895376008	1
0	18395	4515.392711981455	0
0	18401	4516.111510140377	1
0	18407	4517.843425675917	2
0	18408	4517.956986976459	1
0	18415	4518.95622075708	0
0	18425	4521.131701575153	1
0	18426	4521.351616957062	0
0	18467	4527.839318891966	1
0	18469	4527.851196173224	2
0	18474	4529.554374094205	1
0	18479	4529.813080995899	0
0	18483	4530.275868643025	1
0	18485	4530.377384006304	2
0	18487	4531.856798715381	3
0	18489	4531.972173139535	4
0	18495	4532.880343810323	5
0	18497	4533.692227368076	4
0	18503	4534.272634334645	3
0	18508	4534.429033438975	2
0	18514	4535.284091969944	3
0	18516	4535.589561802762	4
0	18519	4537.032864976385	3
0	18524	4538.23376236702	2
0	18533	4542.125217689858	1
0	18537	4544.247710930972	2
0	18542	4545.522004175409	1
0	18547	4546.452531012186	0
0	18551	4546.543141841704	1
0	18557	4549.94291075417	2
0	18562	4550.084969965699	1
0	18568	4551.112659784175	2
0	18570	4552.677280066978	3
0	18571	4553.019223647464	2
0	18575	4554.945991576506	3
0	18580	4559.926591595097	2
0	18587	4562.570006703207	3
0	18589	4562.887187066196	4
0	18590	4564.556134555836	3
0	18595	4564.587708346261	2
0	18600	4564.926051378816	1
0	18605	4565.080029239388	0
0	18616	4566.909120667621	1
0	18617	4566.967433703918	0
0	18628	4568.498591967679	1
0	18631	4571.448366015164	0
0	18642	4572.546057422465	1
0	18644	4573.908360339606	0
0	18654	4575.582043521815	1
0	18657	4576.061860241068	0
0	18663	4576.102897184417	1
0	18666	4577.201368275883	0
0	18675	4578.63691787596	1
0	18682	4581.541147975753	0
0	18686	4581.87383040469	1
0	18690	4582.827384249267	2
0	18692	4583.286937025292	1
0	18697	4583.403176635015	0
0	18729	4593.50734996408	1
0	18732	4593.933716467776	0
0	18750	4596.686860934477	1
0	18754	4602.081051458148	2
0	18756	4602.895602290119	3
0	18759	4605.109078628029	2
0	18764	4605.14251290353	1
0	18773	4606.869918125563	2
0	18778	4607.595876567581	1
0	18783	4607.698256725248	0
0	18790	4608.925124036213	1
0	18793	4609.928666075707	0
0	18805	4610.332794221927	1
0	18806	4610.653075912721	0
0	18813	4611.868725490097	1
0	18814	4613.782413749255	0
0	18832	4615.702497204421	1
0	18834	4618.407866212057	0
0	18845	4619.584799829924	1
0	18846	4619.629555092759	0
0	18881	4624.440990909129	1
0	18883	4625.478780576537	2
0	18884	4626.566604100099	1
0	18891	4627.589132481924	2
0	18892	4627.970136834066	1
0	18897	4628.69511804076	0
0	18910	4631.373070719967	1
0	18916	4632.220550904583	2
0	18917	4633.802704756749	1
0	18922	4633.893307488697	0
0	18929	4634.34985578723	1
0	18932	4634.476015536364	0
0	18951	4637.351174283469	1
0	18952	4638.075583533722	0
0	18973	4644.503826059484	1
0	18974	4647.38006265437	0
0	18980	4648.26067066095	1
0	18981	4648.335122495911	0
0	18992	4650.28466723832	1
0	18996	4650.821950089102	2
0	18998	4651.255638705834	1
0	19004	4652.484896106516	0
0	19015	4653.667128434614	1
0	19017	4654.322527062058	0
0	19024	4655.109882828751	1
0	19025	4657.080481866442	0
0	19031	4657.745156508648	1
0	19032	4659.230346216178	0
0	19038	4659.392152463015	1
0	19039	4659.570925254577	0
0	19078	4672.929638721313	1
0	19082	4673.534887313935	0
0	19103	4676.291226842179	1
0	19104	4677.80334655623	0
0	19110	4678.286915870673	1
0	19111	4678.564024516116	0
0	19118	4680.900218374838	1
0	19120	4681.776205582838	0
0	19126	4682.861474148475	1
0	19128	4685.698459087524	0
0	19212	4719.996523461963	1
0	19213	4720.117922677828	0
0	19275	4744.531392021376	1
0	19278	4745.163501462792	2
0	19279	4745.42024216025	1
0	19285	4745.446141638612	0
0	19299	4749.774294813737	1
0	19301	4750.197683112401	2
0	19302	4751.385417156741	1
0	19312	4755.714370591117	0
0	19338	4762.512365424669	1
0	19343	4763.166674727878	0
0	19350	4763.815459858716	1
0	19351	4764.841203295355	0
0	19362	4764.972084398282	1
0	19364	4765.396126577131	0
0	19375	4766.959409391677	1
0	19377	4767.650311226464	0
0	19391	4768.503325858905	1
0	19393	4768.740129992205	0
0	19399	4769.355407236377	1
0	19400	4769.918077560279	0
0	19408	4771.113186483283	1
0	19409	4773.737752457896	0
0	19426	4775.378641159347	1
0	19429	4775.741839034801	0
0	19512	4810.052428066231	1
0	19518	4811.669752563218	0
0	19550	4818.74427861246	1
0	19556	4820.179928972313	2
0	19558	4820.2866512972	3
0	19560	4822.089371118619	4
0	19563	4824.245951025584	3
0	19568	4824.548798318126	2
0	19576	4825.355122394143	1
0	19581	4825.553900886633	0
0	19596	4827.247176335292	1
0	19597	4827.526542615397	0
0	19606	4828.197638888575	1
0	19610	4829.413193988725	0
0	19625	4831.763592927802	1
0	19627	4832.047497635239	2
0	19629	4833.473882076093	3
0	19631	4834.191819869738	4
0	19634	4834.697462697345	3
0	19639	4834.829201906574	2
0	19646	4835.60258648905	3
0	19648	4835.99789682082	2
0	19654	4836.854841223623	1
0	19663	4838.521334859854	0
0	19676	4842.102994936427	1
0	19679	4843.867710059985	0
0	19701	4848.456786471145	1
0	19706	4851.216579083672	0
0	19728	4854.960493252359	1
0	19733	4858.030160510214	0
0	19747	4860.250619443562	1
0	19748	4861.96620886621	0
0	19761	4862.64774007513	1
0	19763	4864.703293392462	0
0	19792	4874.578389993628	1
0	19793	4874.968179471581	0
0	19805	4878.074559281486	1
0	19806	4879.894118644479	0
0	19823	4881.902810534915	1
0	19824	4882.098926513687	0
0	19839	4885.782649969301	1
0	19840	4885.847887886979	0
0	19844	4885.927625263917	1
0	19847	4886.809262086352	0
0	19877	4895.852036592491	1
0	19878	4895.856752050124	0
0	19914	4905.288764584293	1
0	19919	4908.465168506865	0
0	19989	4926.377084705474	1
0	19991	4926.542016514662	2
0	19992	4927.075631927202	1
0	19998	4927.489736760246	2
0	20000	4927.704052823915	3
0	20001	4929.680301780753	2
0	20006	4930.808919397575	1
0	20011	4932.316943270855	0
0	20025	4934.315615726982	1
0	20028	4935.395116677504	0
0	20038	4937.226182714066	1
0	20039	4937.362760041655	0
0	20056	4941.222518589412	1
0	20057	4941.84491145144	0
0	20076	4946.727797783403	1
0	20079	4948.124834708662	0
0	20104	4953.066560449197	1
0	20107	4953.890462930718	0
0	20113	4953.933028871009	1
0	20115	4954.867654285862	0
0	20133	4958.086178375686	1
0	20135	4958.11672927458	0
0	20164	4964.28090096266	1
0	20165	4965.3591847918	0
0	20217	4982.767044667742	1
0	20218	4983.207602850964	0
0	20222	4983.316379467117	1
0	20225	4984.820864926229	0
0	20278	4994.957063332885	1
0	20279	4995.013678327423	0
0	20285	4995.60557100281	1
0	20286	4995.82546103224	0
0	20301	5000.793765783313	1
0	20302	5001.278357574515	0
0	20321	5007.674406389642	1
0	20325	5007.952524626334	2
0	20328	5008.601137920014	3
0	20330	5008.912323573806	4
0	20332	5009.913687089688	5
0	20335	5011.183362767928	6
0	20338	5012.852951839074	7
0	20340	5013.830653741938	8
0	20342	5014.021172644253	9
0	20344	5014.785305463606	10
0	20345	5015.274656931972	9
0	20350	5015.371841361325	8
0	20356	5016.107864063582	7
0	20361	5016.186721488745	6
0	20365	5016.308188784641	7
0	20369	5018.35083155188	6
0	20379	5019.95899608145	7
0	20380	5020.432276641469	6
0	20385	5021.068988371261	5
0	20391	5021.882503018607	4
0	20396	5022.481401625224	3
0	20402	5022.864580553579	4
0	20405	5023.192936930911	3
0	20412	5027.55371191298	2
0	20417	5028.134738806477	1
0	20423	5029.25700758658	0
0	20447	5030.437624179372	1
0	20449	5032.616018063477	2
0	20450	5033.574592511453	1
[...]
5	115869	28615.292993513527	4.412845638885
5	115878	28617.656945949721	4.859507551853
5	115897	28622.144701100964	4.020732928774
5	115904	28622.307050974465	2.853136901829
5	115916	28624.928129078047	3.737969885344
5	115922	28625.643677509642	3.350281709397
5	115928	28626.916481162286	2.857184812588
5	115949	28630.248125400753	0.994189352408
5	115964	28633.032874983337	3.453414822732
5	115969	28633.242112812128	2.972592294513
5	115974	28633.49583982791	1.852099276138
5	115983	28637.875420846317	5.839108674428
5	115988	28642.145394401293	8.355726601533
5	115997	28643.493209821655	7.897983731256
5	116002	28643.685734788919	1.07791284384
5	116019	28646.767198017938	2.762746310946
5	116024	28647.235185518304	0.481292938023
5	116084	28661.768400371317	0.859980750773
5	116118	28667.547925177004	2.015051434486
5	116122	28667.639970566026	1.081189922764
5	116138	28673.060058915852	3.202362811289
5	116170	28685.716887460441	0.442504884675
5	116177	28689.359604723003	0.006253710076
5	116201	28695.240974096847	4.495691910622
5	116206	28695.274890887158	2.074304090682
5	116213	28699.696910583499	4.639894795906
5	116225	28700.912479695724	0.926152659531
5	116237	28702.959886942614	1.592655904064
5	116256	28708.183236007135	0.555673086071
5	116261	28709.140507385416	1.24957262313
5	116269	28713.892200796134	0.1366699721
5	116278	28718.580125692209	1.869365442305
5	116287	28722.798747659578	2.103138222865
5	116299	28724.509903477766	1.387083340489
5	116306	28725.998569803436	2.718938231006
5	116313	28726.45924982143	3.147189559993
5	116317	28727.095344596823	0.637601348398
5	116332	28729.758702075615	0.066533053704
5	116345	28734.563617080864	2.589886968503
5	116353	28735.837508408993	2.8450313782
5	116358	28735.939984236606	1.957949519586
5	116367	28738.03211390667	2.981927727657
5	116381	28739.402471157077	0.684173470186
5	116414	28749.287382346999	3.16363484301
5	116429	28752.395357357593	1.342355649375
5	116436	28752.831023123821	1.603712928462
5	116440	28752.947088942694	0.1450921046
5	116455	28760.390120288028	2.043505255979
5	116467	28765.497358756771	1.134546533509
5	116474	28765.674962990517	0.06207629771
5	116483	28773.617367090277	0.997139599687
5	116490	28774.031767443377	0.016774631721
5	116502	28774.964478005638	0.82520231491
5	116507	28775.635264853828	0.826227607598
5	116527	28781.389848759683	3.156550279519
5	116538	28783.003106824796	3.462158367631
5	116546	28785.200051978659	3.260532219424
5	116557	28789.15500925389	7.166350845905
5	116562	28789.971177827498	2.454552042163
5	116567	28790.329280442877	1.688454484217
5	116608	28807.784574479353	3.392189021724
5	116631	28816.00996696959	7.821597582847
5	116636	28816.735966278596	6.438526339454
5	116641	28816.782779415366	5.386730882042
5	116650	28821.445257148191	5.508237565042
5	116669	28828.107202209131	4.973935268512
5	116689	28833.224264314462	0.938031698096
5	116704	28837.176020574234	3.740119595189
5	116708	28837.394726166008	1.266106514679
5	116715	28837.974985035848	0.148826705145
5	116733	28843.355568835144	0.141463978549
5	116740	28844.042691366138	0.083593998686
5	116747	28846.19121715198	1.995800265581
5	116756	28847.759909567259	0.327284325788
5	116786	28852.872825699874	0.054802585309
5	116793	28854.157035848228	0.795079194285
5	116801	28856.557742294671	0.922527099446
5	116825	28863.61043412696	2.210627357009
5	116830	28863.918189115254	0.656450634627
5	116855	28872.985155041704	0.012657790507
5	116863	28873.999397183648	0.162582691621
5	116873	28874.747819690295	0.370179931468
5	116877	28874.881161644096	0.263327018099
5	116907	28884.273200290964	2.592918340001
5	116917	28889.240576501701	6.582297103434
5	116923	28890.185806525868	6.707344992146
5	116938	28894.732842835006	4.109053096156
5	116959	28900.642181089189	3.490913745288
5	116966	28903.137067882139	5.71910894344
5	116975	28906.50494362087	8.559870395038
5	116981	28907.574639602204	8.749899062371
5	116988	28908.274371736739	5.537816047333
5	116994	28909.32672553659	1.354901756898
5	117033	28915.066033457363	1.259883653249
5	117039	28915.705745643596	1.670949208366
5	117045	28916.135617716617	1.640300289937
5	117067	28926.299294024911	7.001003865125
5	117077	28930.484643949674	10.996891464412
5	117082	28930.935506354018	8.098507862607
5	117087	28931.030993462938	1.214192539907
5	117128	28942.753028461296	2.230563041147
5	117135	28943.276365295824	1.74074155642
5	117147	28946.608656657295	3.371131118927
5	117154	28947.40327441126	1.613521409567
5	117163	28949.185735152175	2.111758960106
5	117168	28951.4281610963	3.649374699313
5	117181	28954.699723221269	6.773271987675
5	117186	28954.8334203044	0.569802365205
5	117199	28959.622378114689	4.165258111287
5	117221	28962.482313052536	1.387756949318
5	117237	28966.234246769933	2.973101964829
5	117242	28966.420858912044	2.96804581728
5	117260	28970.586021175375	0.971419992227
5	117265	28971.27290217784	0.884452446891
5	117296	28974.131944437675	0.607904286083
5	117318	28979.451292655515	1.417141003998
5	117337	28982.918980242983	3.272740343938
5	117360	28989.843128713189	0.097880331632
5	117367	28990.708304693189	0.197373058662
5	117374	28992.89780307836	1.007663153027
5	117389	28994.290590929859	1.263812523359
5	117396	28995.556175025567	2.227215636252
5	117401	28995.886219590724	2.376487961037
5	117414	29000.693655135338	0.124369692555
5	117422	29007.511728428477	0.747434109701
5	117431	29010.9867138216	0.421268095573
5	117443	29013.58388946093	0.960819663885
5	117448	29014.025438254131	0.942825739097
5	117455	29014.540440932449	0.221690387263
5	117462	29015.132822886523	0.215548535844
5	117472	29017.925940703009	1.620872399841
5	117476	29018.512772878027	1.863055997578
5	117485	29021.090353033806	0.908836105644
5	117501	29025.518934188893	0.450810236942
5	117508	29027.475538628145	1.953524021645
5	117523	29031.52059341185	0.416130172068
5	117536	29032.244092332435	0.713451161526
5	117542	29033.652101511429	1.859626809593
5	117549	29034.550777032189	2.528868247557
5	117556	29036.878322806385	2.824075989036
5	117585	29043.359177190879	3.104623193511
5	117590	29043.799841142053	3.265855104045
5	117596	29044.860480772362	3.792577286524
5	117601	29045.3993927924	2.994369897981
5	117610	29054.049293748217	0.568552663599
5	117626	29058.522949273788	2.388519435086
5	117641	29063.283426470159	1.263291279985
5	117649	29065.696991453878	0.227705815106
5	117658	29067.150127298015	0.143643558645
5	117688	29078.265830318043	0.290316056715
5	117697	29082.372452448964	1.431217151404
5	117704	29085.637992678416	0.82476548693
5	117742	29096.193506271111	8.769357194433
5	117749	29096.569020561711	8.570424779574
5	117754	29097.434983843813	9.223922188348
5	117773	29102.69610971524	10.579203029633
5	117781	29104.284395398994	8.19731098147
5	117787	29105.771415957216	9.357695155406
5	117792	29107.124447771612	7.737901653231
5	117798	29107.309069404532	5.356651114917
5	117808	29108.446392929661	5.971076323441
5	117813	29109.176349444738	6.557245618903
5	117825	29111.827946376893	9.059037703558
5	117830	29112.608210851484	2.566167682421
5	117852	29116.496245786797	2.478403468379
5	117886	29123.69180419455	5.344545375154
5	117895	29124.881178372181	6.505503001712
5	117904	29127.071067533469	8.154610300665
5	117909	29127.097013793636	4.101692486596
5	117914	29128.514647012128	3.904448183458
5	117919	29128.745759946897	4.102455435742
5	117927	29131.517206015268	5.596557688299
5	117932	29131.858326137309	0.451375368058
5	117964	29137.291633517272	0.689744914478
5	117978	29140.554854201896	1.820265758184
5	118010	29147.616501240035	2.349828290511
5	118017	29148.526379073542	3.159775853716
5	118022	29149.508164260238	2.977059146132
5	118027	29150.801644641399	3.347030115801
5	118036	29154.560661308449	6.608084063689
5	118045	29156.657920117234	4.287978112198
5	118051	29158.928321799049	4.903276397528
5	118056	29159.357326346114	4.64180077167
5	118063	29160.357714331266	4.54144527996
5	118068	29161.386278170921	1.566361988102
5	118099	29170.449359679983	7.239856224509
5	118104	29170.531877673465	4.337896674653
5	118109	29174.494813089184	4.089725882927
5	118134	29181.706129723735	4.747365657473
5	118142	29187.600574204653	7.014933811541
5	118149	29188.851780788703	8.231290266959
5	118156	29189.920466569368	8.866737092212
5	118161	29190.034189022741	7.063342676535
5	118167	29191.429831948161	1.915595898192
5	118200	29198.398428573089	1.666922078136
5	118214	29201.510134501361	2.570207823271
5	118235	29205.717417573256	2.565299258468
5	118243	29206.13877173813	2.847538988643
5	118255	29207.419356583708	1.35320527846
5	118260	29207.444728199579	0.745990652795
5	118267	29208.822041549532	1.780351615672
5	118310	29217.018822952045	0.746513945156
5	118339	29228.900446821632	2.597731676707
5	118354	29231.767136111278	2.603104550322
5	118360	29232.09061584912	1.606423063891
5	118386	29236.164677679418	1.47134938502
5	118400	29237.869058009737	2.470676246959
5	118406	29241.230723949026	4.752821284793
5	118438	29248.750679401731	2.08774278668
5	118443	29248.991740140531	1.392736118534
5	118460	29254.166609356113	4.899913414111
5	118466	29255.987509308198	3.985416672617
5	118483	29257.068787736165	0.392214719187
5	118511	29262.8858706778	2.040804442463
5	118516	29262.994554230741	1.563468228664
5	118543	29268.919912615928	2.482644774645
5	118548	29268.992247148227	1.092298093529
5	118562	29275.707596913934	7.699529260933
5	118575	29280.425911735815	12.059966034944
5	118582	29285.386133540895	16.868398870802
5	118589	29288.162007816269	17.78616083638
5	118599	29290.086255752337	18.996569147044
5	118604	29292.233072475729	20.952799338248
5	118609	29293.811845752164	15.105787477668
5	118614	29295.366715683086	16.3592914923
5	118625	29297.33917422605	10.250220075954
5	118644	29298.987801025374	0.764777387993
5	118662	29303.266982628506	4.131226564851
5	118692	29315.335074966093	7.210094445772
5	118699	29316.256968729071	4.001980709084
5	118708	29317.344814869934	3.035959496335
5	118713	29318.040877719412	1.455196879152
5	118728	29319.859048592743	1.653989268376
5	118735	29322.89842086121	3.948127151992
5	118742	29325.179911269928	4.277274039244
5	118761	29326.898802648693	1.162141728793
5	118767	29327.342854090151	1.439624224687
5	118773	29327.547248839244	0.929253012732
5	118779	29328.532098193255	1.738914176901
5	118817	29336.880485255009	3.807062038668
5	118824	29337.404550526781	0.939956203743
5	118831	29338.679465348482	1.699589436881
5	118839	29341.064977094943	3.155674790097
5	118878	29347.811088732502	3.649143000314
5	118886	29348.20623124754	2.215331139847
5	118893	29348.911708713904	0.774139776639
5	118913	29352.937399859589	0.972509876145
5	118941	29361.379349481327	3.959297941549
5	118960	29364.48429610527	2.517754218472
5	118966	29364.947434910642	0.710567258885
5	118980	29370.464874321412	1.523891426559
5	119000	29375.043939689601	4.312330817558
5	119005	29375.609160453798	4.588915633467
5	119011	29378.20098845168	4.899732560765
5	119017	29380.72467859582	6.357134831193
5	119034	29381.66740414588	0.66147777425
5	119047	29384.594158308792	3.482688494024
5	119053	29385.987287556434	3.507307524774
5	119058	29385.994007943113	2.760302178403
5	119064	29386.230506214533	2.780952383061
5	119083	29393.390697372974	1.381675027519
5	119088	29393.948326466907	1.24446111198
5	119092	29394.165739323917	1.215887805537
5	119116	29401.936409559559	2.912443847097
5	119137	29407.104901359737	2.698828869707
5	119145	29412.330121705866	0.21032958786
5	119152	29414.249122471312	0.218557890592
5	119163	29417.87775087799	0.194546854079
5	119183	29425.214740868633	1.877582236278
5	119190	29426.320656316606	2.690142268724
5	119206	29430.659685986079	1.904259824909
5	119213	29431.641618471538	2.720065692563
5	119236	29435.686632709076	0.366788946377
5	119245	29438.015364189529	2.557688978772
5	119253	29438.696767880515	2.49444997909
5	119268	29441.795995851806	2.817290201888
5	119272	29441.867810222469	2.63024834776
5	119281	29450.928784260735	0.403067826533
5	119298	29458.686806863434	1.30660252619
5	119310	29464.073882230531	3.400995836868
5	119325	29464.959456911753	0.641074565062
5	119330	29466.241405027652	1.813462494962
5	119349	29469.833427886579	1.446399844628
5	119353	29469.918134975638	0.146833589894
5	119365	29475.672114203226	1.175771463291
5	119378	29478.192768753913	1.984066941626
5	119385	29481.145418756919	0.013608462484
5	119413	29489.736328408076	6.199913112428
5	119418	29489.819278774607	4.971444932887
5	119423	29490.328302394935	3.731326313527
5	119465	29496.977104465499	1.66034125042
5	119489	29509.83380028835	0.875571764595
5	119536	29522.322005402099	0.677754966386
5	119549	29525.215674471239	2.796863905206
5	119573	29529.26810117192	3.159482174942
5	119578	29529.641728744379	3.00924593102
5	119584	29529.968078378997	2.230911826981
5	119601	29536.611758810113	6.118577247217
5	119606	29538.166865110558	5.148757909232
5	119610	29539.943997380491	3.926233877529
5	119628	29544.576088838595	2.428182948748
5	119635	29545.730786034933	1.851149503344
5	119640	29546.25655771461	2.258014094005
5	119645	29547.494524647785	2.133135092096
5	119667	29551.369630855594	3.870798832926
5	119673	29552.132633730918	2.203772390679
5	119680	29554.491196857805	4.147006353992
5	119687	29557.615861884607	6.31015183273
5	119698	29560.247753885563	6.413163728489
5	119709	29565.504000590047	10.148753340672
5	119714	29565.564070072517	6.426781051028
5	119723	29566.203364703566	6.736185278048
5	119742	29570.18537825117	6.131493462677
5	119748	29570.476909910213	4.415266740421
5	119755	29570.922690044883	4.100845258877
5	119762	29571.247076008837	2.54153972049
5	119769	29573.346543325924	3.735228089955
5	119776	29576.333110422105	5.417039094159
5	119781	29576.653094046021	3.95389684308
5	119810	29584.740033169041	1.949638156056
5	119819	29586.778413614458	2.156887055471
5	119824	29586.843696560677	1.776561199512
5	119849	29595.93514087265	2.818292288696
5	119860	29599.490307455443	3.61272357481
5	119865	29600.223901123223	2.831284846563
5	119872	29601.632620631503	2.219763860407
5	119880	29606.827053798028	5.67877920854
5	119885	29607.92510077665	5.106046900609
5	119899	29614.070669492642	4.998197657845
5	119922	29618.200312172983	2.27751646746
5	119930	29618.653502567273	1.827083509947
5	119935	29618.824116707178	0.528865538135
5	119958	29621.690205310511	1.950094026788
5	119981	29627.550129765877	4.680376302297
5	119992	29633.34261112033	9.888198510209
5	119998	29635.857329435139	11.234104963575
5	120017	29643.593622724905	18.789038206982
5	120022	29644.045932952782	7.29584839997
5	120029	29644.992736481829	6.416182105239
5	120036	29645.802993383257	1.258799265097
5	120042	29646.833445439161	1.060831993976
5	120060	29648.120576728561	0.112459104387
5	120104	29665.149495261246	6.226138536532
5	120109	29665.37947023044	5.416858113618
5	120114	29665.810734832043	5.73017788164
5	120157	29676.263837493006	1.981545927787
5	120162	29676.359029793817	0.226929262303
5	120180	29682.033551833412	3.650760221219
5	120188	29686.572680302347	6.089472971159
5	120194	29687.840544965346	1.661367638967
5	120205	29689.952050788125	1.211212175211
5	120225	29693.988114731138	1.284900473882
5	120251	29701.733340924409	4.965691414719
5	120256	29701.913133897644	4.148854701363
5	120275	29709.084803970958	4.211320933397
5	120280	29709.33932576373	1.035963104542
5	120296	29713.03902094716	0.568500918727
5	120308	29717.106067820646	2.663860234488
5	120313	29717.653011030086	2.683534287566
5	120328	29722.621727233905	2.006352926295
5	120335	29725.703325728309	0.966351381257
5	120367	29736.841533309132	0.015766424343
5	120384	29742.27788217048	0.361092783311
5	120396	29744.02093986809	1.299661787297
5	120401	29744.386449602705	0.58568173166
5	120417	29746.872603244043	1.448501620664
5	120441	29753.477177282615	5.946127347017
5	120455	29756.476488705547	7.271035130384
5	120460	29757.648724329046	6.225913203429
5	120473	29759.572502765406	7.987082101569
5	120498	29767.393948888501	15.412862715625
5	120503	29767.493335414439	13.438083566229
5	120508	29768.173909286557	10.415594315403
5	120520	29769.420185317962	11.445190601227
5	120527	29770.203041266038	11.07704312399
5	120534	29772.10630964415	12.899620261117
5	120543	29775.212316135516	15.348274422758
5	120549	29776.669519839343	15.797141281979
5	120556	29776.873123541462	14.730111044249
5	120563	29778.218420148603	12.152092630262
5	120568	29780.209609692482	14.061614362203
5	120575	29781.134729171822	12.377991241243
5	120582	29782.007877060347	12.712926312628
5	120588	29782.877424445128	13.283316509455
5	120595	29785.06021326592	8.282396919658
5	120608	29792.251286499738	14.325453671737
5	120613	29792.408788986747	11.089406986259
5	120618	29792.551810791179	7.846317500503
5	120629	29796.459424004764	8.730224504647
5	120636	29799.708645720378	10.741524281342
5	120641	29800.513523745943	11.184527177051
5	120648	29802.578599921488	9.198454905584
5	120656	29804.632576273135	9.22362941651
5	120661	29804.965341514163	8.66633272494
5	120668	29805.740875165885	8.709023137925
5	120673	29806.70638113187	4.344077986674
5	120678	29807.078771400702	4.474044061372
5	120698	29810.753635919348	1.286179335416
5	120713	29812.841622402018	1.741349970138
5	120718	29813.216351657084	0.596530870692
5	120768	29824.401037802497	4.380054281928
5	120774	29825.22613457609	5.072310150791
5	120782	29826.273061905712	5.872106369326
5	120787	29827.213944449013	6.036645639525
5	120794	29827.556132615996	5.687727844557
5	120809	29831.640023397592	5.441271165844
5	120814	29833.178448499717	5.919646128585
5	120825	29834.508350618538	6.163042659936
5	120836	29842.377261578902	13.849126011819
5	120841	29843.821427733363	14.383692432628
5	120852	29848.206764161813	13.905399583246
5	120857	29848.517038509263	13.645464735919
5	120866	29850.596487219575	8.822933333921
5	120873	29853.63331161007	11.388274422096
5	120880	29854.747127987571	10.500277380688
5	120886	29855.312601269864	7.574388216947
5	120894	29856.46311035358	7.53718962362
5	120901	29856.670667170892	6.115101313684
5	120909	29858.356021506072	6.795697675231
5	120915	29860.434465376636	6.325335810842
5	120920	29860.586589179916	4.434497449816
5	120927	29861.71332455819	5.048050253431
5	120935	29862.419428990771	5.321947520176
5	120944	29865.602915624508	3.395064067643
5	120956	29867.232906648095	0.966377513387
5	120980	29872.122083557698	3.281875780124
5	120985	29874.461384275422	4.666188759469
5	120990	29877.288361253702	5.847479653922
5	121011	29885.207494917517	3.974005055635
5	121018	29886.580367433671	5.230415437355
5	121037	29891.301751604365	3.223792558843
5	121042	29891.666829996139	0.679943759073
5	121047	29893.572128358445	2.477135520344
5	121067	29897.462260269986	2.693691968298
5	121072	29897.876659970902	1.714310466812
5	121079	29899.208081778274	1.935449619481
5	121102	29905.003674526127	3.156806097413
5	121121	29908.985344056709	3.788479178946
5	121126	29909.306478862708	0.824639125357
5	121152	29914.902047812581	2.775627711213
5	121170	29919.614260610814	3.543089053039
5	121194	29925.819260465655	2.268006383857
5	121199	29927.550745067159	3.83060938388
5	121226	29933.759260682561	4.303337194277
5	121239	29936.556117284668	4.239770132049
5	121246	29936.872283784299	4.554177431346
5	121253	29938.435358503879	3.252222039319
5	121263	29941.434651683052	4.902104893249
5	121268	29941.581777337735	2.199748761431
5	121275	29943.860828802279	2.472372874182
5	121295	29946.334279578147	0.696515468942
5	121312	29950.071873936672	1.495298613356
5	121328	29953.991419439415	1.627482321718
5	121345	29957.650788471324	0.85891536277
5	121371	29962.662784108403	1.10325758584
5	121398	29969.288506954838	4.322140721887
5	121418	29976.872893828544	6.196813465783
5	121423	29976.98407173191	4.938633841747
5	121429	29977.127239073006	5.069569137
5	121448	29982.720990417529	4.556405751202
5	121454	29983.994902509899	1.413082033783
5	121503	29992.940723399958	4.22946164815
5	121510	29993.833501263758	4.372424263477
5	121515	29994.331216614427	4.750966014441
5	121522	29994.515566762268	3.124960511306
5	121527	29995.27270835265	0.778354077859

