version 2
run Second-n5-1-20191016-17:04:26-8864
attr configname Second-n5
attr datetime 20191016-17:04:26
attr experiment Second-n5
attr inifile omnetpp.ini
attr iterationvars ""
attr iterationvarsf ""
attr measurement ""
attr network org.omnetpp.queueing.Pizza
attr processid 8864
attr repetition 1
attr replication ""
attr resultdir results
attr runnumber 1
attr seedset 1
param **.PS.maxInventoriedPS 5
param **.U1.interArrivalTime exponential(3s)
param **.U2.interArrivalTime exponential(5s)
param **.PS.serviceTimeForInventoryU1 exponential(1.0s)
param **.PS.serviceTimeForInventoryU2 exponential(1.2s)
param **.PS.serviceTimeDirectU1 exponential(1.4s)
param **.PS.serviceTimeDirectU2 exponential(1.4s)
param **.PS.probabilityProducing 0.7
param **.CS.serviceTimeU1 exponential(1.1s)
param **.CS.serviceTimeU2 exponential(1.4s)

vector 0 Pizza.EntryQueueU1 queueLength:vector ETV
attr interpolationmode sample-hold
attr title "queue length, vector"
vector 1 Pizza.CS queueLength:vector ETV
attr interpolationmode sample-hold
attr title "queue length, vector"
vector 2 Pizza.EntryQueueU2 queueLength:vector ETV
attr interpolationmode sample-hold
attr title "queue length, vector"
vector 3 Pizza.sink lifeTime:vector ETV
attr interpolationmode none
attr title "lifetime of arrived jobs, vector"
attr unit s
vector 4 Pizza.sink lifeTimeU1:vector ETV
attr interpolationmode none
attr title "lifetime of arrived jobs, vector"
attr unit s
vector 5 Pizza.sink lifeTimeU2:vector ETV
attr interpolationmode none
attr title "lifetime of arrived jobs, vector"
attr unit s
0	0	0	0
0	7	5.441193194016	1
0	9	5.789900475303	0
0	45	35.056649878996	1
0	46	35.681504417268	0
0	240	97.072124386765	1
0	243	97.665549934923	0
0	256	98.74845155845	1
0	258	98.947086765237	2
0	259	99.039340536703	1
0	266	100.740118532116	2
0	267	102.168296001398	1
0	273	102.173274263931	2
0	275	104.738956968053	1
0	281	106.368779418353	0
0	287	106.603178933575	1
0	289	107.319458051389	0
0	302	108.849527164148	1
0	303	109.623081628804	0
0	310	110.739439779722	1
0	318	112.539459567578	0
0	324	113.14380882176	1
0	325	113.226082270963	0
0	331	113.348645901515	1
0	332	114.006840066559	0
0	358	117.877615116108	1
0	360	118.405797608739	0
0	374	119.466809740458	1
0	375	119.638007194954	0
0	389	122.116742610274	1
0	391	122.900456887743	0
0	417	126.642187172161	1
0	419	126.752177369152	2
0	422	127.79147186632	1
0	429	129.213189958946	2
0	430	131.553094124924	1
0	435	131.63762644679	0
0	441	131.731876769708	1
0	446	132.260722970072	2
0	447	133.135714049694	1
0	452	133.19215761363	0
0	458	133.652233715508	1
0	460	134.474943379009	2
0	461	134.677988815665	1
0	468	135.539317433975	2
0	469	135.742203049912	1
0	474	135.929798035043	0
0	506	141.184621781098	1
0	507	141.363347368185	0
0	513	141.913322623301	1
0	514	142.58032220011	0
0	527	143.773863354826	1
0	532	144.074344904279	2
0	534	144.60065023615	1
0	542	146.614053374673	0
0	628	168.325012815045	1
0	631	171.837331150543	0
0	647	174.011632458176	1
0	648	174.431224571362	0
0	655	175.003304168185	1
0	656	175.390763117106	0
0	665	175.832498641474	1
0	667	177.518686435151	2
0	668	177.984581308363	1
0	675	178.931178609941	0
0	682	179.889953290994	1
0	684	179.936918828428	2
0	690	182.227437281037	1
0	696	184.684712805786	0
0	740	193.726594891271	1
0	741	194.301469150631	0
0	779	201.59153581014	1
0	780	201.655982316289	0
0	796	203.597020118017	1
0	797	203.797370513752	0
0	853	217.704813171834	1
0	855	218.33578769208	0
0	875	222.715109275526	1
0	876	222.715658257673	0
0	882	223.337579081576	1
0	883	223.407567916624	0
0	947	237.407992963677	1
0	948	237.530184161795	0
0	956	240.593133584933	1
0	958	240.741649882518	2
0	959	242.401262477073	1
0	965	242.939509016995	2
0	970	244.093607069321	1
0	978	246.362859981109	0
0	985	246.708778610891	1
0	989	247.379227209061	2
0	990	248.578771646098	1
0	995	249.005351437585	0
0	1007	250.322607818338	1
0	1008	251.483379456955	0
0	1019	251.886772964709	1
0	1024	255.834041333655	2
0	1027	256.411084834462	1
0	1033	258.162862476734	0
0	1039	258.835532057859	1
0	1041	258.975741557084	2
0	1043	259.842236688828	1
0	1048	260.011993271947	0
0	1095	274.067507747677	1
0	1097	275.117549151917	0
0	1141	298.241638443714	1
0	1145	300.122636639841	2
0	1148	301.100039986327	1
0	1153	301.13083363042	0
0	1168	304.930086752598	1
0	1172	306.001404086514	0
0	1180	307.07713318612	1
0	1182	307.175704174347	2
0	1185	307.793789329451	1
0	1193	308.06911920732	0
0	1211	309.667479945774	1
0	1212	310.421149471351	0
0	1224	313.659855899268	1
0	1235	314.861439642207	0
0	1247	316.614336869426	1
0	1255	320.736705014593	2
0	1256	320.966217177433	1
0	1262	321.007321304625	2
0	1264	322.551784669631	3
0	1267	326.204296766536	2
0	1272	326.245838550217	1
0	1277	326.287799533048	0
0	1283	327.087359980736	1
0	1284	327.347847527739	0
0	1301	330.582732818576	1
0	1302	330.885251904033	0
0	1319	332.72645395312	1
0	1322	335.155897098955	2
0	1323	335.703123286444	1
0	1328	336.041122252473	0
0	1346	338.881154283975	1
0	1348	340.157543613518	0
0	1381	345.107748254927	1
0	1386	345.555481828182	0
0	1400	348.893387417188	1
0	1401	349.559845149715	0
0	1407	349.8255744943	1
0	1408	350.64850692769	0
0	1427	354.077818654788	1
0	1431	354.761059963608	0
0	1437	356.297252484553	1
0	1438	357.154602647424	0
0	1501	374.341507883148	1
0	1504	374.683245065283	2
0	1506	376.661501102924	1
0	1513	377.390206105395	2
0	1515	379.211668835048	1
0	1520	379.28603586089	0
0	1528	380.34810899099	1
0	1530	380.899817252142	2
0	1532	381.615176880161	1
0	1539	383.527662806657	0
0	1569	393.270882077246	1
0	1570	393.675985512843	0
0	1576	394.427661426924	1
0	1578	394.971414849834	2
0	1580	395.717699944673	3
0	1582	397.58252508434	4
0	1583	398.251352331288	3
0	1588	398.292924872536	2
0	1593	398.614187934091	1
0	1598	398.760849403312	0
0	1611	400.929884378014	1
0	1612	402.078930441033	0
0	1616	402.247764284094	1
0	1621	403.079702855918	0
0	1625	403.764279245112	1
0	1629	405.561932563096	2
0	1630	406.632436017717	1
0	1635	408.913866658356	0
0	1639	409.153292793213	1
0	1645	411.934531183137	0
0	1667	416.541155982028	1
0	1668	416.557481613813	0
0	1682	418.256849590959	1
0	1684	419.029290493477	0
0	1690	419.168013660739	1
0	1691	419.555582852615	0
0	1698	420.476721711058	1
0	1701	421.596500794902	0
0	1707	422.270049368352	1
0	1709	422.447539511213	2
0	1710	423.050068199975	1
0	1715	423.271849892643	0
0	1741	426.54082290714	1
0	1743	426.596290610459	0
0	1749	426.792694955001	1
0	1751	427.609183630946	0
0	1794	438.74958771724	1
0	1795	438.776908162183	0
0	1875	465.090475124282	1
0	1877	466.000078939441	2
0	1878	466.068987340878	1
0	1883	466.194785964126	0
0	1895	468.797657693133	1
0	1898	473.151108989588	0
0	1931	480.649757651596	1
0	1934	481.093434863807	0
0	1964	493.620549895224	1
0	1965	494.339710026678	0
0	2001	501.697070475259	1
0	2002	501.779716132481	0
0	2032	510.131820938241	1
0	2034	510.787710768636	0
0	2077	521.801518221042	1
0	2079	522.552354096565	0
0	2089	523.595781707527	1
0	2090	523.726912632635	0
0	2097	524.017756733726	1
0	2098	524.750003830708	0
0	2259	572.191608960722	1
0	2260	572.38431282791	0
0	2268	572.760026786026	1
0	2276	575.128830324515	0
0	2288	578.422472649745	1
0	2289	578.67504515746	0
0	2314	581.417044630037	1
0	2315	581.666113571692	0
0	2394	606.22583109929	1
0	2395	607.612366161996	0
0	2407	610.375099653859	1
0	2413	612.033425224603	2
0	2414	612.047017549751	1
0	2420	612.343410901035	0
0	2431	613.350372586727	1
0	2435	615.002172024786	0
0	2444	616.48541166034	1
0	2454	620.965072811261	2
0	2458	621.493533421847	3
0	2459	622.077815157188	2
0	2466	622.751194131972	3
0	2469	624.139249300366	2
0	2475	624.312167686298	1
0	2480	624.544693616939	0
0	2503	627.584495659649	1
0	2504	628.870049159658	0
0	2525	630.692131939851	1
0	2527	631.783775247894	2
0	2530	633.945762378163	1
0	2535	634.019386140062	0
0	2549	635.956141079714	1
0	2550	638.328693023128	0
0	2556	638.594121439451	1
0	2557	638.697134536434	0
0	2580	644.362170732849	1
0	2582	644.706573235639	0
0	2604	649.470311870344	1
0	2607	650.498251127532	0
0	2613	650.916382425382	1
0	2614	651.082069778544	0
0	2623	652.2758364494	1
0	2626	653.935717542707	0
0	2703	677.986154561392	1
0	2705	678.002732762344	2
0	2706	678.182539370509	1
0	2713	678.94231513118	2
0	2714	679.703697189751	1
0	2719	680.082225785799	0
0	2736	685.391946323691	1
0	2738	685.857023991063	2
0	2741	686.563693724565	1
0	2748	687.124170293143	0
0	2799	697.530335667237	1
0	2805	700.695178005754	2
0	2806	700.913857451947	1
0	2811	701.29268758364	0
0	2818	701.856696726706	1
0	2820	703.271260408336	0
0	2865	721.411073764695	1
0	2870	721.873302279719	2
0	2872	722.019354338065	3
0	2873	723.34565542621	2
0	2879	723.6270676472	1
0	2884	723.79548193299	0
0	2915	731.516404485623	1
0	2916	733.510512355196	0
0	2973	750.6902396954	1
0	2976	751.783667563933	0
0	2987	752.502539592375	1
0	2989	754.612121513172	0
0	3027	762.307045943402	1
0	3028	762.624537867464	0
0	3034	762.709502776712	1
0	3035	763.447557872544	0
0	3053	768.234031811132	1
0	3054	769.236118961065	0
0	3070	771.902694841308	1
0	3072	772.104037422515	2
0	3073	772.166280147382	1
0	3078	773.49572297711	0
0	3084	774.214212163441	1
0	3085	774.251063909737	0
0	3117	783.320024742557	1
0	3118	783.325648252733	0
0	3132	784.962835549231	1
0	3137	785.58831592922	0
0	3150	786.963816592032	1
0	3151	788.357653903777	0
0	3162	788.574738557886	1
0	3166	789.955786939322	0
0	3175	791.293628932432	1
0	3176	792.005645766745	0
0	3204	799.668442094908	1
0	3205	799.840978322933	0
0	3211	800.310086904069	1
0	3213	800.332124560125	2
0	3214	801.0306787226	1
0	3221	802.042193569892	2
0	3225	803.776550340668	1
0	3231	805.195397787088	2
0	3232	805.234027149744	1
0	3242	807.854165948845	0
0	3269	811.543304301225	1
0	3271	811.705764418455	2
0	3272	812.621010462517	1
0	3278	812.747535334796	2
0	3279	812.869382501658	1
0	3285	814.274933747182	0
0	3334	837.994735207195	1
0	3335	838.283834339715	0
0	3349	841.428502869958	1
0	3355	845.719899504141	2
0	3356	848.189872834883	1
0	3361	848.48277114234	0
0	3368	849.525592423011	1
0	3369	849.529096350574	0
0	3380	850.685072010419	1
0	3388	852.626164968622	2
0	3389	852.674208262937	1
0	3395	853.272612999973	2
0	3399	854.382006015715	3
0	3400	854.56505796878	2
0	3405	855.308133625787	1
0	3411	855.507440773761	0
0	3442	859.456250608801	1
0	3443	859.459944651212	0
0	3456	861.196989368644	1
0	3458	863.399902941454	0
0	3497	871.274735531463	1
0	3499	871.860856518707	0
0	3532	885.651116650616	1
0	3536	887.579434755965	2
0	3537	887.838709915486	1
0	3545	888.514997455028	2
0	3547	888.999859101943	3
0	3549	889.640735757759	4
0	3552	890.763198796724	3
0	3558	891.147732460631	4
0	3561	891.497201482521	5
0	3562	892.430558441633	4
0	3567	892.764750607117	3
0	3572	893.87845909624	2
0	3578	894.038009935046	3
0	3581	895.77161486009	2
0	3589	896.712780030384	3
0	3591	897.335956195274	4
0	3592	899.795272294423	3
0	3599	900.758480594477	2
0	3605	901.042555380879	1
0	3610	901.292744954544	0
0	3616	902.62179893318	1
0	3618	903.037463325701	2
0	3621	903.785862739544	1
0	3626	904.119398700015	0
0	3689	916.551236316717	1
0	3690	916.791776739885	0
0	3702	921.480088817414	1
0	3704	923.328406870751	2
0	3707	924.03073471636	1
0	3713	924.978634528895	2
0	3717	926.658656718962	3
0	3719	927.065131112733	4
0	3720	927.97441989995	3
0	3725	928.065352716638	2
0	3736	928.981319228026	1
0	3741	929.047204691611	0
0	3747	929.068305657604	1
0	3748	929.258675797797	0
0	3754	929.288228897162	1
0	3759	931.304199862275	0
0	3802	940.321018662745	1
0	3803	941.431927617055	0
0	3826	951.004970050915	1
0	3827	951.087794852238	0
0	3833	951.742552466276	1
0	3834	951.884428105057	0
0	3880	961.207554995612	1
0	3882	963.221992785806	2
0	3883	963.25310690328	1
0	3890	963.697133648479	0
0	3897	964.464923983118	1
0	3898	964.928103058991	0
0	3922	967.869033471909	1
0	3923	968.668692152426	0
0	3935	969.61388640206	1
0	3938	970.193600512264	2
0	3939	970.952939601741	1
0	3945	971.79483246666	0
0	4055	1002.329958908239	1
0	4057	1003.132338515724	0
0	4064	1003.507479673195	1
0	4067	1006.028204313582	0
0	4078	1007.148055240764	1
0	4081	1007.601480636927	0
0	4090	1008.926449513039	1
0	4094	1009.724585852716	2
0	4102	1012.078329981274	3
0	4104	1014.32337031637	4
0	4105	1015.903192536338	3
0	4112	1017.677208361491	2
0	4117	1017.892643754609	1
0	4125	1018.794870052297	2
0	4127	1020.608177537953	1
0	4132	1020.673416296018	0
0	4147	1023.781691507855	1
0	4148	1024.803911795292	0
0	4155	1025.725931469301	1
0	4156	1025.76882044351	0
0	4170	1027.530021102319	1
0	4179	1032.379234154403	2
0	4180	1032.477543037921	1
0	4186	1033.133816926228	0
0	4222	1046.129257656091	1
0	4225	1048.167958680995	0
0	4231	1048.82355806158	1
0	4232	1049.106097293974	0
0	4238	1050.453888303628	1
0	4239	1051.270784814066	0
0	4245	1051.295547215688	1
0	4247	1051.400661184149	2
0	4248	1051.99335556465	1
0	4254	1052.076411985436	2
0	4256	1052.477233976122	3
0	4263	1054.181727356023	2
0	4268	1054.192974357903	1
0	4273	1054.934074714537	0
0	4324	1066.164953642897	1
0	4326	1069.810884531068	0
0	4348	1080.3327500904	1
0	4349	1081.270277157122	0
0	4399	1098.182855578133	1
0	4401	1101.662181898286	2
0	4402	1101.949752796493	1
0	4408	1102.164606044398	0
0	4422	1104.748922261787	1
0	4423	1105.063527177304	0
0	4453	1118.495793632228	1
0	4455	1118.542486026691	2
0	4458	1119.179933746048	3
0	4463	1119.940709386386	2
0	4469	1120.419910341459	1
0	4475	1120.659788841644	0
0	4485	1121.585265102752	1
0	4486	1122.903830203066	0
0	4506	1128.050276686841	1
0	4508	1128.132880031123	2
0	4509	1128.506454521788	1
0	4516	1129.505952913385	2
0	4517	1130.310255922532	1
0	4523	1132.124275601189	0
0	4530	1133.852477890152	1
0	4531	1134.234243445721	0
0	4545	1135.968933638722	1
0	4546	1135.977410617818	0
0	4580	1139.747241141614	1
0	4584	1140.706367465077	0
0	4592	1141.273938410054	1
0	4593	1141.408999270861	0
0	4645	1160.668492608162	1
0	4648	1161.549998504562	2
0	4649	1162.305717285045	1
0	4654	1162.306854098712	0
0	4669	1164.280603956119	1
0	4670	1164.534038190887	0
0	4683	1165.724307382665	1
0	4685	1166.331569579834	0
0	4735	1181.47361425894	1
0	4736	1181.940853067313	0
0	4743	1182.76510096143	1
0	4744	1183.201356582782	0
0	4753	1183.574508193233	1
0	4754	1184.816561663946	0
0	4770	1188.283197108651	1
0	4771	1188.950319873651	0
0	4779	1189.292071968331	1
0	4781	1189.837104023269	0
0	4794	1192.460619901865	1
0	4795	1194.859803320939	0
0	4807	1195.613500765136	1
0	4809	1195.804355906363	0
0	4883	1225.953549060021	1
0	4884	1225.986362186776	0
0	4899	1227.608144314618	1
0	4900	1227.620113614485	0
0	4913	1228.175163161377	1
0	4914	1228.211120201168	0
0	4927	1231.589991243906	1
0	4928	1232.120176297143	0
0	5011	1256.923306283849	1
0	5014	1257.952523571095	2
0	5016	1258.744323901466	1
0	5022	1260.532493715463	0
0	5029	1260.849071257147	1
0	5030	1260.910482743865	0
0	5058	1276.570335631938	1
0	5060	1276.697725131516	2
0	5062	1277.101100200637	1
0	5068	1277.458524559488	2
0	5071	1278.560206965542	1
0	5080	1280.273281207571	2
0	5081	1281.339132950055	1
0	5086	1282.248080583417	0
0	5094	1282.682134062458	1
0	5095	1283.261919520365	0
0	5108	1284.196976308901	1
0	5110	1284.413998073113	2
0	5113	1286.045926705712	1
0	5120	1286.382082435359	2
0	5121	1286.599343615345	1
0	5128	1287.74648409053	0
0	5194	1304.190132656341	1
0	5196	1306.208032461384	0
0	5211	1307.341917923635	1
0	5213	1309.472646853045	0
0	5227	1314.883526190166	1
0	5228	1315.121389163082	0
0	5234	1315.123012752983	1
0	5236	1316.760885512358	2
0	5239	1318.874298331905	1
0	5245	1319.318175397426	0
0	5256	1320.503333543587	1
0	5260	1322.743137007475	0
0	5307	1337.073313035923	1
0	5310	1337.772962900645	0
0	5340	1344.051209360591	1
0	5342	1344.350524739329	2
0	5343	1344.438047911513	1
0	5349	1344.758877727356	0
0	5368	1353.260707798607	1
0	5369	1353.769580727436	0
0	5400	1360.171728053513	1
0	5402	1362.256158611895	0
0	5411	1362.429418476784	1
0	5412	1362.442592020798	0
0	5439	1370.107224215932	1
0	5440	1370.223990842659	0
0	5455	1371.759120953786	1
0	5460	1374.528814578513	0
0	5473	1377.242452325859	1
0	5476	1378.150108121613	0
0	5482	1378.192232042794	1
0	5485	1378.557906465693	0
0	5494	1380.962671568217	1
0	5496	1382.846247296338	2
0	5499	1385.681314320728	1
0	5506	1387.75371911132	2
0	5508	1388.346433689983	1
0	5522	1391.135658062661	0
0	5528	1391.212699154003	1
0	5531	1392.943950638026	2
0	5535	1395.495601985222	3
0	5536	1398.226546931263	2
0	5542	1398.420926820834	3
0	5543	1398.866061853049	2
0	5548	1399.861049858224	1
0	5555	1401.240755749644	0
0	5749	1450.611712428208	1
0	5751	1451.863476133607	2
0	5752	1452.073147838697	1
0	5757	1452.365996855907	0
0	5778	1457.10248767388	1
0	5779	1457.297519652045	0
0	5836	1471.678179024304	1
0	5837	1471.789277637115	0
0	5843	1472.29002440422	1
0	5844	1472.573734405998	0
0	5929	1497.457118699816	1
0	5930	1497.78596026148	0
0	5953	1499.930067429885	1
0	5955	1500.342441458547	2
0	5957	1500.568279133881	3
0	5962	1502.197201723349	4
0	5964	1502.598549332358	3
0	5970	1503.703287223745	2
0	5980	1504.699798734437	1
0	5987	1506.196018568057	0
0	5993	1506.954030763978	1
0	5994	1507.048983475517	0
0	6015	1510.1628575715	1
0	6017	1510.861170897151	0
0	6064	1520.044710693962	1
0	6067	1520.67719623063	2
0	6068	1520.885628791446	1
0	6076	1522.57693565169	2
0	6078	1524.021691656111	3
0	6079	1524.858166922604	2
0	6086	1524.889356552856	1
0	6093	1525.972121635013	0
0	6112	1529.614452508933	1
0	6113	1529.871615136309	0
0	6168	1561.341486892744	1
0	6170	1563.317165400266	0
0	6211	1576.438535126853	1
0	6213	1577.118166495763	0
0	6254	1587.899660333678	1
0	6256	1588.462867377976	0
0	6285	1592.202117122501	1
0	6287	1593.080271838307	0
0	6296	1594.534496569155	1
0	6298	1594.593933615081	2
0	6299	1596.863340803586	1
0	6309	1598.184345836967	2
0	6312	1600.712682758532	1
0	6317	1600.952427589029	0
0	6330	1601.756494143854	1
0	6332	1602.10520253445	2
0	6334	1602.924538646706	3
0	6337	1603.379949149313	2
0	6344	1604.599779305816	1
0	6354	1605.864016767477	2
0	6358	1608.56721838519	1
0	6365	1609.662569327415	2
0	6368	1610.207771777927	1
0	6373	1611.004225837841	0
0	6384	1611.160050618965	1
0	6387	1612.217175995887	0
0	6405	1613.747629834444	1
0	6410	1614.444125573613	0
0	6424	1615.991807923036	1
0	6429	1617.733073740959	2
0	6431	1617.96668542209	3
0	6432	1618.25609523153	2
0	6438	1618.785696245201	3
0	6440	1619.620390951949	4
0	6441	1620.36476172924	3
0	6446	1620.634155331874	2
0	6452	1620.921077805066	3
0	6453	1620.929412902027	2
0	6460	1621.81450662918	1
0	6465	1622.174317013292	0
0	6471	1626.085153527186	1
0	6478	1627.831859268215	2
0	6480	1628.087934047748	1
0	6488	1628.73476993236	0
0	6506	1629.720903884742	1
0	6507	1629.910589538227	0
0	6526	1635.847524899041	1
0	6531	1637.047144441243	0
0	6550	1640.817374281154	1
0	6556	1641.463885942789	2
0	6559	1642.965769073174	1
0	6565	1643.034978322313	2
0	6567	1643.157249166061	3
0	6570	1644.25812106246	4
0	6574	1645.526874848493	3
0	6580	1645.907846581524	2
0	6587	1646.173726978874	1
0	6593	1646.316746074229	0
0	6608	1648.246615660107	1
0	6612	1652.070180617078	0
0	6618	1652.461484631123	1
0	6621	1654.061338069619	0
0	6637	1656.199122859061	1
0	6646	1658.890506004243	0
0	6652	1659.144261017541	1
0	6654	1659.299490454748	2
0	6655	1661.00901666687	1
0	6660	1662.437536284013	0
0	6673	1663.370723204909	1
0	6675	1663.634009652293	2
0	6677	1664.612185805357	3
0	6678	1665.848216147007	2
0	6684	1666.949236300932	1
0	6689	1667.029387953372	0
0	6709	1669.920543154551	1
0	6710	1670.076321640683	0
0	6743	1676.489443213113	1
0	6750	1679.841869454443	0
0	6767	1682.953392718045	1
0	6769	1683.034405374914	2
0	6775	1684.607390185894	3
0	6778	1685.427091641395	2
0	6784	1685.862854901597	3
0	6787	1686.632207232948	2
0	6792	1686.649303402012	1
0	6800	1689.131241420209	2
0	6801	1689.251262743776	1
0	6806	1689.42583303094	0
0	6812	1689.662420032819	1
0	6813	1690.634714689642	0
0	6826	1696.749693383519	1
0	6827	1696.890056493327	0
0	6871	1704.759128466972	1
0	6873	1704.905611281251	2
0	6877	1705.687916332349	3
0	6882	1709.043453527045	2
0	6888	1710.744628603049	3
0	6890	1711.832533354974	2
0	6895	1711.887777629316	1
0	6901	1712.025065333436	2
0	6905	1713.055203325367	1
0	6914	1714.232956946423	0
0	6937	1717.66371869903	1
0	6941	1718.033025429283	2
0	6943	1718.09694048098	3
0	6946	1721.290467519382	2
0	6952	1722.379828725036	1
0	6957	1722.487511022155	0
0	6963	1722.850673762883	1
0	6967	1724.525554278126	2
0	6970	1725.428575602529	1
0	6977	1727.563495551903	2
0	6978	1727.613051660134	1
0	6983	1727.724774968418	0
0	7001	1730.362509415831	1
0	7006	1731.922902677599	2
0	7007	1732.655881265175	1
0	7015	1733.345390375958	2
0	7016	1733.461638845902	1
0	7021	1733.792882645767	0
0	7035	1735.438093892538	1
0	7037	1735.969182641298	2
0	7040	1736.429241751443	1
0	7046	1736.674097729508	2
0	7050	1737.162002046576	3
0	7053	1738.089360876636	4
0	7055	1738.099510974341	5
0	7057	1738.145123903186	6
0	7059	1739.467679641097	5
0	7065	1740.050108623614	4
0	7075	1740.80234682747	5
0	7079	1741.860766947021	4
0	7085	1743.094427721312	3
0	7092	1743.281153122993	2
0	7100	1744.21656014692	1
0	7107	1744.734621041539	2
0	7110	1744.945376031587	1
0	7119	1748.613486392181	0
0	7143	1751.287829516029	1
0	7144	1753.761719111994	0
0	7153	1755.332440412194	1
0	7156	1756.943835151894	2
0	7159	1757.747090069413	3
0	7160	1758.020541485098	2
0	7165	1758.070497072305	1
0	7172	1759.152528675102	2
0	7174	1760.062381319437	3
0	7177	1760.248299788111	2
0	7183	1760.785466913984	3
0	7185	1761.256297158919	2
0	7190	1761.373931605079	1
0	7195	1761.984577856227	0
0	7204	1763.159960261732	1
0	7205	1764.196120646779	0
0	7244	1770.272224114606	1
0	7246	1770.50837094428	0
0	7262	1772.970708529995	1
0	7265	1774.318049490469	0
0	7277	1775.122673338536	1
0	7279	1775.622328409006	2
0	7281	1776.111440930002	3
0	7286	1778.521256742177	4
0	7288	1779.816455411357	5
0	7292	1782.188902304122	6
0	7293	1784.371548716697	5
0	7298	1785.53497049096	4
0	7303	1786.228417521722	3
0	7311	1787.250872596024	2
0	7316	1787.261921084056	1
0	7321	1787.546770714897	0
0	7327	1788.781511504571	1
0	7328	1789.075312831886	0
0	7343	1790.034765702183	1
0	7345	1790.632787548983	2
0	7349	1792.335081216008	3
0	7350	1792.914352236646	2
0	7356	1793.720231900169	3
0	7358	1794.607746900486	4
0	7361	1795.162402087355	5
0	7362	1795.239320065966	4
0	7367	1795.419048512216	3
0	7373	1795.669889105216	4
0	7374	1795.684429098623	3
0	7382	1797.285093233549	2
0	7389	1797.95907726385	1
0	7395	1798.043390365543	2
0	7397	1798.453404980359	3
0	7398	1799.06171304329	2
0	7405	1799.789132468944	3
0	7407	1799.989594264908	2
0	7412	1800.864815216935	1
0	7417	1801.632273030396	0
0	7437	1806.212730384048	1
0	7438	1807.812345030736	0
0	7479	1814.115513762418	1
0	7481	1814.494688830142	2
0	7482	1814.938486708511	1
0	7488	1815.235199552613	2
0	7492	1818.251374277352	1
0	7497	1818.579900636636	0
0	7527	1828.655685991582	1
0	7530	1830.009202066088	0
0	7563	1836.674528769602	1
0	7565	1836.9166062742	2
0	7570	1837.705212942158	1
0	7576	1837.935973738248	2
0	7578	1838.098394854811	1
0	7586	1839.222618605216	2
0	7587	1839.430048918906	1
0	7592	1839.492847859874	0
0	7624	1847.795669780422	1
0	7626	1851.954147034113	0
0	7656	1860.866636947653	1
0	7657	1861.8278477939	0
0	7663	1862.165076430708	1
0	7666	1863.225974563492	0
0	7699	1870.506294527338	1
0	7701	1872.528847705367	2
0	7705	1872.911268266663	3
0	7707	1874.931828415007	4
0	7711	1878.364669955238	5
0	7714	1880.455296176015	4
0	7720	1881.191842747444	3
0	7725	1883.511645683725	2
0	7730	1883.704523579654	1
0	7737	1885.189808486231	0
0	7769	1893.96185566037	1
0	7772	1895.338923108913	0
0	7785	1898.645163766677	1
0	7789	1899.371288564485	2
0	7791	1899.471540903082	3
0	7792	1900.531132593396	2
0	7797	1900.750201647176	1
0	7802	1902.002002964172	0
0	7833	1911.315168776187	1
0	7834	1911.497554828268	0
0	7872	1924.949281487534	1
0	7875	1925.823054945625	0
0	7889	1927.082619589629	1
0	7890	1928.84362480575	0
0	7897	1929.770021518532	1
0	7899	1930.641040186283	2
0	7900	1931.15143691175	1
0	7906	1931.720394164095	2
0	7907	1931.902184483311	1
0	7914	1932.087813934514	2
0	7915	1932.769450171662	1
0	7921	1932.807058115615	2
0	7924	1933.500118406832	1
0	7931	1934.265167559324	2
0	7932	1934.560140357196	1
0	7939	1938.963146361546	0
0	7946	1939.365746648516	1
0	7949	1941.876969948396	0
0	7977	1956.071625588642	1
0	7980	1957.043554019852	0
0	8011	1969.89817001327	1
0	8012	1969.957098056807	0
0	8033	1976.909038198653	1
0	8034	1978.580853865527	0
0	8067	1987.881669219616	1
0	8068	1988.11192552294	0
0	8074	1988.314310339929	1
0	8075	1988.391176123996	0
0	8101	1995.301434718093	1
0	8103	1996.982762542066	0
0	8124	2000.171019374457	1
0	8125	2001.567705964296	0
0	8139	2006.073829834308	1
0	8144	2007.257962447838	0
0	8233	2035.524916094219	1
0	8234	2037.941071433977	0
0	8263	2042.302393968	1
0	8264	2042.328211187255	0
0	8316	2054.066275417177	1
0	8320	2056.370648752655	2
0	8322	2056.3889539743	3
0	8324	2056.885335774248	4
0	8326	2057.579587777922	5
0	8327	2058.457559375746	4
0	8333	2061.547854090034	3
0	8339	2062.086849702388	2
0	8345	2062.390344279721	3
0	8349	2065.692191258191	4
0	8352	2068.222373714962	3
0	8358	2068.395925775992	4
0	8359	2068.522108462092	3
0	8368	2069.595131510826	4
0	8369	2069.988167692712	3
0	8374	2070.237618831188	2
0	8379	2070.577726974572	1
0	8384	2071.676602814892	0
0	8424	2077.458343534734	1
0	8426	2078.413873685211	2
0	8429	2079.680223592936	1
0	8435	2082.970206236986	0
0	8489	2103.590258261428	1
0	8490	2104.932955808793	0
0	8496	2106.010898284323	1
0	8499	2106.143885281094	0
0	8517	2110.76465745731	1
0	8521	2111.384334112978	2
0	8524	2113.760232154215	1
0	8529	2113.767084747025	0
0	8555	2125.210094164235	1
0	8557	2126.391624216197	2
0	8561	2126.762130601614	3
0	8565	2127.238251569648	4
0	8566	2127.726794648302	3
0	8571	2127.750911031039	2
0	8576	2127.88060840777	1
0	8581	2128.812360378665	0
0	8602	2130.594873735372	1
0	8606	2131.293387551714	2
0	8608	2131.55266345121	3
0	8610	2132.101890059894	2
0	8619	2133.647554756431	1
0	8624	2134.072027564013	0
0	8638	2135.896605069832	1
0	8639	2136.402734820771	0
0	8651	2139.05774883508	1
0	8654	2141.135908989835	0
0	8660	2141.615189627847	1
0	8661	2141.638677892052	0
0	8673	2142.42643307223	1
0	8677	2143.288518456407	2
0	8678	2143.56056484089	1
0	8687	2144.391243387443	2
0	8688	2145.081719377772	1
0	8693	2145.406627703841	0
0	8743	2160.884156325194	1
0	8745	2161.548789450748	0
0	8785	2168.056262721141	1
0	8786	2169.004111237978	0
0	8807	2172.632642320814	1
0	8808	2173.43935089701	0
0	8821	2174.173874191928	1
0	8822	2174.646255709317	0
0	8828	2175.263183354225	1
0	8834	2180.802066995189	2
0	8835	2182.505676357086	1
0	8841	2183.3831541269	2
0	8845	2185.293306770283	1
0	8850	2186.232686221771	0
0	8913	2201.677802354906	1
0	8914	2201.823762764146	0
0	8928	2207.302932579435	1
0	8929	2207.449697369446	0
0	8975	2220.923998266902	1
0	8976	2222.104375966694	0
0	9045	2237.676969918227	1
0	9047	2238.127808093814	2
0	9048	2238.189618320915	1
0	9054	2239.716946430665	0
0	9069	2242.864599748398	1
0	9070	2243.072750290839	0
0	9103	2255.460928962835	1
0	9105	2255.733383444193	2
0	9107	2255.805965767296	3
0	9108	2255.819577588484	2
0	9118	2259.803025531018	1
0	9123	2259.930665612562	0
0	9141	2265.255922156137	1
0	9142	2266.973833672205	0
0	9181	2276.737258460159	1
0	9182	2277.699133058074	0
0	9271	2308.044186119394	1
0	9272	2308.535615781625	0
0	9278	2308.850045835375	1
0	9279	2308.932177659366	0
0	9287	2309.932217435614	1
0	9288	2310.879482889279	0
0	9326	2319.483772207127	1
0	9328	2319.515649015015	2
0	9331	2320.71355548257	1
0	9336	2321.059240556314	0
0	9342	2321.400782229787	1
0	9346	2322.559333110632	2
0	9348	2323.046975730435	1
0	9355	2323.566883533268	0
0	9366	2323.752554825641	1
0	9369	2324.056522698126	2
0	9370	2324.157864070286	1
0	9375	2324.956819999187	0
0	9382	2325.612954879784	1
0	9390	2330.903792661941	0
0	9407	2332.039511105973	1
0	9408	2332.87912964967	0
0	9466	2352.419231847234	1
0	9468	2354.505225060801	0
0	9505	2362.801458182737	1
0	9507	2362.975804875359	0
0	9523	2365.145352422577	1
0	9524	2365.829574011893	0
0	9540	2368.582427518272	1
0	9543	2370.366190522359	0
0	9581	2380.657919932715	1
0	9582	2380.853259912838	0
0	9596	2382.181137479204	1
0	9598	2382.234525421942	2
0	9600	2382.990944749642	3
0	9601	2383.390642515017	2
0	9607	2383.94128783909	3
0	9609	2384.696490812224	4
0	9610	2384.986845569167	3
0	9617	2387.49275275035	2
0	9622	2387.918436365812	1
0	9630	2388.808819470441	0
0	9651	2396.533961379895	1
0	9655	2398.08202770082	0
0	9674	2400.514839160112	1
0	9680	2404.145043265138	0
0	9735	2414.431911069808	1
0	9741	2415.821495194559	0
0	9751	2418.787303835799	1
0	9753	2419.191437899084	2
0	9759	2421.549977615299	3
0	9760	2421.803333989016	2
0	9765	2421.804479584452	1
0	9770	2422.855296556141	0
0	9797	2427.953341693731	1
0	9805	2429.957135196986	2
0	9806	2430.271133283136	1
0	9812	2430.620035396155	0
0	9827	2434.272014501586	1
0	9830	2435.030538697465	0
0	9837	2436.040071610938	1
0	9844	2437.679152020152	0
0	9851	2438.660551674195	1
0	9854	2442.075397143297	0
0	9860	2442.192712027538	1
0	9862	2442.357937682059	2
0	9866	2443.422975594468	1
0	9871	2443.832456494334	0
0	9883	2445.606267888558	1
0	9884	2446.110774164185	0
0	9912	2451.359981593314	1
0	9913	2451.734343280565	0
0	9926	2453.782905028143	1
0	9927	2454.465797203293	0
0	9933	2455.386098427969	1
0	9934	2455.985488269959	0
0	9953	2459.342018057006	1
0	9955	2460.387775987731	0
0	9970	2462.727963945613	1
0	9971	2463.874874660563	0
0	9982	2464.157828886941	1
0	9984	2467.562706085368	0
0	9990	2467.90664168515	1
0	9994	2468.633657729086	2
0	9995	2468.772719690332	1
0	10000	2469.067792711155	0
0	10013	2470.37054403856	1
0	10015	2471.056381967516	2
0	10017	2471.447038858785	3
0	10022	2472.766762105984	2
0	10027	2472.776816576007	1
0	10034	2474.649473476248	0
0	10069	2485.8617518834	1
0	10070	2486.317926261096	0
0	10103	2491.891532229689	1
0	10105	2494.003337694174	2
0	10108	2494.936282374241	3
0	10110	2495.260255500567	4
0	10111	2496.173167903502	3
0	10116	2496.244648517603	2
0	10122	2496.288994913069	3
0	10125	2496.556811018213	4
0	10126	2497.246011703348	3
0	10133	2499.993160850936	2
0	10139	2500.047367236622	3
0	10140	2501.130220954538	2
0	10145	2501.986024438805	1
0	10151	2502.017630860075	2
0	10152	2502.390861176763	1
0	10159	2505.312773404553	0
0	10167	2507.20931941877	1
0	10168	2507.319177234132	0
0	10221	2515.836508921532	1
0	10225	2517.711471379915	2
0	10226	2518.248421362547	1
0	10232	2518.512587028608	2
0	10234	2519.906427008232	1
0	10243	2523.450754272528	2
0	10245	2524.159660225118	3
0	10246	2524.48080647236	2
0	10252	2525.036646781502	1
0	10258	2526.208521802329	0
0	10264	2526.577789980937	1
0	10266	2526.963064431189	2
0	10268	2527.335986853662	3
0	10270	2527.437098616612	4
0	10272	2527.499180313318	5
0	10273	2527.75851557195	4
0	10281	2530.821414403774	5
0	10283	2531.261452039453	6
0	10288	2533.197253877167	5
0	10294	2533.548058769143	4
0	10300	2533.844492979304	3
0	10307	2535.043392364022	4
0	10309	2536.487179706602	3
0	10314	2536.684878854257	2
0	10319	2537.164521749956	1
0	10324	2538.066912174548	0
0	10330	2538.730831461083	1
0	10331	2540.392811731649	0
0	10337	2540.557343041308	1
0	10339	2540.727051895133	2
0	10340	2541.065611081537	1
0	10344	2544.088262772347	2
0	10348	2544.208987990631	3
0	10356	2545.41185927325	4
0	10357	2545.657003621803	3
0	10364	2546.504423216412	2
0	10369	2548.221835241515	1
0	10374	2548.258078260439	0
0	10399	2550.069536903168	1
0	10401	2550.079880219255	2
0	10402	2550.464933220918	1
0	10408	2550.687546275454	2
0	10410	2551.209351393564	3
0	10414	2552.717942767213	2
0	10419	2552.760958286717	1
0	10427	2553.642373710372	2
0	10429	2554.574438059855	1
0	10436	2555.663995770854	2
0	10437	2555.899576972735	1
0	10442	2556.767335878001	0
0	10477	2560.160553033802	1
0	10478	2560.687267406258	0
0	10500	2563.163798881362	1
0	10502	2563.778538747413	0
0	10535	2584.79192210917	1
0	10537	2585.103063549561	2
0	10539	2585.449514811957	3
0	10540	2585.875058885731	2
0	10545	2587.669192330594	1
0	10554	2589.070271029783	0
0	10565	2589.18878650747	1
0	10567	2589.68434518463	2
0	10570	2591.068392063543	3
0	10571	2591.782243608198	2
0	10577	2591.825149257572	3
0	10578	2594.091563201702	2
0	10583	2594.096329356962	1
0	10589	2595.935868542411	0
0	10601	2596.925508739815	1
0	10602	2598.873912786556	0
0	10635	2611.97409293035	1
0	10637	2613.405657758844	0
0	10682	2620.221144686607	1
0	10683	2620.429127902298	0
0	10724	2627.73763970117	1
0	10725	2627.953091121515	0
0	10739	2630.31322526258	1
0	10740	2630.993543600632	0
0	10783	2642.211405147792	1
0	10784	2644.154963023551	0
0	10798	2645.164957907073	1
0	10801	2645.827555523025	0
0	10827	2647.870608439017	1
0	10830	2648.423387539055	0
0	10844	2653.763874193316	1
0	10846	2654.968572482112	2
0	10848	2655.034417057852	3
0	10849	2656.185927538818	2
0	10856	2657.280114302084	1
0	10861	2657.695691958301	0
0	10912	2668.472971477739	1
0	10913	2668.53587649341	0
0	10942	2678.773582819753	1
0	10944	2679.25652446887	2
0	10945	2679.891400343663	1
0	10950	2679.894306498211	0
0	10963	2682.420945465944	1
0	10967	2682.499179045406	2
0	10968	2683.10022984004	1
0	10975	2683.9996357989	0
0	11004	2694.95907999625	1
0	11006	2695.95197172675	2
0	11007	2696.290279035649	1
0	11012	2696.588604121016	0
0	11034	2701.801250331494	1
0	11036	2702.024365566358	2
0	11039	2702.995055107107	1
0	11046	2704.144056462962	0
0	11060	2706.80303062225	1
0	11063	2707.693544673624	0
0	11078	2709.154710526706	1
0	11079	2710.246142296496	0
0	11108	2717.047719498448	1
0	11110	2717.770503974601	2
0	11111	2717.830714830051	1
0	11118	2718.002601740605	0
0	11130	2721.333297845023	1
0	11132	2723.402387780937	0
0	11143	2725.845405110576	1
0	11147	2727.516765119717	0
0	11173	2742.566171236067	1
0	11174	2744.378844426267	0
0	11180	2744.521022266581	1
0	11185	2748.233806617434	0
0	11194	2749.870331758306	1
0	11196	2750.930968762608	2
0	11197	2751.044490858287	1
0	11202	2751.15092448738	0
0	11236	2758.693128283619	1
0	11238	2759.535638374846	2
0	11244	2761.424805510203	3
0	11245	2762.319494473285	2
0	11253	2763.039281484489	1
0	11260	2763.860877105737	0
0	11275	2765.521244388119	1
0	11276	2766.335664590501	0
0	11287	2767.375644278469	1
0	11290	2767.473035872967	2
0	11292	2768.1985212565	1
0	11297	2769.1357552683	0
0	11310	2770.942776967279	1
0	11311	2772.082890736535	0
0	11348	2782.723857772455	1
0	11349	2783.904590906197	0
0	11364	2786.490525575679	1
0	11366	2787.268551647009	0
0	11373	2789.291076241944	1
0	11374	2789.467624961135	0
0	11422	2803.245925533908	1
0	11425	2803.566943420682	2
0	11427	2805.067882282322	3
0	11428	2805.582389729829	2
0	11434	2806.22694721603	1
0	11439	2806.455473699589	0
0	11475	2811.788549634024	1
0	11476	2812.192452337505	0
0	11511	2819.152410993101	1
0	11512	2819.986656057069	0
0	11518	2820.22625012193	1
0	11519	2821.908408309601	0
0	11541	2831.843118413342	1
0	11544	2832.298734024279	0
0	11564	2835.475273688997	1
0	11566	2836.176727391404	2
0	11569	2836.805660818591	1
0	11575	2837.147294456572	2
0	11576	2837.232782791278	1
0	11584	2839.897631256383	0
0	11602	2841.18729755557	1
0	11603	2841.301788997288	0
0	11621	2841.722962195375	1
0	11624	2843.380263588116	0
0	11636	2843.84292126479	1
0	11637	2844.354549308103	0
0	11646	2845.08397172453	1
0	11647	2845.274231109162	0
0	11701	2855.019384731124	1
0	11702	2855.102748165341	0
0	11708	2855.264789523436	1
0	11711	2856.138636733011	0
0	11725	2859.683855838231	1
0	11726	2859.955392906398	0
0	11733	2860.385803872553	1
0	11736	2860.554497211186	2
0	11739	2860.883610705054	3
0	11741	2861.058489232657	4
0	11742	2862.182942430505	3
0	11747	2862.208126720645	2
0	11753	2862.266277463291	1
0	11759	2863.82638347113	0
0	11789	2870.28340671632	1
0	11791	2871.422901713782	2
0	11793	2871.996334149112	1
0	11799	2872.243973482317	2
0	11800	2872.583306057838	1
0	11805	2872.59648538505	0
0	11849	2879.959757267246	1
0	11850	2880.45170380277	0
0	11898	2894.045711377142	1
0	11900	2894.374955537451	2
0	11903	2895.137850567942	1
0	11908	2895.345901655482	0
0	11914	2895.808286482812	1
0	11915	2897.019874655307	0
0	11929	2901.77445574027	1
0	11931	2902.446649995221	2
0	11933	2903.607064318154	3
0	11934	2904.626792158426	2
0	11940	2905.582092597003	1
0	11946	2905.930660174871	2
0	11949	2907.08912673901	1
0	11954	2908.469069231941	0
0	11996	2919.719730381644	1
0	11997	2920.04979856456	0
0	12003	2920.563652743733	1
0	12008	2922.502858811625	0
0	12015	2922.963248747506	1
0	12016	2923.285874996575	0
0	12022	2923.571427517756	1
0	12023	2923.579691368265	0
0	12044	2927.468666100819	1
0	12045	2927.904942396601	0
0	12095	2940.092398632422	1
0	12097	2940.216952177115	2
0	12099	2940.851963860751	1
0	12105	2941.563811533496	2
0	12106	2941.913372329252	1
0	12114	2944.186877960376	0
0	12137	2945.988087589117	1
0	12139	2946.105723465509	0
0	12170	2958.0593949635	1
0	12172	2958.177461400031	0
0	12181	2959.245594589564	1
0	12182	2959.827827327534	0
0	12195	2961.84556227706	1
0	12200	2962.222101780372	2
0	12202	2962.274405396694	3
0	12206	2965.666264035233	4
0	12207	2966.951849960554	3
0	12215	2968.066888506827	4
0	12216	2968.814169803063	3
0	12221	2968.907079782433	2
0	12226	2969.705248236139	1
0	12231	2970.371996012442	0
0	12259	2973.896929554777	1
0	12260	2975.750943275325	0
0	12275	2976.488876870164	1
0	12279	2976.86304872086	2
0	12280	2976.943590386806	1
0	12286	2977.127458909996	2
0	12288	2977.686944819876	3
0	12289	2978.074311965166	2
0	12294	2978.280078140882	1
0	12299	2978.690496791505	0
0	12340	2985.61383626622	1
0	12342	2985.759643780749	2
0	12343	2985.845596182013	1
0	12349	2987.176815478462	0
0	12360	2988.946213606479	1
0	12367	2995.243802874237	2
0	12368	2995.539925735783	1
0	12374	2996.261687992222	0
0	12388	2999.698215226058	1
0	12390	2999.885793836614	2
0	12392	3000.066028927307	3
0	12393	3000.411282286351	2
0	12398	3000.871642026119	1
0	12404	3002.235382264231	0
0	12413	3007.19434176174	1
0	12414	3007.752512945729	0
0	12421	3009.15462967277	1
0	12422	3009.29432178987	0
0	12484	3032.580042199229	1
0	12485	3033.190968496915	0
0	12539	3047.550243854499	1
0	12542	3049.034057208755	0
0	12556	3052.910187325272	1
0	12557	3053.71540329363	0
0	12568	3054.409534875923	1
0	12571	3055.394153011496	2
0	12572	3056.631892742116	1
0	12578	3056.708757552413	2
0	12580	3056.954070453737	3
0	12581	3057.075323919751	2
0	12589	3058.038037417984	1
0	12595	3058.236314358747	0
0	12608	3059.593516862512	1
0	12610	3060.721237420681	0
0	12649	3066.478688796864	1
0	12650	3067.243168499223	0
0	12674	3070.922852789799	1
0	12679	3073.029102317065	0
0	12690	3073.654797755545	1
0	12692	3073.739847570521	2
0	12693	3074.46755018726	1
0	12698	3074.856101637152	0
0	12715	3077.607974208711	1
0	12717	3078.71631987989	0
0	12725	3079.908799758949	1
0	12726	3079.962687176969	0
0	12740	3081.861672374659	1
0	12742	3083.064046959681	2
0	12745	3085.818381936029	1
0	12752	3086.688278204933	0
0	12763	3088.859960634479	1
0	12765	3089.475704748734	2
0	12767	3089.568586679987	3
0	12768	3091.840037693948	2
0	12774	3093.439481381198	3
0	12778	3094.363672271915	2
0	12785	3095.082339424619	1
0	12790	3096.438962353516	0
0	12797	3098.223226934148	1
0	12802	3100.478042212138	0
0	12811	3102.003562266599	1
0	12812	3102.292275968226	0
0	12839	3104.473848513067	1
0	12842	3105.88136431134	0
0	12863	3109.098967069548	1
0	12864	3109.269016944132	0
0	12881	3111.285131147694	1
0	12882	3111.977527436029	0
0	12915	3126.438578014935	1
0	12916	3128.091347561726	0
0	12944	3134.610958027609	1
0	12946	3135.023787318212	2
0	12947	3136.176370103766	1
0	12954	3136.490089712269	0
0	12960	3136.85837435754	1
0	12965	3137.316174621513	2
0	12967	3137.4731226972	1
0	12973	3138.382035562599	0
0	12979	3138.898557331183	1
0	12983	3141.515913703938	0
0	13000	3148.50091835308	1
0	13002	3151.700563807032	2
0	13005	3153.109238135371	1
0	13010	3153.224464204204	0
0	13036	3156.291285927045	1
0	13037	3157.054569347574	0
0	13049	3158.992361419165	1
0	13050	3159.162488640131	0
0	13085	3162.617805232195	1
0	13087	3164.38314457684	0
0	13161	3182.983606639864	1
0	13162	3183.181071967629	0
0	13209	3192.675968725459	1
0	13211	3193.4439819138	0
0	13271	3213.165959193732	1
0	13272	3213.847174776607	0
0	13303	3219.823214657539	1
0	13304	3220.261698602638	0
0	13317	3223.448857425291	1
0	13319	3223.777799968457	0
0	13337	3227.751513211824	1
0	13339	3228.411607440638	2
0	13341	3228.747948900354	3
0	13342	3229.24112488356	2
0	13347	3229.704374760775	1
0	13352	3229.833418541921	0
0	13396	3242.559816771841	1
0	13398	3243.453917662697	0
0	13501	3274.168246705953	1
0	13504	3275.507542536143	2
0	13505	3276.575929501708	1
0	13511	3276.607161561679	0
0	13518	3278.291676320255	1
0	13520	3278.768775013657	0
0	13536	3282.564659853111	1
0	13537	3284.171164945322	0
0	13569	3295.589538397647	1
0	13570	3296.63030294705	0
0	13584	3297.773950686489	1
0	13585	3298.708372007978	0
0	13591	3298.976822878627	1
0	13592	3301.98120757541	0
0	13616	3311.176608113248	1
0	13618	3313.498455468601	0
0	13640	3322.180497900161	1
0	13641	3323.130681245217	0
0	13647	3324.05922894253	1
0	13648	3325.296987283487	0
0	13663	3328.562936804026	1
0	13666	3328.722105528241	0
0	13722	3337.789333903933	1
0	13726	3338.703735408684	0
0	13734	3340.412321903387	1
0	13736	3341.348999130461	2
0	13737	3343.001080299386	1
0	13743	3343.687342997379	0
0	13769	3348.862314223455	1
0	13770	3349.052768682575	0
0	13792	3351.504776233381	1
0	13795	3352.586893364154	0
0	13812	3356.526751805912	1
0	13815	3358.288487672785	0
0	13835	3363.141835223714	1
0	13836	3363.292559595944	0
0	13849	3366.311003125795	1
0	13850	3367.20103599479	0
0	13885	3375.146718046608	1
0	13887	3375.243264682635	2
0	13889	3375.924664017615	3
0	13894	3379.399587983454	4
0	13895	3380.40998315911	3
0	13900	3380.461855316278	2
0	13909	3381.578762297356	3
0	13911	3382.883077036005	2
0	13917	3383.895643936756	3
0	13919	3385.80021972598	2
0	13924	3387.246133080911	1
0	13933	3388.101549519994	0
0	13944	3389.033136399194	1
0	13947	3389.852979834372	2
0	13951	3392.089268441365	3
0	13955	3392.509242352866	4
0	13956	3392.561053733684	3
0	13964	3393.181946167243	2
0	13970	3393.534771720963	3
0	13971	3393.797534504721	2
0	13976	3393.962271817443	1
0	13987	3398.938169299319	0
0	14006	3401.415423895786	1
0	14007	3402.772849083876	0
0	14029	3406.626180024799	1
0	14032	3407.691113330159	0
0	14049	3410.32796611863	1
0	14052	3410.977820589217	2
0	14053	3411.681894027138	1
0	14058	3412.098863914006	0
0	14064	3412.170609710728	1
0	14066	3412.319926057428	2
0	14069	3413.455067751073	3
0	14070	3413.598026928786	2
0	14075	3413.62558944358	1
0	14081	3414.074311069265	0
0	14087	3415.406246227315	1
0	14089	3416.434801047443	0
0	14100	3417.13033326362	1
0	14104	3417.681943002408	0
0	14136	3423.475195207605	1
0	14140	3424.793008029097	0
0	14147	3425.614742882911	1
0	14148	3426.177486637728	0
0	14167	3428.609812286914	1
0	14168	3428.618792454544	0
0	14179	3430.876109469672	1
0	14180	3430.931800873924	0
0	14192	3432.211004096803	1
0	14193	3432.599470709847	0
0	14253	3453.213366590299	1
0	14255	3458.23379206929	0
0	14261	3458.372821986475	1
0	14263	3460.169214051699	0
0	14269	3461.048834501495	1
0	14272	3462.49736195836	2
0	14274	3462.521730441804	3
0	14276	3462.92473418284	4
0	14277	3463.010313278472	3
0	14283	3463.519404919948	2
0	14288	3464.099111662291	1
0	14294	3464.874770167226	2
0	14297	3465.542965728554	3
0	14299	3466.710595364148	4
0	14300	3466.731173363981	3
0	14306	3466.865548133928	4
0	14308	3466.974320224955	3
0	14313	3467.154240714969	2
0	14325	3473.574414050396	1
0	14332	3474.409811477257	0
0	14346	3478.693354032984	1
0	14347	3478.760000047256	0
0	14367	3481.280684866331	1
0	14371	3482.511232529671	0
0	14449	3507.511032000657	1
0	14450	3507.748944749838	0
0	14461	3508.537221674214	1
0	14462	3508.889752391929	0
0	14496	3515.802910982433	1
0	14497	3517.319040053184	0
0	14530	3526.960805782323	1
0	14531	3527.530103536428	0
0	14537	3527.746465282619	1
0	14539	3528.033761175697	2
0	14540	3528.405898781841	1
0	14545	3528.583829801659	0
0	14560	3531.193446481572	1
0	14562	3531.32224483287	2
0	14563	3531.509016582374	1
0	14570	3532.867110562158	2
0	14574	3533.748614195532	3
0	14575	3535.443328060421	2
0	14581	3537.618171932771	1
0	14588	3537.919627722497	2
0	14590	3538.417661108316	3
0	14592	3538.444615660498	4
0	14593	3539.267054589059	3
0	14598	3539.648251329874	2
0	14604	3540.661249483431	1
0	14609	3540.710559687042	0
0	14615	3540.856986979521	1
0	14617	3542.132405428036	0
0	14630	3543.184464316152	1
0	14631	3543.44558096565	0
0	14646	3545.550772284072	1
0	14647	3547.406032906236	0
0	14677	3554.869062058909	1
0	14681	3555.323297210767	2
0	14682	3555.57690217786	1
0	14690	3556.769514011734	2
0	14691	3557.404765913763	1
0	14696	3557.428795227297	0
0	14703	3557.986998624507	1
0	14704	3559.448151079424	0
0	14727	3571.122428924925	1
0	14728	3572.886625733912	0
0	14744	3574.705642505256	1
0	14745	3575.142704290497	0
0	14756	3576.758301617549	1
0	14758	3577.376403676703	2
0	14760	3577.67568393517	3
0	14761	3577.93194268761	2
0	14772	3582.827871566371	1
0	14778	3582.86774590557	0
0	14843	3593.303902413083	1
0	14844	3593.578593909205	0
0	14853	3596.107561373837	1
0	14855	3596.521164177764	2
0	14856	3596.667530971162	1
0	14863	3597.734055774232	0
0	14887	3605.614091210859	1
0	14890	3606.629713548418	2
0	14891	3607.26200261149	1
0	14896	3607.763183223727	0
0	14925	3611.470732352599	1
0	14929	3612.974424264556	0
0	14952	3617.281759533468	1
0	14953	3617.66097184318	0
0	14959	3617.753429082081	1
0	14960	3617.800918439914	0
0	14980	3621.509155444142	1
0	14982	3623.016461475751	0
0	15022	3631.010859261616	1
0	15023	3631.15716295127	0
0	15034	3632.593323246307	1
0	15038	3633.262505396543	2
0	15039	3634.429754651883	1
0	15045	3635.021184568992	0
0	15051	3635.34004738324	1
0	15052	3635.62814364112	0
0	15078	3640.50145278173	1
0	15079	3641.987288543176	0
0	15117	3651.249482679567	1
0	15120	3652.915387157392	0
0	15135	3655.759460300813	1
0	15137	3656.195831957583	0
0	15173	3663.209690567723	1
0	15176	3663.745118181034	0
0	15236	3686.806135596115	1
0	15237	3687.528495888544	0
0	15243	3687.722918163678	1
0	15244	3688.069305811398	0
0	15254	3689.764798421429	1
0	15258	3691.877135542942	2
0	15263	3692.730448942566	3
0	15266	3694.920259957155	2
0	15272	3695.17466017323	1
0	15277	3695.580812837431	0
0	15304	3699.663088979635	1
0	15308	3701.524022630357	0
0	15320	3701.998223181534	1
0	15322	3702.800040550215	2
0	15327	3705.553353946004	1
0	15332	3706.221110268151	0
0	15342	3707.356391589235	1
0	15343	3707.939200794693	0
0	15358	3709.379654822007	1
0	15366	3712.006991741784	2
0	15369	3713.05129273168	1
0	15375	3713.460783923469	2
0	15377	3714.304017280447	1
0	15386	3716.405472150303	2
0	15387	3716.793552596707	1
0	15398	3718.682626201317	0
0	15410	3720.47993552761	1
0	15414	3725.162022792125	2
0	15417	3726.499667877811	1
0	15423	3727.506816331035	2
0	15425	3727.557209414053	3
0	15426	3727.776502824394	2
0	15433	3728.586454777016	1
0	15439	3728.795720476125	2
0	15440	3729.067808828926	1
0	15446	3729.673204568065	0
0	15470	3736.978347139071	1
0	15472	3737.157428842575	2
0	15473	3738.084683686764	1
0	15478	3738.205420699259	0
0	15488	3739.101930113676	1
0	15492	3742.32413475487	0
0	15498	3743.264631669153	1
0	15500	3743.938146833766	0
0	15506	3744.41156898893	1
0	15508	3744.794100394006	2
0	15510	3744.958164109076	3
0	15513	3745.691447854041	2
0	15520	3747.416424492747	1
0	15525	3748.310622610253	0
0	15537	3750.041806704438	1
0	15539	3750.82613142004	0
0	15555	3754.939317361741	1
0	15559	3755.771375703886	2
0	15562	3756.50988362619	1
0	15572	3758.261657589399	0
0	15617	3772.852597501503	1
0	15618	3773.161862866548	0
0	15635	3775.024535017872	1
0	15637	3775.431248328574	2
0	15639	3775.435750960582	3
0	15642	3776.212643548043	2
0	15647	3777.286515510443	1
0	15654	3778.595122218539	0
0	15699	3784.798356755159	1
0	15701	3785.090727230509	2
0	15705	3786.796617544551	1
0	15710	3787.681091817314	0
0	15719	3788.19238294355	1
0	15720	3788.208682589376	0
0	15741	3791.935441148314	1
0	15745	3793.832835924341	2
0	15746	3794.151918361273	1
0	15754	3795.291555479843	0
0	15804	3806.746854680055	1
0	15806	3807.966619292798	0
0	15812	3808.640506308487	1
0	15814	3809.777018280563	0
0	15843	3814.04355637951	1
0	15844	3814.363594596794	0
0	15875	3818.635795902355	1
0	15877	3819.042725587544	2
0	15878	3820.282130528452	1
0	15886	3822.370767897214	2
0	15887	3822.373452655367	1
0	15892	3822.554521703943	0
0	15896	3823.684952899701	1
0	15898	3824.645147866732	2
0	15901	3825.620089428619	1
0	15908	3827.500835354083	0
0	15912	3827.939776832165	1
0	15914	3828.103697652696	2
0	15917	3829.886172762955	1
0	15929	3831.956904391989	0
0	15947	3834.280935396655	1
0	15949	3835.768641531508	2
0	15953	3837.713911521402	1
0	15958	3838.353170846005	0
0	15984	3841.671114635121	1
0	15986	3842.146018198398	0
0	16003	3842.840472318097	1
0	16010	3845.661306474793	2
0	16011	3846.266277700552	1
0	16019	3847.538400023028	0
0	16067	3863.290563079877	1
0	16071	3864.970110834884	0
0	16078	3865.453736742726	1
0	16081	3867.7305958861	0
0	16109	3873.423965158306	1
0	16110	3874.237654187493	0
0	16117	3875.226449772861	1
0	16119	3875.830166504669	2
0	16122	3877.689081540716	3
0	16123	3879.391142182135	2
0	16129	3879.569010365552	3
0	16131	3879.879790177309	4
0	16132	3880.889596146606	3
0	16140	3882.12826315254	4
0	16141	3882.185784890774	3
0	16146	3882.283727638849	2
0	16154	3883.680709875586	1
0	16161	3884.197837606064	2
0	16165	3884.457586000556	3
0	16166	3886.02808285277	2
0	16172	3886.213814810073	3
0	16175	3887.665627298971	2
0	16181	3888.095241864728	1
0	16192	3888.67485276273	2
0	16193	3888.786086688899	1
0	16199	3888.923160273725	2
0	16200	3889.678150050883	1
0	16205	3889.854639922743	0
0	16209	3890.374537409028	1
0	16213	3891.027261097162	2
0	16217	3893.890305839278	1
0	16222	3897.113815788887	0
0	16237	3899.955871343344	1
0	16246	3903.803229423654	0
0	16257	3904.974285188644	1
0	16260	3905.099928644055	2
0	16262	3905.741294973971	1
0	16268	3906.137849886949	0
0	16305	3911.543615880027	1
0	16307	3912.570119346091	0
0	16323	3914.455842196204	1
0	16325	3914.477493585485	2
0	16327	3914.85325709888	1
0	16332	3915.514815414537	0
0	16348	3918.440301724693	1
0	16349	3918.563087612949	0
0	16356	3920.812141466962	1
0	16360	3920.987996464255	2
0	16363	3922.985450313815	1
0	16369	3923.744793842275	0
0	16391	3928.919557640329	1
0	16394	3930.589858894536	0
0	16404	3932.254726353889	1
0	16413	3934.879564622633	0
0	16433	3941.756392761865	1
0	16438	3944.485131051248	0
0	16450	3945.67621188994	1
0	16451	3945.680345137745	0
0	16475	3949.478450152135	1
0	16478	3951.759307627279	0
0	16484	3952.058306757872	1
0	16490	3953.455782361999	2
0	16491	3953.741465102498	1
0	16498	3955.568602967894	0
0	16520	3959.173408737207	1
0	16521	3959.291653965963	0
0	16552	3969.585575377566	1
0	16554	3972.218104791281	0
0	16568	3979.463477648745	1
0	16572	3980.104531666828	2
0	16573	3980.126876010523	1
0	16582	3982.354786922058	0
0	16618	3987.738711634645	1
0	16622	3990.501514549922	2
0	16625	3991.893570617453	1
0	16632	3992.7789541171	0
0	16643	3993.434015860898	1
0	16650	3997.916579987018	0
0	16658	3999.668278924354	1
0	16660	4000.291392530587	2
0	16661	4000.746798783263	1
0	16669	4002.522268237736	2
0	16671	4002.836651534962	3
0	16672	4002.929013333797	2
0	16681	4004.940760027941	1
0	16687	4005.821114699096	0
0	16707	4009.445497464145	1
0	16708	4009.563036171725	0
0	16720	4010.24265477617	1
0	16722	4010.639961026654	0
0	16744	4014.158696087249	1
0	16745	4015.27840131298	0
0	16759	4019.684986007433	1
0	16760	4020.80210866937	0
0	16783	4026.106371003775	1
0	16784	4026.235427489719	0
0	16805	4031.838310652529	1
0	16806	4032.676567418833	0
0	16823	4034.68646994222	1
0	16824	4034.819287762667	0
0	16877	4052.725509536143	1
0	16881	4056.173845629516	2
0	16884	4057.927706000396	1
0	16890	4059.964163761906	0
0	16897	4061.859102406108	1
0	16898	4064.50513870293	0
0	16917	4069.36278359428	1
0	16921	4071.323382133553	0
0	16932	4071.760502399681	1
0	16933	4074.074260066618	0
0	16939	4074.131951505125	1
0	16940	4074.373479686334	0
0	16949	4075.418633280243	1
0	16953	4076.354190425443	2
0	16955	4076.722950254499	3
0	16957	4076.799458208068	4
0	16958	4077.07838550425	3
0	16963	4077.235328477562	2
0	16968	4077.691633845444	1
0	16974	4078.497595969798	2
0	16975	4079.723691467906	1
0	16979	4079.92409498339	2
0	16981	4081.612319224588	3
0	16984	4082.960902068569	2
0	16990	4083.499495909448	3
0	16992	4083.508008702401	4
0	16994	4083.852453327567	3
0	16999	4083.927544193331	2
0	17005	4084.886047727409	3
0	17006	4084.900079892799	2
0	17014	4090.694648590186	1
0	17023	4092.195738400144	2
0	17024	4092.30325371991	1
0	17029	4092.343227997949	0
0	17033	4092.761406742669	1
0	17039	4095.816591848162	0
0	17045	4096.467931696998	1
0	17048	4097.367483070934	2
0	17050	4098.292359054316	1
0	17056	4098.865083871586	2
0	17057	4099.203281885841	1
0	17063	4099.547524003387	2
0	17064	4099.558962164564	1
0	17069	4099.804199865293	0
0	17076	4100.987883594389	1
0	17077	4101.993752054517	0
0	17089	4104.256417749997	1
0	17091	4104.274680779215	2
0	17093	4104.846385122495	3
0	17095	4104.970015079896	4
0	17096	4105.804838039219	3
0	17103	4106.964667495773	2
0	17108	4111.48541252759	1
0	17113	4111.722377282356	0
0	17142	4119.534732534874	1
0	17145	4119.687130666355	0
0	17160	4123.870848247215	1
0	17162	4123.926453292033	2
0	17164	4123.982576821563	3
0	17167	4126.770342915994	2
0	17174	4127.456913771879	1
0	17180	4129.91044976222	0
0	17200	4132.884740254267	1
0	17202	4134.267945414303	0
0	17214	4135.821636619232	1
0	17215	4136.644088820052	0
0	17231	4138.261149765466	1
0	17236	4139.574963746122	0
0	17242	4139.64380068036	1
0	17243	4140.236284083232	0
0	17267	4141.507068311954	1
0	17269	4141.741707609316	2
0	17271	4141.878136894489	3
0	17273	4142.25004803771	4
0	17277	4143.678552724457	3
0	17283	4143.740126525645	4
0	17287	4145.420597810287	5
0	17288	4145.498957398031	4
0	17296	4146.793037926081	3
0	17301	4146.957853533982	2
0	17306	4147.330089056655	1
0	17314	4148.674255556776	0
0	17394	4167.606292145449	1
0	17396	4167.759932105639	2
0	17398	4169.724928487716	1
0	17404	4172.596366691448	0
0	17411	4173.535670561393	1
0	17413	4174.821697318917	2
0	17414	4175.660086529681	1
0	17420	4176.646576745924	2
0	17422	4176.779402137911	3
0	17425	4178.919062811606	2
0	17433	4182.915975632171	1
0	17440	4183.451114097358	2
0	17441	4184.214786046125	1
0	17446	4184.243980169492	0
0	17459	4185.208672258043	1
0	17461	4187.13463561401	0
0	17488	4192.404983181516	1
0	17490	4193.935963342882	0
0	17504	4194.861673992632	1
0	17505	4195.157671797885	0
0	17569	4211.955929392257	1
0	17571	4212.72725946284	0
0	17584	4215.137205851097	1
0	17586	4215.373729391139	2
0	17591	4216.847866056288	1
0	17603	4218.9092358274	0
0	17609	4219.180882025529	1
0	17610	4219.455975338467	0
0	17628	4222.537356095894	1
0	17631	4226.703956708196	0
0	17642	4227.355860290563	1
0	17643	4229.547151579581	0
0	17649	4229.813527562178	1
0	17651	4230.490037709754	0
0	17659	4230.745159408074	1
0	17660	4231.272930801609	0
0	17719	4246.298450728054	1
0	17720	4247.165780165735	0
0	17767	4271.014141849459	1
0	17769	4271.824712914349	0
0	17795	4276.472512794007	1
0	17796	4276.867832437401	0
0	17853	4291.504000955121	1
0	17855	4292.260921546074	0
0	17900	4302.178663206755	1
0	17903	4302.858860748978	2
0	17904	4303.282131992761	1
0	17910	4304.689759791452	0
0	17917	4305.007175268727	1
0	17924	4307.070202099824	2
0	17925	4307.448634828698	1
0	17931	4309.884822288211	0
0	17937	4311.067188847645	1
0	17939	4312.514267308763	0
0	17959	4313.421173911733	1
0	17960	4314.158660233907	0
0	17967	4314.848229581996	1
0	17970	4315.537936469059	0
0	18017	4325.717572839169	1
0	18018	4326.08967757801	0
0	18057	4341.49843447891	1
0	18058	4342.612534284975	0
0	18079	4352.185372442604	1
0	18080	4352.523331035586	0
0	18127	4364.939468339988	1
0	18128	4365.974677344348	0
0	18214	4390.460056509699	1
0	18215	4390.826050846696	0
0	18233	4393.390465983707	1
0	18237	4395.094399539377	2
0	18240	4395.544911116795	3
0	18241	4395.6327893823	2
0	18246	4396.174950938072	1
0	18253	4396.451944253124	2
0	18257	4397.373409769107	1
0	18263	4398.155530992009	0
0	18277	4401.310143436787	1
0	18279	4401.507919991699	2
0	18281	4401.679405088627	1
0	18287	4401.876084772028	0
0	18293	4401.990261225464	1
0	18295	4403.332021499364	0
0	18318	4407.021354001995	1
0	18324	4410.51210646877	0
0	18352	4419.166161588356	1
0	18354	4419.240907017533	2
0	18355	4420.788943696034	1
0	18360	4420.906619839807	0
0	18371	4422.426741663634	1
0	18373	4422.589736652378	2
0	18376	4424.963673287624	1
0	18381	4425.609665050669	0
0	18388	4425.844519334446	1
0	18390	4426.176202458111	0
0	18396	4426.629805757539	1
0	18398	4426.714128219541	2
0	18399	4427.310915075405	1
0	18406	4428.503811561255	0
0	18410	4428.624816774615	1
0	18416	4434.417633781152	2
0	18419	4435.518196401479	3
0	18420	4436.999957653978	2
0	18425	4437.217322692155	1
0	18432	4439.379368485497	0
0	18439	4440.860279905235	1
0	18441	4441.283591551861	0
0	18447	4441.762545759416	1
0	18451	4442.862326445395	0
0	18457	4442.986482517847	1
0	18460	4443.392330375472	2
0	18461	4443.737817198555	1
0	18469	4444.408076410075	2
0	18476	4446.33387048588	1
0	18481	4446.377918251396	0
0	18498	4447.472545740208	1
0	18499	4447.791752180632	0
0	18525	4450.053455036243	1
0	18526	4450.22314775175	0
0	18532	4450.330504876211	1
0	18535	4451.1211612433	2
0	18536	4451.345326970436	1
0	18541	4451.455653746217	0
0	18552	4451.585200748793	1
0	18561	4453.917175650671	0
0	18584	4458.05557592561	1
0	18590	4460.555418934633	2
0	18591	4461.225623384426	1
0	18596	4462.736017482393	0
0	18624	4467.835485788134	1
0	18625	4468.082843288422	0
0	18692	4484.076033956575	1
0	18693	4484.104769478871	0
0	18700	4485.39706332774	1
0	18701	4485.747048244207	0
0	18707	4485.813524296377	1
0	18710	4486.264971951095	2
0	18711	4486.8948616252	1
0	18717	4487.016746363993	2
0	18720	4487.687560299216	1
0	18728	4490.347753366487	0
0	18735	4490.905054108756	1
0	18736	4493.205330516366	0
0	18756	4497.770024724818	1
0	18757	4497.81148000601	0
0	18836	4523.213724675761	1
0	18838	4523.540094564596	2
0	18839	4523.976403269015	1
0	18845	4524.58854512131	0
0	18868	4529.418424884071	1
0	18870	4531.232046852011	0
0	18885	4540.428384296498	1
0	18886	4540.837859756071	0
0	18899	4542.380226720453	1
0	18901	4543.451023842129	0
0	18925	4554.736055432064	1
0	18927	4555.775888946501	2
0	18928	4556.55459376618	1
0	18937	4559.007961020216	2
0	18938	4559.779760777501	1
0	18943	4560.412784274702	0
0	18950	4561.314302335989	1
0	18951	4562.340095747832	0
0	19041	4587.671605986551	1
0	19043	4590.754160549688	0
0	19072	4594.525995723555	1
0	19076	4596.627391602808	2
0	19077	4597.888595565977	1
0	19084	4598.370094594345	0
0	19100	4600.006562050027	1
0	19101	4600.473528573861	0
0	19107	4601.356951408443	1
0	19108	4602.299880823151	0
0	19114	4602.703664177202	1
0	19115	4602.850534517023	0
0	19180	4620.706159141951	1
0	19182	4622.344218613593	2
0	19184	4622.364942420364	3
0	19186	4622.589962679934	4
0	19192	4625.431695197171	5
0	19194	4627.022582221656	6
0	19196	4627.098400067878	7
0	19197	4627.296043989208	6
0	19203	4627.802480573769	5
0	19208	4628.107194554254	4
0	19215	4628.733926269303	5
0	19216	4628.996533781263	4
0	19221	4629.001992794629	3
0	19228	4630.433677461451	4
0	19229	4630.708996696846	3
0	19233	4632.334808690458	4
0	19236	4633.61921225452	3
0	19242	4634.887359994475	2
0	19247	4636.346523049582	1
0	19254	4638.817209906569	2
0	19255	4638.864000233363	1
0	19260	4639.886824790545	0
0	19264	4640.954947770121	1
0	19266	4640.991677040483	2
0	19268	4641.233087495718	3
0	19270	4642.253814044143	4
0	19272	4643.063275323014	5
0	19274	4643.223023042787	6
0	19282	4645.452402397016	5
0	19289	4645.822792554211	6
0	19293	4646.287479588317	7
0	19294	4646.438769701524	6
0	19299	4646.656360650701	5
0	19304	4646.804763937571	4
0	19311	4650.560981077532	3
0	19318	4651.012087334928	4
0	19320	4651.821072814633	3
0	19328	4653.268270447313	2
0	19333	4653.612691711878	1
0	19341	4655.052583390914	0
0	19354	4656.713399750342	1
0	19357	4657.008781591625	2
0	19358	4657.673015829008	1
0	19363	4657.920611092635	0
0	19369	4658.963310407189	1
0	19370	4659.105155434656	0
0	19390	4661.039672784856	1
0	19391	4661.749954541619	0
0	19398	4662.09642815631	1
0	19402	4662.940034122583	2
0	19403	4663.226789679093	1
0	19411	4663.859320342272	0
0	19423	4664.664048892747	1
0	19426	4667.245219924595	0
0	19432	4667.582830398928	1
0	19434	4667.719649265769	2
0	19436	4668.751787532162	3
0	19440	4671.984806406224	2
0	19446	4673.365209449189	1
0	19451	4673.492969792793	0
0	19457	4673.895476166621	1
0	19461	4675.070568751844	2
0	19467	4676.878481413426	1
0	19472	4676.911023845896	0
0	19490	4678.931119216119	1
0	19492	4678.986021592409	2
0	19493	4679.040340574842	1
0	19504	4681.093673844344	2
0	19505	4681.168670695259	1
0	19511	4682.45280971863	2
0	19512	4682.59094134162	1
0	19519	4684.446569834171	2
0	19521	4685.337766571694	1
0	19526	4685.346304809047	0
0	19568	4698.105497495285	1
0	19570	4699.143229577022	2
0	19572	4699.406781477639	3
0	19575	4699.86775557023	2
0	19581	4701.166929335743	1
0	19586	4701.471471264906	0
0	19617	4705.318736792461	1
0	19618	4705.632025806427	0
0	19646	4708.580717436199	1
0	19647	4708.691607113018	0
0	19653	4709.194107484102	1
0	19657	4709.655092819218	0
0	19663	4710.703200503283	1
0	19664	4712.403889238267	0
0	19684	4715.818233356073	1
0	19686	4716.700841242165	0
0	19696	4719.00069230398	1
0	19700	4720.331199473092	0
0	19706	4720.486012756304	1
0	19708	4721.232576554717	2
0	19710	4721.276336223048	3
0	19713	4722.524086983793	2
0	19718	4722.796661034615	1
0	19725	4723.471782663936	0
0	19734	4724.251181988985	1
0	19735	4724.282034756397	0
0	19746	4725.406380360128	1
0	19747	4725.764153836796	0
0	19756	4728.986777452214	1
0	19758	4729.31269435326	2
0	19759	4729.560136572721	1
0	19765	4729.775110309215	2
0	19766	4729.942805182559	1
0	19771	4730.194030959077	0
0	19830	4746.861706944792	1
0	19836	4751.060665205418	2
0	19838	4751.593497311616	3
0	19839	4755.575114011832	2
0	19845	4758.242863703963	3
0	19846	4758.71530483831	2
0	19851	4760.262922840925	1
0	19856	4761.951730615651	0
0	19926	4778.456740981307	1
0	19927	4778.555320644156	0
0	19933	4779.114964643489	1
0	19935	4780.410892858575	2
0	19936	4780.528727199962	1
0	19942	4780.727702977944	2
0	19944	4780.876276671022	3
0	19945	4781.129566086223	2
0	19954	4783.450539876615	1
0	19965	4786.401881047684	2
0	19967	4786.693087920127	1
0	19973	4786.973640063098	0
0	19979	4787.567804147196	1
0	19986	4789.555713513843	0
0	20014	4797.620662369324	1
0	20016	4797.985851910684	0
0	20056	4807.19809016002	1
0	20058	4807.606014755927	2
0	20059	4807.756818465559	1
0	20066	4811.275327242739	0
0	20109	4831.262708041625	1
0	20110	4833.716166862848	0
0	20132	4836.033022131298	1
0	20139	4837.545460295064	0
0	20210	4855.000143914813	1
0	20211	4855.204138044101	0
0	20228	4860.533108125892	1
0	20229	4860.809490735308	0
0	20245	4862.510419485957	1
0	20246	4863.116870029894	0
0	20290	4878.83011244953	1
0	20292	4880.259347474891	0
0	20387	4906.591654704954	1
0	20390	4907.543104741028	2
0	20391	4907.829043992943	1
0	20397	4909.07856856695	2
0	20399	4909.256110078584	3
0	20400	4909.703851989829	2
0	20407	4910.043040144269	1
0	20412	4910.250041266934	0
0	20452	4923.013874038994	1
0	20454	4923.31997920084	2
0	20456	4924.040682983489	1
0	20462	4926.575005105624	0
0	20468	4926.763785709433	1
0	20470	4927.968407499997	0
0	20476	4927.992656381394	1
0	20478	4929.517594359057	0
0	20508	4938.2156628737	1
0	20510	4938.841587710669	2
0	20515	4941.867058697009	1
0	20520	4942.137899658353	0
0	20532	4943.379657994065	1
0	20533	4943.644483700697	0
0	20539	4943.76600497178	1
0	20541	4945.087622052488	0
0	20583	4959.991757094546	1
0	20586	4960.262745864266	0
0	20592	4961.158258225582	1
0	20594	4962.3869344802	0
0	20609	4964.995863358067	1
0	20610	4966.081861612747	0
0	20629	4972.408759954742	1
0	20631	4972.910176813685	2
0	20632	4973.527923086503	1
0	20638	4974.402565292622	0
0	20647	4976.044010250835	1
0	20648	4976.848053891057	0
0	20655	4977.433606204712	1
0	20656	4979.026853187173	0
0	20674	4982.012182747577	1
0	20676	4984.401042682489	2
0	20680	4987.218998293694	1
0	20687	4988.114185296285	0
0	20760	5002.658401859461	1
0	20761	5002.767093080329	0
0	20798	5009.158490284395	1
0	20799	5009.365098871948	0
0	20880	5030.673516283892	1
0	20884	5031.50430142371	2
0	20886	5033.659788761917	3
0	20887	5035.749641838802	2
0	20894	5037.785331135884	1
0	20900	5038.035892711895	0
0	20917	5040.927147963573	1
0	20920	5041.238410793391	0
0	20928	5042.603517887154	1
0	20930	5043.329262792798	0
0	20952	5048.600611475019	1
0	20953	5048.698900855613	0
0	20965	5049.012816370956	1
0	20967	5050.427219092157	2
0	20969	5051.281457148141	3
0	20970	5052.926239283283	2
0	20978	5053.181061472587	3
0	20980	5054.173436708771	4
0	20981	5055.434236280411	3
0	20987	5056.301305209776	2
0	20992	5056.492858378823	1
0	20998	5057.517661137256	2
0	21000	5058.19061021024	3
0	21001	5059.868872266787	2
0	21007	5060.845341397304	3
0	21008	5061.060166661899	2
0	21016	5062.040473517801	1
0	21021	5062.796307250894	0
0	21027	5063.239981211833	1
0	21032	5066.33477161847	2
0	21033	5067.854048236147	1
0	21039	5071.642291105581	2
0	21042	5071.985256688611	1
0	21047	5073.684546411489	0
0	21055	5075.650834289254	1
0	21058	5076.608209449947	0
0	21071	5078.597665248864	1
0	21073	5078.98995579028	0
0	21086	5079.983133516131	1
0	21090	5082.234211175583	0
0	21108	5086.899165727191	1
0	21109	5086.925678285428	0
0	21115	5087.280456977052	1
0	21116	5087.343349406927	0
0	21122	5087.755350596967	1
0	21124	5088.146938797358	2
0	21127	5088.860166975194	3
0	21128	5089.134957531381	2
0	21134	5090.710566384175	1
0	21140	5092.371190722138	0
0	21146	5092.505883252748	1
0	21147	5092.715162470498	0
0	21158	5093.228610268817	1
0	21161	5095.244219179904	0
0	21172	5095.472858884231	1
0	21176	5096.502619714824	2
0	21177	5096.656567285527	1
0	21183	5097.409164480946	2
0	21189	5098.758272250113	1
0	21195	5099.03020461456	2
0	21196	5099.29080038038	1
0	21203	5100.237198999379	0
0	21218	5103.952331680394	1
0	21219	5105.199616040675	0
0	21226	5105.518352251703	1
0	21227	5105.525787972515	0
0	21263	5113.246435496835	1
0	21265	5114.139188781702	0
0	21284	5115.528784714782	1
0	21287	5117.665194824781	0
0	21293	5117.75048799843	1
0	21297	5118.579866359535	0
0	21327	5123.048627112594	1
0	21328	5124.196557967007	0
0	21342	5129.077484238902	1
0	21344	5129.247354056816	2
0	21349	5131.257151221253	1
0	21355	5132.126041710921	0
0	21374	5134.129573079695	1
0	21376	5134.680848507183	2
0	21378	5136.301558440597	3
0	21383	5138.328098370015	4
0	21385	5140.026917358237	5
0	21386	5140.261839848873	4
0	21392	5140.350278983744	5
0	21393	5140.426414536682	4
0	21398	5141.052968532549	3
0	21404	5141.288669758723	4
0	21406	5143.564999578328	5
0	21408	5144.659507466605	4
0	21413	5144.950943123235	3
0	21419	5145.74853696243	2
0	21426	5145.922178875491	3
0	21429	5146.23493493037	2
0	21435	5146.297098369986	3
0	21437	5147.340265353975	4
0	21439	5147.525482525111	5
0	21440	5147.548333771913	4
0	21451	5149.345043596666	5
0	21454	5150.21003161286	6
0	21456	5151.47807998895	5
0	21461	5151.699740585321	4
0	21466	5152.019313646193	3
0	21472	5152.364932807257	4
0	21473	5152.476653459888	3
0	21478	5153.447611191728	2
0	21483	5153.69368078573	1
0	21489	5154.952304104596	2
0	21490	5154.999189987495	1
0	21494	5156.033065744166	2
0	21497	5157.199015463941	1
0	21502	5158.161136655549	0
0	21506	5159.241059940844	1
0	21514	5163.130514436128	2
0	21520	5164.873282560865	1
0	21527	5167.341997940233	2
0	21528	5167.942889374808	1
0	21532	5168.50644207217	2
0	21535	5169.12314042232	1
0	21543	5170.386851513205	2
0	21546	5170.407317103507	1
0	21551	5172.892987645277	0
0	21584	5179.722739364702	1
0	21586	5180.012033176321	2
0	21588	5182.71011458591	3
0	21589	5183.68290859836	2
0	21595	5184.416106036963	1
0	21602	5185.966053437074	2
0	21603	5186.341272128356	1
0	21610	5187.518150730139	0
0	21653	5191.478475688501	1
0	21654	5191.710288800607	0
0	21668	5193.620528953851	1
0	21670	5194.5893930217	2
0	21671	5195.198946105809	1
0	21677	5196.09077141514	0
0	21685	5196.241843128326	1
0	21687	5196.4862409869	2
0	21688	5197.089299185139	1
0	21694	5197.189149556063	2
0	21695	5197.511898890552	1
0	21701	5197.91814524262	2
0	21704	5198.108440460074	3
0	21707	5198.562124252195	2
0	21712	5200.212773642314	1
0	21718	5200.505810492398	2
0	21720	5200.947193138462	1
0	21726	5202.365700671002	0
0	21745	5205.297552632722	1
0	21748	5205.963389861448	2
0	21750	5206.48062075185	1
0	21756	5206.786427094968	0
0	21800	5216.094734010698	1
0	21802	5218.425761919941	0
0	21824	5224.356282183231	1
0	21827	5226.014280630582	0
0	21848	5227.166902255358	1
0	21850	5227.470267267152	0
0	21905	5248.606393458791	1
0	21909	5248.940441269953	2
0	21911	5250.176986202264	3
0	21912	5250.543729528573	2
0	21918	5251.039441119747	1
0	21924	5251.355935782455	0
0	21933	5253.288484123213	1
0	21934	5253.343335562994	0
0	21948	5255.689484730968	1
0	21950	5256.062680328163	2
0	21951	5256.653737028875	1
0	21956	5256.889733557846	0
0	21996	5264.23055479643	1
0	21997	5265.013684629789	0
0	22015	5266.809335649586	1
0	22021	5268.742430352364	0
0	22035	5272.586800919293	1
0	22036	5273.624402827664	0
0	22068	5279.900186401593	1
0	22069	5280.438000602473	0
0	22076	5280.714836437025	1
0	22079	5282.787959798816	0
0	22106	5286.102820037462	1
0	22108	5288.775062066344	2
0	22111	5289.103433511511	1
0	22121	5293.145313873259	0
0	22216	5316.389532829939	1
0	22220	5318.837853462981	0
0	22226	5318.978660084294	1
0	22229	5319.30256402331	2
0	22231	5319.932887089673	3
0	22232	5320.0594785806	2
0	22239	5321.689505171481	3
0	22242	5323.284838463231	2
0	22250	5324.87590656678	3
0	22256	5325.417954462113	4
0	22257	5325.597559595903	3
0	22262	5326.642047860249	2
0	22267	5327.204806360267	1
0	22273	5327.240438428419	2
0	22275	5327.499331348665	3
0	22277	5327.931588534319	2
0	22286	5328.843288008881	3
0	22288	5329.737850284884	2
0	22294	5331.158977908572	1
0	22299	5331.395466177366	0
0	22314	5333.669992643538	1
0	22315	5333.853269605102	0
0	22328	5336.950693751912	1
0	22329	5336.983065385289	0
0	22348	5339.972470869518	1
0	22350	5340.642744594895	2
0	22352	5341.527701238014	3
0	22353	5344.625367744585	2
0	22359	5347.851456117676	1
0	22364	5348.096481619442	0
0	22370	5348.248876242848	1
0	22371	5350.16460170331	0
0	22386	5350.420574864575	1
0	22388	5351.592618686805	2
0	22394	5352.647674138092	1
0	22400	5354.65552788404	0
0	22407	5354.985469068422	1
0	22409	5355.152905112535	2
0	22414	5356.01811171145	3
0	22415	5356.335912409179	2
0	22420	5356.466718103569	1
0	22425	5356.60117039052	0
0	22471	5368.215722848933	1
0	22473	5368.632395568031	2
0	22474	5369.719504573712	1
0	22479	5370.182553874203	0
0	22509	5375.06364381444	1
0	22511	5376.188141219605	0
0	22547	5384.315435178041	1
0	22550	5388.283229394902	0
0	22557	5388.853614908886	1
0	22559	5389.703447234756	2
0	22560	5390.032736513313	1
0	22565	5390.507448390079	0
0	22599	5400.53813047992	1
0	22602	5403.022784236958	0
0	22613	5404.345560517832	1
0	22615	5404.621729382541	2
0	22620	5405.729130287448	3
0	22621	5405.761636686254	2
0	22628	5406.23516772439	3
0	22631	5407.633389858245	4
0	22632	5408.844400728112	3
0	22641	5409.162391342738	4
0	22643	5409.685447318301	3
0	22648	5410.830186595197	2
0	22655	5411.496568091818	1
0	22662	5413.263894215847	2
0	22663	5413.464122734766	1
0	22671	5415.430415194813	0
0	22688	5417.276035275105	1
0	22690	5417.846126124273	0
0	22697	5418.311156297516	1
0	22698	5418.512234016265	0
0	22704	5419.149373633092	1
0	22707	5420.015096968233	0
0	22757	5445.939874028541	1
0	22759	5447.006432777339	2
0	22760	5447.909389796317	1
0	22767	5448.472949696365	2
0	22769	5448.490604201769	3
0	22771	5449.557361511422	4
0	22772	5449.76734914748	3
0	22777	5449.815256223393	2
0	22786	5451.895207932794	3
0	22788	5452.548512474652	2
0	22796	5454.635601963373	1
0	22804	5455.863568071539	0
0	22823	5460.64664215854	1
0	22824	5461.611833741736	0
0	22842	5466.471684859691	1
0	22843	5466.865047115099	0
0	22854	5467.03592840893	1
0	22858	5468.029942812307	0
0	22882	5473.709780396015	1
0	22884	5474.147868530876	2
0	22885	5475.335490856915	1
0	22890	5475.610010489101	0
0	22901	5477.717178049204	1
0	22905	5478.671853462117	2
0	22908	5478.904847616577	1
0	22913	5479.099486427323	0
0	22919	5480.317919129654	1
0	22920	5480.666259212105	0
0	22929	5480.892524826134	1
0	22934	5483.404259812558	2
0	22941	5484.989647862774	1
0	22948	5485.621659714741	0
0	22964	5486.164327405689	1
0	22965	5486.364188760617	0
0	22983	5488.654248542437	1
0	22984	5488.933173172642	0
0	23015	5494.684987772045	1
0	23017	5496.111388235829	2
0	23021	5497.8710911628	3
0	23022	5497.90945167713	2
0	23028	5499.751792232594	1
0	23034	5500.181717006038	0
0	23040	5500.216962323077	1
0	23041	5500.223229168144	0
0	23048	5502.636841960372	1
0	23051	5503.848008243361	0
0	23061	5505.423615267982	1
0	23062	5505.612459532199	0
0	23091	5514.725024670419	1
0	23092	5515.142594599366	0
0	23098	5516.222591901949	1
0	23100	5516.745674134416	0
0	23106	5516.799317667412	1
0	23107	5516.874999889622	0
0	23115	5518.931083394648	1
0	23116	5519.604014644298	0
0	23132	5520.673924260737	1
0	23136	5521.634831834148	0
0	23168	5527.87662546845	1
0	23169	5528.007045905128	0
0	23189	5536.132929758421	1
0	23194	5537.060358075674	2
0	23195	5537.25142623466	1
0	23200	5537.843018042714	0
0	23326	5583.209111262586	1
0	23327	5583.653958529166	0
0	23381	5602.501719239347	1
0	23387	5606.965067740524	0
0	23393	5607.147129317732	1
0	23395	5607.699746022591	0
0	23402	5607.85147623355	1
0	23404	5608.361140762724	2
0	23406	5610.035958711743	3
0	23407	5610.936017119454	2
0	23412	5611.288227221197	1
0	23417	5611.445211295564	0
0	23437	5614.671779179642	1
0	23439	5617.252066215617	0
0	23482	5624.039220674356	1
0	23483	5624.187164445642	0
0	23498	5626.701224677995	1
0	23500	5631.466599100866	2
0	23502	5632.117222345794	3
0	23506	5633.112429898754	4
0	23509	5634.215826810505	3
0	23515	5634.300579667885	4
0	23516	5634.405201358504	3
0	23524	5635.082516208032	2
0	23529	5635.205005772651	1
0	23534	5635.415598026193	0
0	23553	5637.510460572314	1
0	23556	5638.057504983795	0
0	23560	5638.360593214095	1
0	23562	5638.685646997523	2
0	23564	5639.381971066913	3
0	23566	5639.595815510815	4
0	23572	5640.435079554342	3
0	23580	5641.006721420913	4
0	23581	5642.229603032134	3
0	23588	5643.999075131133	4
0	23589	5644.152142638207	3
0	23594	5644.654172971114	2
0	23600	5645.654019183488	3
0	23604	5647.074323327165	2
0	23611	5648.620085488485	1
0	23619	5650.964825081443	2
0	23620	5651.515475766188	1
0	23627	5652.235332107969	2
0	23629	5652.439937301061	3
0	23631	5653.297900604878	4
0	23632	5654.593009012736	3
0	23641	5657.230544092783	2
0	23646	5659.096884976211	1
0	23651	5659.585933647375	0
0	23671	5662.580913610006	1
0	23676	5663.466753269804	2
0	23678	5664.36885140393	3
0	23679	5664.419672001327	2
0	23684	5664.450416370668	1
0	23689	5664.547017191652	0
0	23700	5665.881555033646	1
0	23704	5666.944811339884	2
0	23705	5667.32895765596	1
0	23710	5668.946485655255	0
0	23717	5669.939400622438	1
0	23718	5670.728867309429	0
0	23737	5672.497577813756	1
0	23738	5672.618848843608	0
0	23745	5674.664419474218	1
0	23747	5675.140341432031	2
0	23750	5676.191114606288	1
0	23754	5676.221341920552	2
0	23756	5676.430528365152	3
0	23758	5677.213488059436	4
0	23761	5679.063852523111	3
0	23765	5680.864905029675	4
0	23771	5682.499128054752	5
0	23775	5683.6626676756	4
0	23780	5684.247943484201	3
0	23787	5685.082734178858	2
0	23791	5686.570194839891	3
0	23795	5687.904494860804	2
0	23801	5688.01798326285	3
0	23803	5688.179858477172	4
0	23805	5690.170525754922	5
0	23808	5691.155523550651	4
0	23812	5691.318637219796	5
0	23815	5692.728062225735	4
0	23821	5695.475481804579	5
0	23822	5696.045976134572	4
0	23829	5696.898777871491	3
0	23836	5699.83156574059	2
0	23841	5701.770984002399	1
0	23847	5702.178039103193	2
0	23849	5702.215257163211	3
0	23851	5702.965691819286	4
0	23853	5703.318931838729	5
0	23855	5704.778256121532	6
0	23861	5709.041133883127	7
0	23865	5709.955993044118	8
0	23868	5712.791379781329	7
0	23875	5713.168751224425	6
0	23881	5713.8598173882	7
0	23884	5714.125936517624	6
0	23889	5714.331768811693	5
0	23896	5716.598216868817	4
0	23902	5717.3524038671	3
0	23908	5717.41799353756	4
0	23912	5719.829603389492	3
0	23918	5721.54243867982	2
0	23924	5721.633679861177	3
0	23927	5722.455017139478	2
0	23932	5723.142666393025	1
0	23937	5723.961977954242	0
0	23960	5728.314907803758	1
0	23963	5729.2565664173	2
0	23971	5731.012411960936	3
0	23975	5732.189006903835	4
0	23977	5732.279087943279	5
0	23980	5733.576048778409	4
0	23986	5733.840233107762	5
0	23989	5735.910693036246	6
0	23992	5736.512780937186	5
0	23997	5737.782589202006	4
0	24003	5738.158604374665	5
0	24004	5738.363722570452	4
0	24010	5738.939854507365	5
0	24014	5740.962689637841	4
0	24023	5741.438411213113	5
0	24026	5741.758660510395	4
0	24034	5742.402343505415	3
0	24039	5742.633082449555	2
0	24044	5742.865356797188	1
0	24051	5744.789970059305	0
0	24071	5747.371446925914	1
0	24072	5747.432236449649	0
0	24088	5751.552722950923	1
0	24089	5753.883406423799	0
0	24146	5768.179166007668	1
0	24149	5770.478400625096	0
0	24164	5772.313342115512	1
0	24169	5774.00779409521	0
0	24184	5775.562119735739	1
0	24190	5778.163398497929	2
0	24194	5779.478664243217	3
0	24195	5781.550020291674	2
0	24206	5782.538764197702	1
0	24214	5784.669644362898	0
0	24221	5784.786484495319	1
0	24222	5785.07692469749	0
0	24242	5787.29256057776	1
0	24243	5787.397424115948	0
0	24254	5788.273203247101	1
0	24256	5789.403532033106	0
0	24265	5790.809210762869	1
0	24266	5791.294160397569	0
0	24281	5794.979098789427	1
0	24283	5797.080675116644	2
0	24285	5797.194430710359	3
0	24286	5797.801150003003	2
0	24292	5798.378326849955	1
0	24299	5799.927262650005	0
0	24310	5800.364435682437	1
0	24321	5804.257157031058	2
0	24323	5804.717076766876	3
0	24325	5805.308418912571	4
0	24326	5805.313945377599	3
0	24332	5805.894491151876	2
0	24338	5805.973848933308	3
0	24339	5807.184704441758	2
0	24344	5807.930938001392	1
0	24352	5809.933291111475	2
0	24353	5810.271928615447	1
0	24358	5810.402156439839	0
0	24369	5812.15902388478	1
0	24370	5812.337845987703	0
0	24380	5812.681261349372	1
0	24383	5814.343248102963	0
0	24402	5815.392539484314	1
0	24403	5815.722180853806	0
0	24432	5819.760481800092	1
0	24433	5820.31467864863	0
0	24468	5824.755611069922	1
0	24472	5825.44024161587	2
0	24474	5825.802132288276	3
0	24475	5825.8506440904	2
0	24480	5827.088618157367	1
0	24485	5827.799807536999	0
0	24491	5829.936903541348	1
0	24494	5830.415147545774	0
0	24517	5834.892643392905	1
0	24519	5835.46225246606	2
0	24523	5837.248567617999	1
0	24528	5837.285287979389	0
0	24545	5839.808490228055	1
0	24548	5840.847868425511	0
0	24559	5841.618718813056	1
0	24564	5841.888548433816	2
0	24565	5842.745618449208	1
0	24572	5842.862278593006	2
0	24574	5843.393045337638	3
0	24575	5844.402708321557	2
0	24581	5844.529443617666	3
0	24582	5844.755481214579	2
0	24587	5844.820312420862	1
0	24593	5846.388233806983	0
0	24634	5854.035269981985	1
0	24637	5855.292373239925	0
0	24672	5869.600636724581	1
0	24674	5870.980568344794	2
0	24678	5871.483450191606	3
0	24679	5872.036601952339	2
0	24685	5872.376244504779	3
0	24686	5872.640032272499	2
0	24694	5874.566820808971	3
0	24695	5874.945341868102	2
0	24700	5875.117523561069	1
0	24705	5875.47143306954	0
0	24725	5881.974675708397	1
0	24729	5883.037748077784	2
0	24733	5885.321504825214	3
0	24735	5887.102090536511	2
0	24740	5887.126609619787	1
0	24751	5888.941934764683	2
0	24752	5889.923043982514	1
0	24758	5891.564339163719	2
0	24759	5892.088048575067	1
0	24765	5892.96553043942	0
0	24797	5903.901011887351	1
0	24799	5904.229683446569	2
0	24804	5907.260332071273	3
0	24806	5907.664255022697	4
0	24807	5907.91661069509	3
0	24813	5908.037244473149	4
0	24814	5908.86751786879	3
0	24819	5908.982653598523	2
0	24826	5909.412442458742	3
0	24827	5909.488589057097	2
0	24832	5909.816077834688	1
0	24842	5911.075103222807	2
0	24843	5911.817576621767	1
0	24848	5912.035531236481	0
0	24864	5914.442026243316	1
0	24866	5915.429555258931	2
0	24867	5916.941330867431	1
0	24872	5917.354732842358	0
0	24895	5923.59374717256	1
0	24897	5925.013624526549	2
0	24899	5925.136179525612	3
0	24900	5925.502840347555	2
0	24905	5925.981374779109	1
0	24910	5926.022737140977	0
0	24928	5931.299279871432	1
0	24929	5931.781689730575	0
[...]
5	117709	27860.075498633628	13.585457157425
5	117718	27860.517676759803	12.331801761502
5	117723	27861.145893876591	9.952744372732
5	117728	27862.425952138329	10.4003053835
5	117735	27864.872401845519	11.56442326084
5	117744	27867.557014515643	12.513485591242
5	117767	27870.208486084846	10.2540381285
5	117797	27874.866509250757	11.591703627626
5	117802	27874.989063092454	7.859903901479
5	117809	27877.515458990996	7.665477052845
5	117823	27881.818645927123	11.381104007536
5	117866	27888.663570530176	12.701129811265
5	117873	27888.833577334318	9.949863334087
5	117886	27891.412964785003	5.686812064167
5	117891	27892.249194470909	5.099993936646
5	117910	27900.635982092529	3.469219290591
5	117979	27910.102264214669	10.597583372961
5	117988	27912.262707907612	8.486179192703
5	117993	27912.785156036458	5.441241624725
5	118003	27913.599436264728	6.041090713022
5	118011	27915.614901744394	2.803148136257
5	118079	27934.123002886304	4.952014215935
5	118128	27945.071373433309	2.70912232775
5	118213	27964.607343569244	0.799284572908
5	118222	27965.295976002896	1.379990461801
5	118239	27970.335839627411	0.063361700624
5	118247	27971.439469194639	0.714317267979
5	118263	27973.691233575561	0.014205153033
5	118344	28002.445876022001	11.394856419803
5	118362	28005.851093728913	14.275744818604
5	118376	28009.734340631576	17.024754130101
5	118425	28021.473181630779	28.433760270327
5	118453	28023.345465861081	29.890641064187
5	118460	28024.873358208211	27.697454784786
5	118465	28024.890193247067	20.032140177791
5	118473	28027.438441195569	20.050728976605
5	118484	28029.920270675352	19.560023561824
5	118489	28030.043753377017	18.989468646159
5	118504	28034.540600070875	21.217087432211
5	118562	28041.603970176163	25.402190334319
5	118569	28042.682337794611	24.325503164852
5	118580	28046.144056917994	26.715331241489
5	118602	28052.38445010707	30.679143155868
5	118613	28053.594358202828	31.219300179678
5	118671	28060.306464438489	30.154153490487
5	118681	28061.801864670671	28.675649918152
5	118686	28062.021800966442	28.100988164829
5	118700	28068.156073193303	32.840867653083
5	118712	28068.891500945911	32.200166847846
5	118719	28071.866966101066	21.892215490991
5	118730	28076.561443182622	22.602003942057
5	118741	28081.141442102678	25.533010281953
5	118787	28087.222675764493	26.906553249809
5	118795	28092.468814271002	31.459927278663
5	118807	28094.776428073194	29.002199833003
5	118812	28096.281282807304	30.324742798908
5	118822	28098.972372174493	19.163603759149
5	118867	28110.181931395159	4.370562056067
5	118971	28142.790643990857	22.834342314642
5	118996	28147.819445427019	15.932099435532
5	119058	28160.96936228222	28.807409227006
5	119063	28161.672346992384	29.197967909985
5	119068	28161.968258811101	26.64565551571
5	119075	28162.205664391291	18.276665884952
5	119150	28175.205530104888	29.381877290669
5	119167	28177.528031215595	22.001678607736
5	119181	28180.599770193206	24.0073561193
5	119187	28181.513019470504	24.068319546143
5	119193	28183.745123549729	24.824440859411
5	119198	28185.569266090404	22.348688183646
5	119207	28189.662381024034	26.131738171506
5	119222	28191.928986733226	26.758848991937
5	119234	28193.322365360897	22.624517614028
5	119239	28195.330743410902	20.255386307134
5	119249	28199.224365046934	22.803941740928
5	119260	28200.383007303189	22.251011153244
5	119271	28205.653136781242	26.444391875368
5	119302	28218.804396883311	27.954986961469
5	119309	28219.145856185756	21.516951347383
5	119322	28221.665851993097	19.335681460705
5	119327	28222.294132177683	15.624234102058
5	119334	28224.298480408808	13.795555895627
5	119361	28231.997344408676	11.993000070268
5	119366	28232.318198087993	5.08519174672
5	119371	28232.446912191759	3.992919647177
5	119376	28234.05009346383	2.504436202281
5	119380	28235.438235248997	3.865778706599
5	119400	28242.4809389413	3.314057368653
5	119413	28243.764600721303	0.583892228179
5	119436	28248.508369617935	0.533239246523
5	119458	28253.237451546629	2.25379672222
5	119463	28254.234707979446	3.159703305894
5	119472	28257.147619564109	5.163347767612
5	119485	28260.087850606984	5.320049519572
5	119489	28261.460032726508	2.913615697884
5	119516	28268.983023163165	3.246076006746
5	119534	28273.059604650574	1.158767716411
5	119565	28277.74126534215	2.501295496476
5	119574	28280.105278392184	1.619038700853
5	119590	28284.801616337014	1.527342756637
5	119600	28286.542283524404	1.262921537977
5	119616	28291.288372310383	1.290599502333
5	119648	28297.149182281568	3.817288501809
5	119729	28308.018793261617	12.792555281923
5	119748	28312.166907408429	16.582471164144
5	119755	28314.18706215282	17.350378818338
5	119760	28315.545712172727	17.981339828808
5	119765	28315.648306565993	10.915290621977
5	119769	28315.816643870616	6.633288647109
5	119839	28330.317818093018	4.018278805357
5	119867	28334.939210603672	0.932032078255
5	119922	28344.026395226641	8.74374755773
5	119932	28344.313966082388	8.328373986277
5	119937	28345.037055713298	8.6970393952
5	119953	28349.062834032014	1.8557071723
5	119975	28355.429105699233	7.387528646204
5	119982	28357.467577621043	3.349881010844
5	119991	28361.561763459668	4.773928603938
5	120005	28369.690436870337	11.342769219896
5	120059	28379.799030129174	20.053719636003
5	120066	28380.259237665481	11.311668136227
5	120086	28384.412522022038	14.479088211794
5	120167	28399.422073140431	27.384848887539
5	120196	28403.745040047541	28.737437576106
5	120201	28403.911276018441	25.890154987082
5	120207	28405.059483160178	21.856254027382
5	120217	28405.902505003014	20.947612248261
5	120222	28406.046165821115	13.697429443761
5	120230	28407.324930717813	7.82870976253
5	120245	28412.109584320688	6.620143853625
5	120264	28415.127960417075	9.263824609254
5	120279	28416.90912624207	9.510748204615
5	120297	28422.438060872278	14.114464387917
5	120322	28427.185144429472	18.198595232207
5	120326	28427.304139853454	10.90033065903
5	120359	28434.071491703373	0.034615956321
5	120421	28451.232491973	12.55947124352
5	120426	28452.29007780301	13.116732856073
5	120435	28455.345789973701	13.960427041218
5	120446	28455.971426021689	11.575022998674
5	120451	28456.171793185104	10.015874826352
5	120458	28460.427108914691	12.244152176975
5	120486	28466.354235890496	13.652859799678
5	120495	28470.258276571955	8.908343169075
5	120541	28478.922993056176	1.687835798058
5	120603	28490.547723880244	0.168996216568
5	120667	28506.474854532264	11.826828742005
5	120672	28509.106748836932	13.973446039415
5	120679	28510.380249612619	14.637963272223
5	120686	28512.97854862265	11.938163419082
5	120691	28513.474977616022	3.783659772435
5	120698	28515.679350587952	3.775666376034
5	120702	28516.823970217651	2.598358481743
5	120710	28519.218191173782	0.55001469636
5	120823	28556.891523457088	2.433410642978
5	120841	28558.131662078535	0.736742866415
5	120851	28559.312568840229	0.921987301212
5	120858	28561.808913924238	0.415878904957
5	120869	28568.552766560642	3.240454509841
5	120930	28580.906115493623	0.469362610894
5	120968	28592.020659169745	2.527034143696
5	120981	28594.15339986546	3.790937708515
5	120994	28604.797324501382	0.709622518951
5	121013	28614.846117554033	4.590644015385
5	121017	28615.050057109285	4.078808204126
5	121041	28624.187390365651	0.161003698892
5	121055	28637.333928729028	4.18520995843
5	121101	28643.399555296713	3.170540733083
5	121108	28644.841856412588	4.073084697389
5	121121	28646.344804908035	4.787271857367
5	121142	28657.263576470375	2.181196495823
5	121149	28659.198745224935	0.235885958897
5	121161	28663.904329245549	4.384193516689
5	121218	28675.667774861209	4.55257453873
5	121237	28678.00261640507	0.232371803547
5	121244	28679.651003446905	0.152877322621
5	121254	28682.738351637233	2.855767709114
5	121263	28683.989126326367	2.164408208379
5	121363	28713.348122265733	29.153907897864
5	121368	28713.585390935338	26.219883732922
5	121375	28716.003712735225	28.099661375917
5	121394	28721.145953548369	31.148061571602
5	121433	28729.798443321873	30.019418189224
5	121453	28732.629266874861	26.067015895888
5	121460	28732.888799167724	20.454074609784
5	121465	28733.408377256264	17.93393333149
5	121477	28736.391143890447	17.773185040865
5	121495	28740.333778233524	20.476174622636
5	121499	28740.717239893678	9.345242889205
5	121543	28751.648985221092	1.474646164231
5	121603	28760.825348698468	9.089780878774
5	121616	28763.767803833946	10.290701682505
5	121620	28764.835962071558	7.721242873522
5	121632	28766.533274201698	0.81473497831
5	121643	28767.745450405525	1.702578240904
5	121670	28770.59055876405	0.689007258994
5	121710	28784.739621121746	10.091722718848
5	121755	28794.46770706431	15.72513517039
5	121764	28796.168899044009	9.755163222816
5	121773	28800.535389825272	1.157462945895
5	121820	28818.684395820076	4.439169323671
5	121841	28821.06147284395	1.152844610865
5	121869	28833.977829475653	1.584332192301
5	121884	28836.412759537304	0.443157444943
5	121933	28849.117071040724	3.153239425804
5	121966	28862.80780977007	2.37054417024
5	121996	28867.511057242557	5.808366600712
5	122001	28867.517755360996	3.424546882696
5	122015	28870.616082735634	5.277320298426
5	122040	28875.333012236444	8.412694485171
5	122048	28877.157085800249	7.595824140793
5	122059	28879.227852800887	9.205367976953
5	122110	28886.597145804958	9.832642842118
5	122117	28887.210343002912	4.189715353865
5	122133	28890.574021853923	1.912051176522
5	122165	28900.586084754992	0.885981177053
5	122191	28911.566846603081	3.257479846324
5	122200	28919.121433229094	10.161584171376
5	122223	28924.668866902929	1.998877937724
5	122228	28925.850195451645	2.435624474226
5	122232	28929.15614494485	4.612471408538
5	122254	28934.117254777263	3.113071310887
5	122315	28948.885419789163	16.114649618932
5	122319	28950.585026934944	7.565604819061
5	122363	28963.288904489684	11.098404741678
5	122423	28968.177387288601	8.549974945299
5	122435	28970.822757902906	10.434736333494
5	122444	28971.947532142477	9.181365852614
5	122450	28973.351827831894	8.263298642702
5	122457	28974.812791212956	9.534786110253
5	122470	28976.460989528108	9.980067141891
5	122475	28977.122674379005	10.354777671971
5	122488	28980.852033789022	9.203221915384
5	122506	28986.201109972421	14.318971356365
5	122528	28988.823799801849	13.384046390339
5	122539	28990.010420801546	11.436631979925
5	122545	28991.056281841341	10.254753704515
5	122551	28992.758419733708	10.352436118375
5	122562	28998.583707139605	15.373629678511
5	122599	29006.728048799992	19.43370577039
5	122618	29010.420096754465	8.908225399094
5	122644	29014.28943917702	11.660926725126
5	122649	29016.382834299798	11.533116458752
5	122664	29023.228056931501	15.804816039562
5	122688	29027.44558993101	11.015312705723
5	122707	29029.782390254858	1.347587126398
5	122711	29029.94038065103	0.915774595016
5	122718	29032.220405596527	0.07785301681
5	122728	29035.157858136866	2.926328231267
5	122794	29050.576560119805	4.526668136156
5	122802	29052.429508259871	6.125392451484
5	122816	29058.211713529821	10.694725061595
5	122825	29059.802557063141	10.020918775663
5	122858	29065.926589745424	0.842679935809
5	122863	29068.232527196027	2.922563536703
5	122879	29070.679144345951	0.54041642582
5	122894	29074.609540888243	3.043496179773
5	122915	29079.20889827049	6.503248102754
5	122977	29089.026276547006	16.063957326844
5	122985	29090.430469539659	13.903607710589
5	122992	29090.546777001842	11.385855141238
5	123051	29097.847199088589	17.257367670731
5	123061	29103.122192001844	19.520756431052
5	123082	29109.185425049245	24.469890821861
5	123093	29109.62962322438	19.820618856754
5	123106	29113.619145193268	21.322779930057
5	123117	29114.46979779097	21.714455386764
5	123126	29116.585575243426	21.454882437441
5	123146	29124.215037978545	20.780564252417
5	123170	29128.733063582718	17.520716985499
5	123181	29129.401699555538	18.12274150959
5	123187	29130.346940684692	14.87970627557
5	123194	29131.76765012258	13.171795336669
5	123201	29133.36300671891	12.697244304644
5	123221	29138.10934595972	6.841435623121
5	123254	29147.77421413111	10.897249648638
5	123261	29149.370150881701	12.141693517688
5	123284	29151.963183990246	12.369028560444
5	123300	29154.344296449239	9.349092086405
5	123374	29165.918858725756	20.556125444064
5	123379	29166.603366576854	14.557126471986
5	123386	29168.827356444687	11.928757716232
5	123393	29171.931509939185	14.750753955222
5	123400	29172.629891068039	13.446011258667
5	123414	29173.898136520071	14.254700751714
5	123442	29180.367350847897	19.899534665866
5	123447	29180.943574591416	20.321225988278
5	123453	29181.520515345516	17.775606872629
5	123458	29182.104283120377	10.519135652715
5	123467	29186.420479887448	0.182439340309
5	123518	29198.411811311402	2.858864480828
5	123523	29198.438223925665	1.798116345027
5	123527	29200.933669175593	3.697856282256
5	123552	29207.380734383171	0.878659982748
5	123638	29224.900233044519	14.575196465999
5	123674	29230.005595232902	19.210997557281
5	123684	29232.070677723411	14.182014361
5	123702	29233.555702205999	10.334009258693
5	123710	29235.60707957929	2.767991132869
5	123717	29237.324434939797	1.891360602185
5	123737	29243.589771861087	1.134012165491
5	123752	29248.168598645237	4.47181025855
5	123763	29249.649774093869	5.619958830151
5	123767	29251.456677740301	4.314283540497
5	123796	29259.44320434682	6.435391188254
5	123808	29261.13218532253	5.396120855474
5	123858	29272.011505857757	5.635396860847
5	123867	29272.395663423897	4.721314319079
5	123917	29281.100307709742	0.13547934373
5	123929	29285.580866450236	1.959444425784
5	124000	29305.820755285377	1.026257044872
5	124041	29313.710570869043	1.002823893025
5	124066	29318.064397216754	1.302311216611
5	124077	29323.451159141491	6.61341577434
5	124090	29327.726008279859	8.08223560291
5	124099	29330.497029532967	5.530240080076
5	124123	29335.644746426676	7.187630576835
5	124162	29342.983154854243	11.237927840172
5	124220	29354.651422850932	19.044102285198
5	124229	29355.899392045602	10.440816054936
5	124238	29358.942694292426	11.855886529433
5	124266	29362.397904548004	6.947297536894
5	124281	29364.529610543749	6.116901556667
5	124315	29373.20971717779	1.336899232732
5	124411	29390.323887835399	16.688597715589
5	124420	29390.973521068701	15.154427015236
5	124427	29391.656631941944	7.831715547903
5	124437	29392.647999481717	2.007420607172
5	124466	29402.475528705371	4.600796344722
5	124489	29407.903962534922	1.12698585957
5	124517	29415.994077779664	2.742822697925
5	124530	29420.03618244096	5.208012962078
5	124534	29420.390089825698	1.268002583602
5	124541	29429.191321486705	1.358812438237
5	124553	29436.326787607026	4.943253341613
5	124678	29461.53534154429	21.038340777029
5	124711	29465.668184968281	21.907913941944
5	124717	29466.849799602143	20.486508602383
5	124724	29467.910588843951	20.20162220366
5	124728	29467.939808584935	0.664255107707
5	124739	29471.106426804754	0.737242727866
5	124765	29478.313293267652	1.764968490393
5	124769	29479.341334434845	1.814866278322
5	124790	29490.869100087111	1.464008522585
5	124797	29491.795942317399	2.010715269768
5	124828	29501.596351506813	5.404212661672
5	124846	29504.900060767153	5.330113486766
5	124851	29506.378694755078	6.443998766334
5	124877	29511.961779692162	2.081607623195
5	124893	29516.780730562574	6.59343845649
5	124914	29519.664436218397	4.498282324112
5	124925	29521.823628247308	6.23110326784
5	124941	29526.390461333784	8.624457460962
5	125051	29546.151613585535	21.462106348268
5	125073	29548.621406607406	15.67197753905
5	125078	29548.969845378112	14.462108350469
5	125091	29553.341668769894	16.434605390334
5	125115	29555.347767367241	11.103106076701
5	125134	29558.535363804054	12.110041707852
5	125146	29560.523912278274	6.484703978094
5	125153	29561.459781973053	5.703098293908
5	125162	29565.107146387856	5.348394815537
5	125210	29574.481766878436	5.127337404536
5	125221	29576.744786322441	2.367774162425
5	125237	29581.641308772177	3.156917089239
5	125248	29584.049928774586	0.297162519662
5	125281	29592.602547976095	2.990460404902
5	125290	29594.440708126987	4.314734826342
5	125308	29596.879388919235	3.051518411316
5	125323	29599.355560417031	3.065828670926
5	125340	29602.223801164744	0.73714295156
5	125351	29605.678188581448	2.651776261009
5	125406	29622.910736259641	1.382980199537
5	125427	29626.207800549507	0.475022812137
5	125486	29635.64717969515	1.998240387739
5	125491	29635.986843859918	2.31662479383
5	125508	29639.337896822262	3.151970273718
5	125528	29642.918355748444	6.207720642932
5	125538	29648.23362479563	9.69076598615
5	125551	29650.842899650121	10.898881929387
5	125566	29654.702902856014	10.756286181933
5	125586	29658.251179781193	5.190495343134
5	125607	29660.328903389392	4.218512460706
5	125625	29665.042907111133	0.924357791726
5	125645	29676.452428438913	3.932593753854
5	125694	29689.670204714753	12.974247946324
5	125707	29690.815595681404	13.771176110124
5	125713	29692.678201160603	8.241033611225
5	125720	29693.15520912116	8.102765377774
5	125727	29694.464072724382	4.153654724692
5	125731	29694.491557424173	0.906681218226
5	125754	29698.287163113101	0.713675051878
5	125780	29702.897349062994	0.350343429707
5	125799	29718.315521074015	4.056126980892
5	125808	29721.045784740532	6.157247135792
5	125825	29728.050892615529	7.830730967199
5	125860	29730.971959476758	10.28693124771
5	125889	29735.619959705739	12.707152040442
5	125912	29739.86430945126	13.794425754342
5	125943	29744.955565970535	16.214027393908
5	125948	29745.045990588401	15.536262260038
5	125953	29745.69140889982	12.66852590374
5	125959	29745.868804997274	10.024412950806
5	125965	29747.208509138471	9.773018539188
5	125970	29748.00325383023	9.381475696902
5	125979	29749.022019730328	4.23302947992
5	126013	29752.098341919383	1.073563571281
5	126023	29752.45970992695	1.10831209438
5	126030	29754.42619695549	2.399535467188
5	126038	29759.171873852589	5.056340778833
5	126117	29776.1413822672	0.216287050825
5	126146	29784.778639637566	3.849191221493
5	126186	29790.387908629275	5.101019187769
5	126198	29794.233711796355	0.696343045277
5	126205	29795.898711035538	0.620104065866
5	126214	29799.493240375678	2.005930555604
5	126221	29802.746756748193	0.301124350617
5	126229	29804.045789135293	0.275947288079
5	126276	29810.221987848062	1.526346104415
5	126282	29813.287574191753	3.570260979509
5	126298	29817.250312426024	0.979653620794
5	126377	29832.318325828288	11.208588638131
5	126391	29834.851071258939	11.606643843565
5	126396	29834.937889838432	1.980049109495
5	126400	29835.667233770998	1.748148636938
5	126409	29836.827403802454	1.022572125717
5	126482	29847.437568614758	1.625100224792
5	126494	29850.427514697276	2.243608270616
5	126498	29851.059928224542	1.183784157399
5	126515	29856.258426370641	0.988986686109
5	126547	29866.018221252935	3.853782900383
5	126563	29867.413897689689	0.521096683123
5	126573	29868.718673282726	0.889610701763
5	126586	29872.714235152307	4.614330867867
5	126591	29873.89031148347	5.007169473168
5	126598	29874.773816969639	4.759531347125
5	126603	29876.169394897404	3.650490002841
5	126616	29879.498740098672	5.361627255202
5	126692	29896.63128244973	20.058175678474
5	126702	29898.912072680591	21.665311756739
5	126710	29903.027092256686	20.622635476524
5	126739	29909.783802322818	21.990118433516
5	126749	29911.548394563567	16.363590905897
5	126761	29916.963011143083	13.386058189656
5	126766	29917.299310030197	13.655753884038
5	126771	29917.640748321934	10.60920661867
5	126780	29918.746260056491	2.710074272394
5	126794	29921.559477947044	3.180044649495
5	126809	29925.919334428337	4.973721452971
5	126834	29929.770438095089	5.984802326148
5	126839	29931.921948540389	7.735197855393
5	126848	29935.662197168644	10.228641464518
5	126861	29938.364220186465	3.481487331716
5	126872	29940.925661293623	3.347203861524
5	126907	29946.99463072816	7.679153178942
5	126911	29947.023848694788	6.167592917825
5	126927	29956.707811180059	5.223626857656
5	126936	29961.281595568951	7.872573193507
5	126972	29965.661289339403	11.646459516404
5	126988	29969.100790438314	15.077855364871
5	127001	29971.122277045649	3.135418715323
5	127091	29996.624389667168	2.414511947464

