version 2
run Second-n2-18-20191016-14:53:09-6216
attr configname Second-n2
attr datetime 20191016-14:53:09
attr experiment Second-n2
attr inifile omnetpp.ini
attr iterationvars ""
attr iterationvarsf ""
attr measurement ""
attr network org.omnetpp.queueing.Pizza
attr processid 6216
attr repetition 18
attr replication ""
attr resultdir results
attr runnumber 18
attr seedset 18
param **.PS.maxInventoriedPS 2
param **.U1.interArrivalTime exponential(3s)
param **.U2.interArrivalTime exponential(5s)
param **.PS.serviceTimeForInventoryU1 exponential(1.0s)
param **.PS.serviceTimeForInventoryU2 exponential(1.2s)
param **.PS.serviceTimeDirectU1 exponential(1.4s)
param **.PS.serviceTimeDirectU2 exponential(1.4s)
param **.PS.probabilityProducing 0.7
param **.CS.serviceTimeU1 exponential(1.1s)
param **.CS.serviceTimeU2 exponential(1.4s)

vector 0 Pizza.EntryQueueU1 queueLength:vector ETV
attr interpolationmode sample-hold
attr title "queue length, vector"
vector 1 Pizza.CS queueLength:vector ETV
attr interpolationmode sample-hold
attr title "queue length, vector"
vector 2 Pizza.EntryQueueU2 queueLength:vector ETV
attr interpolationmode sample-hold
attr title "queue length, vector"
vector 3 Pizza.sink lifeTime:vector ETV
attr interpolationmode none
attr title "lifetime of arrived jobs, vector"
attr unit s
vector 4 Pizza.sink lifeTimeU2:vector ETV
attr interpolationmode none
attr title "lifetime of arrived jobs, vector"
attr unit s
0	0	0	0
0	13	3.837040156412	1
0	15	3.871760488338	2
0	20	5.420969847661	1
0	28	7.162516673358	2
0	31	8.963422107919	1
0	35	10.192006838088	2
0	38	10.959047461217	1
0	45	12.89859860685	2
0	46	13.649753956257	1
0	52	14.82738764571	0
0	64	15.818306844759	1
0	66	16.478082862819	2
0	68	17.400586069353	3
0	69	17.507689119492	2
0	74	19.489603358491	1
0	82	21.597352341496	0
0	101	26.355277481156	1
0	102	26.406581148549	0
0	119	35.055901450747	1
0	122	35.368617335424	0
0	157	40.108578606386	1
0	159	40.279690711686	2
0	161	40.312924183022	3
0	163	44.512544460194	4
0	164	46.185594241416	3
0	170	47.806357925033	2
0	176	48.246924036232	1
0	181	48.860568217023	0
0	187	49.122539608445	1
0	190	49.559698148602	2
0	194	52.899555177373	3
0	197	53.706279683122	2
0	203	53.806836883428	3
0	205	53.853246123441	4
0	208	54.984448526741	3
0	213	55.255340487202	2
0	218	55.966111829493	1
0	222	57.086636037328	2
0	226	57.523912012713	3
0	230	58.708216165136	4
0	231	59.119830273023	3
0	238	59.934651419326	2
0	243	61.227635409248	1
0	249	63.475441595726	2
0	250	64.534050370177	1
0	257	65.360327558588	0
0	272	67.567644365154	1
0	274	67.713655928078	2
0	275	69.392454698721	1
0	280	69.633035234491	0
0	301	75.596212805299	1
0	302	75.81772945808	0
0	334	85.623749209258	1
0	337	86.826595109689	0
0	350	87.995572847604	1
0	353	90.11722074262	0
0	391	103.544793985277	1
0	392	104.002261893628	0
0	439	118.303819818139	1
0	441	120.002906532673	2
0	442	121.472371106197	1
0	448	122.30454760141	0
0	457	124.157706246422	1
0	459	125.069190188184	2
0	460	125.233323812086	1
0	465	126.060574983481	0
0	469	126.31397412185	1
0	473	126.747879725814	2
0	474	126.862738226402	1
0	479	129.284723900506	0
0	505	138.314062225247	1
0	506	138.404199040668	0
0	518	148.26631149293	1
0	523	150.444354660791	2
0	524	150.821969610227	1
0	530	150.977256395221	2
0	534	152.809501175224	3
0	536	153.27263522815	4
0	542	156.887900932136	5
0	543	158.381511549887	4
0	548	158.427504923352	3
0	554	158.45305815296	4
0	555	158.528125436717	3
0	561	159.692720739802	2
0	568	160.583010735284	1
0	572	160.765376641319	2
0	577	162.539191415634	3
0	583	163.240398190151	2
0	588	163.470382562175	1
0	597	166.53247073813	0
0	619	169.914818848635	1
0	622	173.469892499534	0
0	628	173.5961679355	1
0	630	174.26092638794	0
0	643	177.622972907203	1
0	644	178.387591429484	0
0	672	187.698760496815	1
0	674	187.795903085287	2
0	676	188.225525635696	3
0	677	189.212753268888	2
0	683	189.447382493577	3
0	685	189.652523538224	4
0	689	190.172697416994	5
0	693	192.762526287252	4
0	698	193.573631620617	3
0	704	194.353092878858	2
0	709	194.852377894125	1
0	714	194.873010129191	0
0	720	195.670167245197	1
0	729	197.482513206793	0
0	777	209.011827507754	1
0	781	210.116880356919	2
0	783	212.078182209207	1
0	788	212.336192856338	0
0	801	215.369884153819	1
0	803	215.679904005016	2
0	807	218.967209294523	3
0	808	219.150164876918	2
0	815	219.766128634059	1
0	821	220.311159882841	2
0	824	221.799737383176	1
0	829	221.90501392858	0
0	835	222.199509030689	1
0	840	224.425930000948	0
0	861	225.464450010075	1
0	864	225.707344958927	2
0	868	226.356630190452	3
0	869	226.529848496878	2
0	874	226.968574702503	1
0	880	227.206573991849	0
0	892	229.668001827904	1
0	895	230.060753392242	0
0	904	230.281466048009	1
0	908	231.396065047602	0
0	912	232.074202594832	1
0	919	233.490716790728	2
0	923	234.359316900573	3
0	924	234.82388480713	2
0	932	236.908723892994	1
0	937	237.5840963671	0
0	943	242.755375092101	1
0	947	243.020805235975	2
0	950	244.976285595558	1
0	957	246.067662637194	0
0	963	247.756228697611	1
0	964	248.202480202097	0
0	975	248.475646370841	1
0	976	249.314022393403	0
0	980	249.569981965813	1
0	985	251.498180263214	0
0	989	251.714101660586	1
0	997	253.122887814324	0
0	1034	259.533273115901	1
0	1035	259.548493095364	0
0	1042	259.646142788086	1
0	1043	261.058073242693	0
0	1057	264.475064684323	1
0	1059	266.464259957768	0
0	1065	266.989466763875	1
0	1068	267.246517343947	0
0	1075	268.034149958245	1
0	1076	269.34057532897	0
0	1120	288.341037947942	1
0	1122	288.625245172715	2
0	1123	289.522577247172	1
0	1128	289.535572602104	0
0	1142	292.12268229188	1
0	1144	292.591776853827	2
0	1147	294.426308358922	3
0	1150	296.580846631744	2
0	1155	297.552412526115	1
0	1163	298.917021900857	0
0	1172	299.780317222707	1
0	1176	300.994320243217	2
0	1177	301.183932892321	1
0	1182	301.566635390862	0
0	1188	301.634760878954	1
0	1193	302.362079085867	2
0	1194	302.831949936379	1
0	1199	303.165782394637	0
0	1203	303.445619471316	1
0	1206	304.124964783755	0
0	1233	307.703124758881	1
0	1235	308.194221879785	2
0	1238	309.279215586131	1
0	1247	311.927813964985	0
0	1254	312.410974290129	1
0	1255	315.100169834156	0
0	1289	327.263154422148	1
0	1293	328.538389915939	2
0	1294	329.265100041683	1
0	1300	331.301678590044	0
0	1309	331.508083008068	1
0	1311	332.357529893649	2
0	1316	334.409311471984	3
0	1317	334.896641888794	2
0	1323	335.030622011078	3
0	1324	335.654904474506	2
0	1330	336.602345838786	1
0	1335	336.724930738137	0
0	1351	340.440403298214	1
0	1354	341.834679387557	0
0	1361	343.69577691383	1
0	1364	348.664863664478	0
0	1381	353.229609075623	1
0	1382	353.443339877634	0
0	1426	365.30504366618	1
0	1431	366.495222376482	0
0	1457	370.693211391937	1
0	1458	371.09390424189	0
0	1476	379.885229998109	1
0	1479	380.398809421932	0
0	1491	382.280511300641	1
0	1497	383.167766488852	2
0	1499	383.597518420049	3
0	1500	383.759351116959	2
0	1505	383.903785097451	1
0	1511	384.892457332718	0
0	1517	384.952164981101	1
0	1519	385.0138853519	2
0	1521	385.459641106741	1
0	1527	385.907409003645	2
0	1528	386.224453553662	1
0	1533	388.298991722758	0
0	1537	388.974389642508	1
0	1539	389.120593045242	2
0	1543	390.807904860911	3
0	1545	390.914324637645	4
0	1546	391.660227843784	3
0	1552	396.173041011243	2
0	1561	397.681179274043	1
0	1566	397.948853235997	0
0	1581	401.780970358168	1
0	1582	402.347894921146	0
0	1602	409.34292399128	1
0	1610	410.556667854195	0
0	1632	423.820491768162	1
0	1635	424.490494084013	0
0	1652	428.786045536148	1
0	1653	429.905919597902	0
0	1665	432.451429977399	1
0	1666	433.038438249544	0
0	1675	435.94039986258	1
0	1679	438.320395406283	2
0	1683	439.828001135591	1
0	1688	440.118088552449	0
0	1700	441.054914280572	1
0	1701	441.161127538574	0
0	1707	442.274250375613	1
0	1712	444.027099870152	0
0	1742	449.614412110254	1
0	1744	449.802355628104	2
0	1746	450.036020816122	3
0	1748	451.821281993442	4
0	1751	452.46988458209	3
0	1756	452.989684206171	2
0	1761	453.978210419509	1
0	1766	454.71883160809	0
0	1789	460.493805953924	1
0	1793	462.455920501757	0
0	1799	462.490002872522	1
0	1800	462.736632520225	0
0	1818	466.246060526006	1
0	1820	466.94463680616	0
0	1832	467.643056075176	1
0	1834	467.648906774523	2
0	1836	467.912176566804	3
0	1837	468.264307951975	2
0	1844	469.716309731928	1
0	1849	469.961070004151	0
0	1893	486.695184384376	1
0	1895	487.268986864397	2
0	1896	488.998375948916	1
0	1902	490.101781027061	2
0	1905	490.21079550215	1
0	1914	494.215890669895	0
0	1926	498.422501234555	1
0	1931	501.697844394759	0
0	1947	506.612009896036	1
0	1950	508.492501007535	0
0	1967	518.719521934077	1
0	1971	519.740614035204	2
0	1972	520.901140078368	1
0	1977	521.665519423833	0
0	1998	523.763770089931	1
0	2001	524.353027369244	0
0	2007	524.488361095007	1
0	2008	524.686765233043	0
0	2030	529.615007281972	1
0	2031	530.302730946059	0
0	2037	531.557934928218	1
0	2040	534.237194559018	0
0	2047	535.784950809664	1
0	2048	536.459136571291	0
0	2095	554.745003874737	1
0	2096	556.745209784459	0
0	2105	556.989333593546	1
0	2107	558.478515908638	2
0	2111	560.239803250167	1
0	2121	562.803603876962	2
0	2122	563.059341001655	1
0	2128	564.024298136113	0
0	2134	564.09804030932	1
0	2135	564.134343299461	0
0	2146	564.846946554143	1
0	2150	568.399727803935	0
0	2174	577.09034661101	1
0	2175	578.748989890145	0
0	2194	584.309056944692	1
0	2196	584.956844163131	0
0	2202	585.001739873289	1
0	2205	586.714551641407	0
0	2224	590.701485571796	1
0	2227	591.803558858034	0
0	2243	597.370104269148	1
0	2246	597.772213505472	0
0	2260	599.311726090096	1
0	2264	600.006816795774	2
0	2267	600.914104230746	1
0	2277	602.911930091373	2
0	2278	603.712740040133	1
0	2284	604.323116470666	2
0	2287	607.264676984318	1
0	2297	610.043934940219	2
0	2298	610.535394361596	1
0	2307	611.456416571758	2
0	2309	612.9191691897	3
0	2310	613.028570686698	2
0	2315	613.06804439659	1
0	2320	613.144916530492	0
0	2326	614.984288151134	1
0	2327	615.004785568546	0
0	2349	617.61257316434	1
0	2351	618.349016702649	2
0	2355	624.232912532846	3
0	2359	627.190520331726	2
0	2364	627.253319141452	1
0	2372	628.814287966833	2
0	2373	629.283056528863	1
0	2383	630.181945933143	0
0	2401	632.407257086848	1
0	2409	634.267646990838	2
0	2410	636.758233282195	1
0	2416	637.184726771782	2
0	2418	638.178426221334	1
0	2423	638.332410958329	0
0	2437	639.484305641683	1
0	2443	641.176628444301	0
0	2471	647.578209540637	1
0	2474	648.749459034862	0
0	2480	648.768172019165	1
0	2481	648.876964675699	0
0	2498	650.850011391122	1
0	2500	651.836562977811	2
0	2502	652.032534008007	1
0	2507	652.803898745214	0
0	2515	655.688831297774	1
0	2518	657.306972561196	0
0	2526	658.016383031618	1
0	2527	658.260026186879	0
0	2548	660.880729797354	1
0	2550	661.448210215315	0
0	2561	662.540736180723	1
0	2562	662.983815963747	0
0	2577	667.86741075176	1
0	2582	669.117305271318	0
0	2602	672.366323454008	1
0	2604	672.603367592497	2
0	2605	672.644373626147	1
0	2611	673.331030280074	0
0	2617	673.537773608823	1
0	2622	673.952795198737	2
0	2626	674.824995485834	1
0	2632	675.597399918016	0
0	2638	675.614472646424	1
0	2640	676.009461898372	2
0	2642	676.522464661101	1
0	2647	677.494249466132	0
0	2668	680.728928539434	1
0	2671	681.276014517965	2
0	2675	682.572478566702	3
0	2677	682.990812982828	4
0	2678	684.867325290709	3
0	2684	685.017793401947	2
0	2690	685.420019165854	1
0	2695	685.520925904269	0
0	2721	693.291752306818	1
0	2725	696.733758822581	0
0	2731	696.736125625237	1
0	2736	697.466044435817	2
0	2738	698.022699538712	3
0	2739	699.913171698888	2
0	2746	701.43465427508	3
0	2747	701.866947014091	2
0	2752	701.8869874926	1
0	2758	701.918908553015	2
0	2764	702.541994150333	1
0	2771	705.55709088384	0
0	2792	710.116770606197	1
0	2793	710.494770710296	0
0	2815	712.965882171755	1
0	2818	715.98462445509	0
0	2825	716.583327980633	1
0	2826	716.604099670588	0
0	2833	717.068002668852	1
0	2834	717.509620549453	0
0	2849	718.550695942202	1
0	2851	720.246720663939	2
0	2852	720.612849102555	1
0	2859	721.634354673657	2
0	2860	721.640195406439	1
0	2867	722.00641756338	2
0	2868	722.978059727897	1
0	2874	723.628197186243	0
0	2893	727.098550231641	1
0	2894	728.257672840886	0
0	2907	730.162542641642	1
0	2908	730.338239222595	0
0	2915	730.607432071076	1
0	2916	730.811128917926	0
0	2931	732.540087556178	1
0	2932	732.65528640792	0
0	2952	734.91057035675	1
0	2960	736.256833751349	2
0	2963	737.263579420981	3
0	2966	741.14870462718	2
0	2972	741.224355057419	3
0	2973	742.044405462432	2
0	2978	742.151127308331	1
0	2984	743.531109213994	0
0	2995	744.225965446235	1
0	2997	745.106783871667	0
0	3012	747.782928178953	1
0	3014	751.247021602567	2
0	3015	751.854029197472	1
0	3021	752.981290133696	0
0	3046	761.21518391358	1
0	3047	764.17085768702	0
0	3053	764.438241388351	1
0	3055	765.240062086773	2
0	3058	767.980335562998	1
0	3063	768.06162676259	0
0	3071	769.960243438632	1
0	3073	770.794453431949	0
0	3112	779.445872832154	1
0	3113	780.19223396415	0
0	3130	782.755362126476	1
0	3133	783.196888960354	0
0	3150	786.310076632797	1
0	3154	787.422760946906	2
0	3157	787.822546066507	3
0	3159	788.482490621266	4
0	3160	789.31886033762	3
0	3166	790.449112703254	2
0	3173	791.169517226225	1
0	3180	792.437840933113	2
0	3183	794.415031031426	1
0	3189	795.085362050146	2
0	3190	795.454290302609	1
0	3195	795.483443793707	0
0	3221	801.668936298455	1
0	3223	802.383701814202	0
0	3267	814.960044494927	1
0	3269	816.556654016978	2
0	3271	816.664698072672	3
0	3272	817.192297565746	2
0	3278	817.2346004794	3
0	3279	817.794898131104	2
0	3284	818.428423438832	1
0	3289	819.887344529793	0
0	3295	820.42896329762	1
0	3296	820.741446977681	0
0	3303	823.786836108373	1
0	3305	825.963442837524	2
0	3309	827.325898728848	1
0	3314	827.373550238886	0
0	3322	828.08005708539	1
0	3323	828.330586974137	0
0	3330	829.364488395695	1
0	3332	830.395520627005	0
0	3375	839.918556237592	1
0	3376	840.087041889438	0
0	3393	848.297923220493	1
0	3394	849.255893688666	0
0	3411	851.370299032812	1
0	3413	853.724883398345	2
0	3417	855.425374982743	1
0	3423	855.886618868067	0
0	3446	865.993891106501	1
0	3450	866.496016636819	2
0	3452	867.897522276847	1
0	3457	868.807018118721	0
0	3479	873.032517560699	1
0	3481	873.540410168361	2
0	3482	873.581564081669	1
0	3489	874.514507536178	2
0	3490	874.669130956269	1
0	3496	875.772365531594	2
0	3497	875.830432021499	1
0	3506	876.075937188598	0
0	3549	883.914437979163	1
0	3558	886.472335774708	0
0	3570	888.75368984809	1
0	3572	889.213178824231	2
0	3574	889.583064357061	3
0	3575	889.687946103784	2
0	3580	890.384461701586	1
0	3585	890.687956524047	0
0	3591	891.706348360744	1
0	3592	892.275245715319	0
0	3596	892.752932620739	1
0	3602	895.885416346111	0
0	3645	909.940067707565	1
0	3650	915.940830024	0
0	3659	916.894209392368	1
0	3663	917.152681756911	0
0	3678	919.032933539973	1
0	3682	920.006445907049	2
0	3684	921.623077380649	1
0	3690	923.74625472269	0
0	3705	932.632579100988	1
0	3707	933.971456158443	0
0	3721	935.019396386565	1
0	3722	935.225794694796	0
0	3729	937.764492358415	1
0	3731	938.177171520548	2
0	3733	939.859272327346	1
0	3744	947.467610394828	2
0	3745	947.524927374903	1
0	3751	947.889575354994	0
0	3792	953.195767228569	1
0	3794	954.126085109683	2
0	3795	954.918872069391	1
0	3800	955.260039469808	0
0	3807	956.485023164997	1
0	3811	959.62929840908	0
0	3817	959.938542053337	1
0	3818	960.536996944037	0
0	3826	961.943897225707	1
0	3828	962.364655017921	2
0	3829	962.416052702176	1
0	3836	962.575431258955	2
0	3837	962.69871558429	1
0	3843	963.272862946443	0
0	3861	966.701038346892	1
0	3866	968.513064618384	0
0	3881	972.241558685151	1
0	3883	974.027053352949	2
0	3884	974.342848252757	1
0	3890	976.784497385613	0
0	3920	985.722549069226	1
0	3921	985.841598082222	0
0	3935	986.50799289223	1
0	3941	988.376597447328	2
0	3944	990.278483597962	1
0	3950	991.122682055869	0
0	3961	991.180862105955	1
0	3962	991.19469998112	0
0	3973	991.242196202867	1
0	3977	992.403893672852	2
0	3979	992.499634540604	3
0	3983	994.242161587225	4
0	3985	994.864734881054	5
0	3986	995.929480838794	4
0	3993	996.938131755511	3
0	3999	997.223184098159	2
0	4010	1000.821834329865	1
0	4016	1001.246542844792	2
0	4023	1001.801431063285	3
0	4026	1002.997104930224	4
0	4028	1003.01437533311	5
0	4030	1003.970149440184	6
0	4031	1006.033718151861	5
0	4038	1006.377909587748	6
0	4039	1006.407851475429	5
0	4044	1006.744245442139	4
0	4051	1007.259193471336	3
0	4057	1007.814035213127	4
0	4060	1008.315904775945	3
0	4064	1009.153953041223	4
0	4067	1009.574329258491	3
0	4076	1016.136572067999	4
0	4077	1016.990627969338	3
0	4085	1018.804983424364	4
0	4086	1019.383223983519	3
0	4093	1020.848124849654	4
0	4095	1022.125400069057	5
0	4097	1022.71185158923	6
0	4098	1023.122294560808	5
0	4105	1023.329942655254	6
0	4107	1023.441557320999	7
0	4109	1023.9124619616	8
0	4113	1025.55330663785	9
0	4120	1026.929754100281	8
0	4128	1028.435615936715	7
0	4133	1028.522670002026	6
0	4138	1028.552780699337	5
0	4145	1031.040029131577	4
0	4151	1033.485303968337	5
0	4152	1033.631168664984	4
0	4157	1034.861158457896	3
0	4162	1036.324810669683	2
0	4166	1036.507562164258	3
0	4169	1036.937387087452	2
0	4174	1037.822805715902	1
0	4183	1040.78616579529	0
0	4196	1043.579006954785	1
0	4201	1045.353063480754	2
0	4202	1045.392341495851	1
0	4208	1046.580872609865	2
0	4210	1047.549138471829	1
0	4216	1049.820027473393	0
0	4244	1054.406160956991	1
0	4247	1057.170239611051	0
0	4253	1057.459206720317	1
0	4254	1058.017603506177	0
0	4270	1063.117488552648	1
0	4273	1063.50119381755	0
0	4283	1064.607513434603	1
0	4291	1066.537725489329	2
0	4292	1067.448747720239	1
0	4298	1069.655943790323	0
0	4304	1070.189405716079	1
0	4306	1070.959782453567	0
0	4313	1071.848325546695	1
0	4316	1073.313743846109	0
0	4345	1077.259509140956	1
0	4347	1078.758488028932	2
0	4348	1080.012334840744	1
0	4353	1080.9457866046	0
0	4365	1083.021584154701	1
0	4367	1083.764419664296	0
0	4386	1090.882207425309	1
0	4387	1091.202143923105	0
0	4397	1091.591428769505	1
0	4399	1091.774780549605	2
0	4402	1093.196810297886	1
0	4408	1093.599910139841	0
0	4414	1094.221127829073	1
0	4416	1094.645394422676	0
0	4425	1094.70626324356	1
0	4427	1095.996610865778	2
0	4429	1096.016191885644	3
0	4433	1098.343824578869	2
0	4438	1098.464725179331	1
0	4444	1098.481662588357	2
0	4448	1099.124354958452	3
0	4449	1099.293892245322	2
0	4455	1101.506395414725	1
0	4461	1102.226295029239	0
0	4520	1117.61503549394	1
0	4524	1119.24465866765	2
0	4526	1119.835073401783	3
0	4527	1119.879483098212	2
0	4533	1121.533178289391	1
0	4539	1121.586659522007	2
0	4541	1122.251724096185	3
0	4546	1122.622575164237	2
0	4551	1122.954665432174	1
0	4559	1124.435355552994	2
0	4560	1125.176822520935	1
0	4568	1125.895802921028	2
0	4569	1126.151996671215	1
0	4574	1126.845278245007	0
0	4585	1128.889978320788	1
0	4590	1132.171373338739	2
0	4593	1132.565302246596	1
0	4601	1133.76304400606	0
0	4607	1133.815448357657	1
0	4608	1133.962729992861	0
0	4614	1134.059294858103	1
0	4615	1134.545890418033	0
0	4627	1135.674550696254	1
0	4628	1135.895007097102	0
0	4643	1138.417387330593	1
0	4646	1139.380835409057	0
0	4670	1143.60502798317	1
0	4672	1144.230024676388	2
0	4673	1144.856346030277	1
0	4680	1145.378316955907	2
0	4682	1147.328226109998	1
0	4688	1147.869618625647	0
0	4694	1147.960433912595	1
0	4698	1148.428571540511	0
0	4723	1153.719454651807	1
0	4725	1154.637667439326	0
0	4732	1154.894239682538	1
0	4733	1155.561040506804	0
0	4766	1162.785180734218	1
0	4768	1162.928782512865	2
0	4769	1163.456609929285	1
0	4776	1164.131364102705	0
0	4784	1165.364804626866	1
0	4785	1165.396672405318	0
0	4792	1166.425248128005	1
0	4793	1168.462946839361	0
0	4799	1168.883623292651	1
0	4801	1168.950499275689	0
0	4905	1195.265101894627	1
0	4909	1197.946263356659	2
0	4911	1198.286385002316	3
0	4913	1198.691105334023	4
0	4914	1198.721116577571	3
0	4923	1203.092479782895	2
0	4930	1204.364855147868	1
0	4935	1204.873091525815	0
0	4939	1204.884130432291	1
0	4942	1206.361534868086	0
0	4961	1210.16712298234	1
0	4962	1210.318935762716	0
0	5024	1224.952129496922	1
0	5025	1226.789621810822	0
0	5031	1228.147488265895	1
0	5032	1228.436792043184	0
0	5090	1254.917318203188	1
0	5091	1255.552721651394	0
0	5109	1261.243286201891	1
0	5110	1261.847306267816	0
0	5151	1273.281343492645	1
0	5154	1274.522147478525	2
0	5155	1274.7484103112	1
0	5163	1275.286411617758	2
0	5165	1275.302582304993	1
0	5170	1275.853779339113	0
0	5182	1276.577750279711	1
0	5183	1277.430046180623	0
0	5236	1293.071413959372	1
0	5237	1293.552837888717	0
0	5275	1299.09676653729	1
0	5277	1299.109278224816	2
0	5278	1299.260987771195	1
0	5283	1300.04952651163	0
0	5289	1301.295467128741	1
0	5293	1305.177232896619	0
0	5316	1312.955363650395	1
0	5317	1313.690744395296	0
0	5331	1317.191195128217	1
0	5332	1317.461778598162	0
0	5338	1317.782566243156	1
0	5340	1319.761326264533	0
0	5361	1328.720584324923	1
0	5362	1329.696798395764	0
0	5377	1333.262419113476	1
0	5378	1334.069888787553	0
0	5390	1336.740410096649	1
0	5396	1338.75494675962	2
0	5397	1339.444753565132	1
0	5403	1341.155902929365	0
0	5409	1341.381158716748	1
0	5410	1341.525082824471	0
0	5419	1342.659061395939	1
0	5422	1343.180951039567	0
0	5426	1343.577547457349	1
0	5428	1345.047256430523	2
0	5435	1347.814568857241	1
0	5440	1347.968540684196	0
0	5490	1369.708320431155	1
0	5491	1369.898305033641	0
0	5512	1374.685860295165	1
0	5514	1375.690693520631	2
0	5518	1376.418353494868	3
0	5521	1376.678751131059	2
0	5526	1379.801105298511	1
0	5534	1381.94038666231	0
0	5540	1382.310461760539	1
0	5541	1382.714058606248	0
0	5560	1385.579513260489	1
0	5562	1386.213124150893	0
0	5569	1387.844629667574	1
0	5570	1387.862418281614	0
0	5579	1390.072953190427	1
0	5585	1393.375044072542	0
0	5622	1404.015411541959	1
0	5623	1404.588466583809	0
0	5652	1410.622766963743	1
0	5657	1414.65425955459	0
0	5674	1417.336444236289	1
0	5675	1417.516512710269	0
0	5708	1422.401733845531	1
0	5709	1423.308368932749	0
0	5726	1426.015049765265	1
0	5728	1426.512777177026	0
0	5744	1428.110266840902	1
0	5747	1429.919870140996	2
0	5748	1430.013028975917	1
0	5756	1430.482266896836	2
0	5757	1430.59439284297	1
0	5761	1431.165550252542	2
0	5769	1436.345293711533	1
0	5775	1436.63770302124	0
0	5781	1436.955787937725	1
0	5784	1438.214916648312	0
0	5792	1439.909900394256	1
0	5793	1440.510239766629	0
0	5806	1441.259633314037	1
0	5809	1443.018426312307	0
0	5840	1447.034438873532	1
0	5842	1447.92606271733	2
0	5843	1449.271682203332	1
0	5848	1449.48642878181	0
0	5861	1450.320110643638	1
0	5863	1451.577523907321	0
0	5869	1451.658769475848	1
0	5875	1456.261302551236	0
0	5889	1459.144005431149	1
0	5890	1461.462547495201	0
0	5897	1462.46143811273	1
0	5899	1464.311382818136	2
0	5900	1464.57952920032	1
0	5905	1464.705134691088	0
0	5916	1465.636884133128	1
0	5920	1467.903608396402	0
0	5933	1470.289596752099	1
0	5936	1470.403245992861	2
0	5938	1470.785092281616	3
0	5942	1471.564481974664	4
0	5944	1471.787613103702	5
0	5945	1472.872785246212	4
0	5950	1472.94698053663	3
0	5955	1473.28279866748	2
0	5960	1477.057531492916	1
0	5965	1477.775503525527	0
0	5991	1486.562065519561	1
0	5993	1486.793111692963	2
0	5995	1488.561070730577	3
0	5998	1488.896192739791	2
0	6009	1490.45184814049	1
0	6015	1491.692632403378	0
0	6021	1491.73956207392	1
0	6024	1492.929218958682	0
0	6035	1493.826218466323	1
0	6038	1494.283462027704	2
0	6040	1495.197348664578	3
0	6041	1495.750838149623	2
0	6046	1496.144727978867	1
0	6052	1497.42544140391	0
0	6083	1502.503178018694	1
0	6085	1502.538312685633	2
0	6087	1503.677444322633	3
0	6091	1504.395121266206	4
0	6093	1504.895905502594	3
0	6099	1505.192169065275	4
0	6101	1507.319859719848	3
0	6107	1507.58192053773	2
0	6112	1507.964977061186	1
0	6117	1509.189723541247	0
0	6121	1510.442881706519	1
0	6124	1511.20772067482	0
0	6167	1524.356634582094	1
0	6170	1524.457222962653	2
0	6172	1524.851773011939	1
0	6179	1525.508980124891	0
0	6187	1527.07733772108	1
0	6189	1528.649100577069	0
0	6201	1529.09393269065	1
0	6203	1530.30779851552	0
0	6233	1540.14219712229	1
0	6234	1540.909333994227	0
0	6272	1550.163998651387	1
0	6274	1551.033707896972	2
0	6276	1551.123575495775	3
0	6278	1552.403250894657	4
0	6279	1552.851706357399	3
0	6284	1553.042317385258	2
0	6292	1554.912185156951	3
0	6293	1555.525606268472	2
0	6298	1555.87120452442	1
0	6305	1557.243188797422	0
0	6323	1559.033126008978	1
0	6324	1559.291615454776	0
0	6361	1570.555325797706	1
0	6363	1570.622956844253	2
0	6366	1573.088797850791	3
0	6367	1573.815060807428	2
0	6372	1574.722267327357	1
0	6377	1576.052440670872	0
0	6417	1586.401978019637	1
0	6418	1587.608413166401	0
0	6448	1595.823079216871	1
0	6452	1597.282571735807	0
0	6461	1600.237124807712	1
0	6465	1601.110154163837	2
0	6469	1602.167268635568	1
0	6474	1602.512141698442	0
0	6480	1605.218696644869	1
0	6489	1606.597077026777	2
0	6490	1607.175115105711	1
0	6495	1608.045663383819	0
0	6503	1610.25089313361	1
0	6504	1610.766321539238	0
0	6508	1614.883281989541	1
0	6511	1616.895399375631	0
0	6518	1617.134335942599	1
0	6520	1617.685553646043	0
0	6580	1633.622640416604	1
0	6584	1634.688398511321	0
0	6597	1636.674537474618	1
0	6598	1636.855962959063	0
0	6602	1637.401676816933	1
0	6608	1639.723704025626	2
0	6609	1639.950787146624	1
0	6614	1639.97732085629	0
0	6622	1640.644700774749	1
0	6623	1640.65395130597	0
0	6630	1641.697214829836	1
0	6632	1642.934553460733	0
0	6677	1655.293117454521	1
0	6679	1655.526239276082	2
0	6680	1656.804566667326	1
0	6686	1658.655514969141	0
0	6692	1658.973778458512	1
0	6693	1659.969791599268	0
0	6699	1660.283302504537	1
0	6700	1661.055265339367	0
0	6716	1666.103675890375	1
0	6718	1666.92728264762	0
0	6740	1673.889289006488	1
0	6743	1675.590342957307	0
0	6754	1677.535635864404	1
0	6756	1677.699976152155	2
0	6762	1681.002367412338	3
0	6763	1681.51097491378	2
0	6769	1682.169356987822	1
0	6774	1682.309326987486	0
0	6799	1689.774448379985	1
0	6805	1692.764029140944	0
0	6812	1693.38000789318	1
0	6813	1693.462467805288	0
0	6854	1705.596984260948	1
0	6856	1708.479521864678	2
0	6858	1709.563103966271	3
0	6861	1711.554124286737	2
0	6867	1711.958858591244	1
0	6872	1712.335091990044	0
0	6878	1713.695140152689	1
0	6880	1713.873494742307	2
0	6885	1715.879638928519	1
0	6889	1716.063968061186	2
0	6892	1718.010415825872	1
0	6897	1718.765675660025	0
0	6903	1720.087347704387	1
0	6906	1722.831364442359	0
0	6917	1724.692743635821	1
0	6918	1725.330843958813	0
0	6924	1725.562559908997	1
0	6926	1726.088463408379	0
0	6935	1726.774549798726	1
0	6940	1729.053600667162	2
0	6942	1729.11981733794	3
0	6943	1729.87139194138	2
0	6948	1730.53723659017	1
0	6953	1732.213486533653	0
0	6996	1741.981243081233	1
0	6997	1742.195918517745	0
0	7011	1744.412576004642	1
0	7013	1746.768428642586	0
0	7019	1746.864554137968	1
0	7020	1746.965872413579	0
0	7120	1777.550450435668	1
0	7123	1778.562714878282	2
0	7127	1779.223319841464	3
0	7128	1779.630633978408	2
0	7134	1779.969192776203	1
0	7146	1781.63460231581	0
0	7179	1784.683472111211	1
0	7183	1786.446630942236	2
0	7188	1788.367890074804	1
0	7195	1790.067885280351	0
0	7207	1792.265584347022	1
0	7209	1792.484053493483	2
0	7212	1793.46528060682	1
0	7219	1794.723946393085	0
0	7243	1801.171871750338	1
0	7245	1802.057185210991	0
0	7278	1809.095939576883	1
0	7282	1811.602624571169	2
0	7283	1812.291223803467	1
0	7290	1814.351533864922	0
0	7307	1817.014927177978	1
0	7312	1818.753213630715	2
0	7315	1821.04102182362	1
0	7320	1821.376646297119	0
0	7335	1823.520864241657	1
0	7338	1826.038356281927	0
0	7373	1833.658522429571	1
0	7374	1833.671315264967	0
0	7399	1839.806817957084	1
0	7403	1842.305053708459	2
0	7405	1843.174986583825	3
0	7407	1843.252432529401	4
0	7408	1844.752451823939	3
0	7416	1847.458340566111	4
0	7417	1847.497244176424	3
0	7423	1847.917882054264	2
0	7432	1849.53581804755	1
0	7437	1850.954001894484	0
0	7445	1852.651043336537	1
0	7447	1853.331468233259	2
0	7449	1853.33586005721	3
0	7450	1853.798890435925	2
0	7458	1854.970556891654	3
0	7459	1855.480446191525	2
0	7465	1856.117837286422	3
0	7466	1856.317532259593	2
0	7477	1858.651161048843	3
0	7478	1858.945696342316	2
0	7484	1859.959820315937	3
0	7488	1860.534282601823	2
0	7494	1860.879524390256	1
0	7500	1861.300784434366	2
0	7503	1862.66610221379	1
0	7507	1862.796394640502	2
0	7511	1866.764334336004	3
0	7515	1867.581131776033	2
0	7522	1868.924904038505	1
0	7527	1873.748974000786	0
0	7545	1876.434474608278	1
0	7550	1877.130180673103	0
0	7565	1878.638682455125	1
0	7568	1879.032241427607	0
0	7597	1888.273973189209	1
0	7598	1890.442269293475	0
0	7615	1893.465565505322	1
0	7620	1895.105190626378	0
0	7653	1903.794999532644	1
0	7656	1904.850978806596	0
0	7677	1908.995490291278	1
0	7678	1909.12444434821	0
0	7697	1919.04460045987	1
0	7705	1921.177659162529	2
0	7708	1922.370387943288	3
0	7709	1922.977432497386	2
0	7714	1923.494409404533	1
0	7721	1924.064609472723	0
0	7732	1924.616220313379	1
0	7737	1926.266961279957	2
0	7738	1927.075875082971	1
0	7743	1927.311586931809	0
0	7773	1931.912183888026	1
0	7774	1932.187153683338	0
0	7789	1933.886365030681	1
0	7790	1934.063184576521	0
0	7797	1935.095284489895	1
0	7798	1935.489579146005	0
0	7811	1936.299612299929	1
0	7816	1939.365636056438	0
0	7833	1943.030085375489	1
0	7834	1943.812039943435	0
0	7841	1944.144598775321	1
0	7844	1945.714992192924	2
0	7847	1948.254676460228	1
0	7852	1949.600687554966	0
0	7864	1951.753579872496	1
0	7870	1956.368513321138	0
0	7884	1957.251542604373	1
0	7888	1957.756380550556	2
0	7889	1958.000993735726	1
0	7894	1958.042570201224	0
0	7898	1959.516936133674	1
0	7900	1959.911927465236	2
0	7903	1963.355767088483	1
0	7912	1964.643901067746	0
0	7940	1970.954930883744	1
0	7943	1972.081614150465	0
0	7954	1974.502571249027	1
0	7958	1975.530365676885	2
0	7960	1975.869139710616	3
0	7962	1976.805855851753	2
0	7969	1978.129477617521	1
0	7974	1978.164611565092	0
0	7991	1982.364730485195	1
0	7996	1985.118318786776	2
0	7997	1985.13260873063	1
0	8002	1985.876429019568	0
0	8092	2022.755660161131	1
0	8094	2023.200877446434	2
0	8096	2023.294445522569	3
0	8097	2023.478565099731	2
0	8103	2024.531259502635	1
0	8112	2029.821871997146	0
0	8119	2030.409652696294	1
0	8120	2030.74050638195	0
0	8178	2044.319316721221	1
0	8179	2044.542463507409	0
0	8183	2046.026642063204	1
0	8185	2046.259179088023	2
0	8187	2046.466885362322	3
0	8191	2048.999772697192	4
0	8195	2049.430702374963	5
0	8196	2049.54637611091	4
0	8203	2051.636439626356	3
0	8208	2051.92305701576	2
0	8214	2053.106831239467	3
0	8215	2053.34349029162	2
0	8220	2055.580716107478	1
0	8226	2057.574226900288	0
0	8232	2058.483260161012	1
0	8234	2059.194792027194	0
0	8305	2074.721236102883	1
0	8307	2076.743750127399	0
0	8322	2078.184703408116	1
0	8324	2078.664172412151	0
0	8346	2082.011715037353	1
0	8350	2083.021315137129	2
0	8351	2083.473639318389	1
0	8358	2084.227322959006	2
0	8361	2084.373522087961	1
0	8367	2086.911715796612	0
0	8380	2088.795229881158	1
0	8383	2089.15309332793	0
0	8400	2094.602985810328	1
0	8403	2095.207933986965	0
0	8441	2107.900901436674	1
0	8443	2108.283953044856	0
0	8454	2114.564746630328	1
0	8455	2115.022704980048	0
0	8466	2115.347442970081	1
0	8468	2116.55450357851	0
0	8498	2123.927231808386	1
0	8499	2125.742245424979	0
0	8505	2125.75325829081	1
0	8509	2126.306999066859	0
0	8532	2133.080835825908	1
0	8538	2137.16390819068	2
0	8539	2138.349466247182	1
0	8544	2140.118663568764	0
0	8559	2142.758036262168	1
0	8562	2144.024683871863	0
0	8571	2145.176695632215	1
0	8573	2145.256616892717	2
0	8580	2147.503131322314	1
0	8587	2148.043616364666	2
0	8588	2148.665704597301	1
0	8594	2148.930090669014	2
0	8595	2149.498403426824	1
0	8599	2149.680554912257	2
0	8602	2150.783356708972	1
0	8606	2150.799529915653	2
0	8610	2153.048658507761	1
0	8615	2153.572850213609	0
0	8626	2155.746309196157	1
0	8629	2156.257126165803	0
0	8647	2157.773569236552	1
0	8649	2158.840152803118	2
0	8651	2159.084964942911	3
0	8654	2160.145081740959	2
0	8659	2160.864382018065	1
0	8665	2161.326110980087	0
0	8674	2162.733123573334	1
0	8675	2163.676688194163	0
0	8684	2164.419184485366	1
0	8685	2165.639482772591	0
0	8710	2171.760395995173	1
0	8712	2173.443326966674	0
0	8780	2196.923584184577	1
0	8781	2197.034216723225	0
0	8806	2201.814059022051	1
0	8807	2202.885312048314	0
0	8821	2206.854024611403	1
0	8822	2207.174720139439	0
0	8865	2213.368021719666	1
0	8869	2215.404185239818	2
0	8872	2216.97975586446	1
0	8878	2217.648075368263	0
0	8887	2219.132335036211	1
0	8889	2220.777802887709	0
0	8900	2222.341303779444	1
0	8904	2222.591827094565	2
0	8907	2224.064194627015	1
0	8913	2224.416222522911	2
0	8914	2224.48038415148	1
0	8919	2225.012158289077	0
0	8923	2225.479148723329	1
0	8925	2227.480473056439	2
0	8929	2228.962625981339	3
0	8931	2229.281147068527	2
0	8936	2230.259603272458	1
0	8941	2231.500811653807	0
0	8945	2231.84125947618	1
0	8948	2233.768930461285	0
0	8978	2243.257038862176	1
0	8982	2244.409767992587	2
0	8983	2244.493533987282	1
0	8990	2245.425285679169	0
0	9012	2246.693345843047	1
0	9014	2249.662745705113	0
0	9034	2252.065127274419	1
0	9035	2252.260153581957	0
0	9041	2253.740391504321	1
0	9046	2257.530537767326	0
0	9068	2262.954178038427	1
0	9069	2263.382957356307	0
0	9082	2269.829499894098	1
0	9083	2270.796163192386	0
0	9100	2275.070165046559	1
0	9104	2279.164290232828	2
0	9107	2280.084359059726	1
0	9112	2280.16460922543	0
0	9141	2285.954667952005	1
0	9143	2286.698742552516	0
0	9194	2302.099635849165	1
0	9195	2302.167732011541	0
0	9218	2317.704692505726	1
0	9220	2319.188726862466	0
0	9226	2319.332479279419	1
0	9228	2319.707708993683	0
0	9258	2321.899760404165	1
0	9260	2322.346698887093	2
0	9262	2322.840850337163	1
0	9270	2324.680183801896	0
0	9284	2329.216952340826	1
0	9285	2331.575387049042	0
0	9380	2361.943927579759	1
0	9383	2363.765598843239	0
0	9395	2366.808564676617	1
0	9396	2369.159888324421	0
0	9413	2371.679446994097	1
0	9420	2375.272157381298	0
0	9436	2380.168384150078	1
0	9438	2380.265765051376	2
0	9440	2380.796046393578	3
0	9442	2380.998869196792	4
0	9445	2382.177666166729	3
0	9450	2382.382136590887	2
0	9454	2382.790211498683	3
0	9456	2383.905081857617	4
0	9459	2384.165495614828	3
0	9464	2384.98439641907	2
0	9472	2385.719085721194	3
0	9476	2387.931829482627	2
0	9481	2388.476137914268	1
0	9487	2389.059056319441	2
0	9491	2390.286142252978	1
0	9499	2392.583922678779	2
0	9502	2392.898781914989	1
0	9511	2394.118822510982	0
0	9515	2394.581033733051	1
0	9517	2395.307145127364	2
0	9520	2395.500280801202	1
0	9524	2395.648638355762	2
0	9527	2396.153865268761	1
0	9533	2398.474853315259	2
0	9536	2399.914217826145	1
0	9541	2400.018293918155	0
0	9588	2408.476595817107	1
0	9592	2411.415117202391	2
0	9595	2412.234329268969	1
0	9600	2412.302524940072	0
0	9632	2419.830625371719	1
0	9635	2420.247916013372	0
0	9641	2420.800177555646	1
0	9642	2420.978859283572	0
0	9648	2421.08822003271	1
0	9650	2421.339753226424	2
0	9651	2421.342521847497	1
0	9657	2421.601099762642	0
0	9675	2425.122395888691	1
0	9676	2425.703540894022	0
0	9693	2426.808760119132	1
0	9694	2427.566476473308	0
0	9735	2438.631650413307	1
0	9739	2439.166470408934	2
0	9743	2440.061357665945	1
0	9749	2441.010897300778	2
0	9752	2442.801443270739	3
0	9754	2442.842027666009	4
0	9755	2443.217200927356	3
0	9760	2443.257435127558	2
0	9765	2443.342183580243	1
0	9772	2446.775479730541	0
0	9778	2448.463100123108	1
0	9780	2448.691093018502	0
0	9789	2451.016798322023	1
0	9791	2451.774940579966	2
0	9795	2453.980909245688	1
0	9802	2454.38184298803	0
0	9809	2455.726047058498	1
0	9810	2457.515757890572	0
0	9819	2460.40629990415	1
0	9820	2461.434233562375	0
0	9829	2462.011710835059	1
0	9831	2462.786761358912	2
0	9838	2466.381717631223	3
0	9840	2467.351757193914	4
0	9842	2467.793806929346	5
0	9845	2469.550974643215	4
0	9850	2470.012530824241	3
0	9855	2471.100209972711	2
0	9859	2471.832303562738	3
0	9863	2472.045095584929	4
0	9867	2474.321066942998	3
0	9871	2474.890137036661	4
0	9875	2476.138218599277	5
0	9876	2477.078250533006	4
0	9884	2478.095993311775	5
0	9887	2479.615134638536	6
0	9890	2480.429191216652	5
0	9895	2483.691336404022	4
0	9900	2486.907347618707	3
0	9906	2489.005999189677	4
0	9907	2489.182376947595	3
0	9913	2491.088975048415	4
0	9915	2492.111054550679	5
0	9919	2492.696672465732	4
0	9926	2493.101277745881	5
0	9930	2494.381575703957	6
0	9931	2494.917197519218	5
0	9939	2497.294659039792	4
0	9944	2497.481202580742	3
0	9948	2497.69167341048	4
0	9954	2498.448059365826	5
0	9955	2498.857206919483	4
0	9959	2498.955425807852	5
0	9962	2499.971423001456	4
0	9971	2502.180363953643	3
0	9976	2503.118881980293	2
0	9982	2504.225821046651	3
0	9983	2504.538706286791	2
0	9988	2505.543711973227	1
0	9995	2509.270441680675	0
0	10008	2512.118504870231	1
0	10010	2512.468815557702	2
0	10013	2513.736564696176	1
0	10018	2514.225517589409	0
0	10025	2514.388405913133	1
0	10026	2515.062980534683	0
0	10077	2520.848646439299	1
0	10079	2522.079800428964	2
0	10081	2523.128036868379	3
0	10084	2524.028768388433	2
0	10091	2526.031751807388	1
0	10098	2526.328279592944	0
0	10124	2527.874576737253	1
0	10126	2528.289360107176	2
0	10129	2531.180687096483	1
0	10135	2533.778721706444	0
0	10162	2546.279414507929	1
0	10166	2547.377482331012	2
0	10169	2548.046458108062	3
0	10174	2551.287211319935	4
0	10175	2551.576672134169	3
0	10180	2552.199624767644	2
0	10186	2552.686638076133	1
0	10191	2552.759867198363	0
0	10197	2553.798216579309	1
0	10201	2556.136458069646	0
0	10216	2560.372100398533	1
0	10220	2562.056821458771	0
0	10271	2584.452733585343	1
0	10272	2585.207966993353	0
0	10279	2586.095448500593	1
0	10282	2586.743072916594	0
0	10289	2586.82516969246	1
0	10294	2587.558757276893	0
0	10349	2605.278032487093	1
0	10351	2607.836019216824	2
0	10357	2612.004598250982	3
0	10361	2614.287151412033	4
0	10363	2615.0554434943	5
0	10364	2620.03425696111	4
0	10369	2620.147269639741	3
0	10374	2620.385257990355	2
0	10378	2620.755563932787	3
0	10382	2621.540062073079	2
0	10387	2621.757185938513	1
0	10391	2622.15005246474	2
0	10393	2622.200090609866	3
0	10395	2622.75321070025	4
0	10400	2625.377129526542	3
0	10406	2625.460136988801	4
0	10407	2625.643637002754	3
0	10415	2626.555519210935	4
0	10416	2627.409956159996	3
0	10421	2627.717756176584	2
0	10430	2629.411491023276	1
0	10434	2629.810607389762	2
0	10438	2631.364070769808	3
0	10439	2631.418264375123	2
0	10449	2633.726948008974	3
0	10450	2635.712129138193	2
0	10458	2637.448065960512	1
0	10464	2638.293414685043	2
0	10465	2638.405745965034	1
0	10471	2639.238354215094	2
0	10472	2639.785186841314	1
0	10477	2641.079342628112	0
0	10490	2643.874989963712	1
0	10491	2643.923760482	0
0	10505	2646.776994123447	1
0	10507	2647.571750558417	2
0	10513	2649.986959228407	3
0	10516	2650.775989362442	2
0	10523	2651.958498113186	1
0	10528	2652.27375795452	0
0	10540	2655.404295667568	1
0	10542	2656.123868647782	0
0	10562	2661.561777824618	1
0	10563	2661.572412909927	0
0	10578	2662.858365024411	1
0	10582	2663.777917273624	2
0	10583	2664.91511086776	1
0	10588	2665.061065558502	0
0	10637	2674.369004954695	1
0	10646	2684.953392264359	0
0	10658	2687.294747687136	1
0	10660	2688.435974824855	2
0	10661	2689.323236628467	1
0	10666	2689.453201478854	0
0	10683	2692.373099278649	1
0	10684	2693.901231641435	0
0	10690	2694.52201427758	1
0	10693	2695.826239444131	2
0	10695	2696.715573856699	1
0	10700	2697.053232738023	0
0	10708	2698.591613050286	1
0	10709	2699.439982787432	0
0	10724	2705.092940360327	1
0	10726	2705.897975838251	2
0	10728	2706.103351236967	1
0	10733	2706.288132976286	0
0	10740	2708.791375020697	1
0	10741	2709.229336559962	0
0	10753	2710.255155101577	1
0	10754	2710.784487545894	0
0	10767	2712.249189029951	1
0	10769	2713.185651128256	0
0	10779	2715.626921794485	1
0	10781	2716.211924399176	2
0	10785	2720.271447412648	1
0	10790	2720.832405302758	0
0	10809	2722.892329892767	1
0	10810	2723.058019064852	0
0	10819	2724.571838227255	1
0	10820	2725.042254596376	0
0	10826	2725.687962603898	1
0	10827	2725.803722544302	0
0	10838	2726.965109818284	1
0	10843	2727.500829781834	0
0	10872	2737.467039466448	1
0	10873	2738.46202727898	0
0	10888	2742.151211948839	1
0	10891	2742.807843567136	0
0	10897	2742.953846623839	1
0	10898	2743.524844421903	0
0	10931	2751.479130950347	1
0	10933	2753.235193531145	0
0	10939	2753.981409536052	1
0	10941	2754.59167862545	0
0	10952	2755.721908725042	1
0	10956	2759.273181721764	0
0	10963	2760.76877278839	1
0	10964	2761.991257846039	0
0	10970	2762.523352410485	1
0	10973	2763.428235908191	2
0	10974	2764.155683460057	1
0	10980	2765.63783169226	2
0	10981	2766.227488585575	1
0	10986	2767.032363509141	0
0	10992	2767.560584551528	1
0	10993	2767.997807519894	0
0	11053	2783.179681506803	1
0	11057	2784.623644988286	0
0	11069	2786.557751753729	1
0	11071	2787.373424339645	2
0	11072	2787.674940103203	1
0	11080	2789.79882125561	0
0	11101	2793.63413740001	1
0	11104	2794.088618200737	0
0	11122	2798.822751357433	1
0	11123	2799.025183273532	0
0	11152	2803.316002428335	1
0	11157	2813.820879509847	0
0	11166	2815.628040815094	1
0	11172	2818.864306605749	0
0	11181	2819.807759891873	1
0	11182	2820.998743147671	0
0	11207	2828.711378930863	1
0	11210	2830.180788898969	0
0	11223	2832.058648625021	1
0	11224	2832.264856954461	0
0	11232	2834.066031940836	1
0	11234	2835.917383542725	0
0	11259	2839.510538389939	1
0	11261	2841.460817917333	2
0	11262	2842.281867325097	1
0	11267	2842.410088351354	0
0	11300	2848.59073799774	1
0	11303	2849.831946560612	0
0	11310	2850.491211846464	1
0	11313	2850.627021718432	0
0	11320	2851.051476339493	1
0	11323	2851.347562241911	0
0	11337	2855.133702759258	1
0	11342	2856.588546944092	0
0	11354	2860.787699733184	1
0	11356	2861.490314097548	2
0	11357	2862.38925536683	1
0	11362	2863.829811688277	0
0	11375	2869.69887294934	1
0	11381	2872.300928235691	0
0	11387	2872.733464602476	1
0	11390	2873.785575739525	2
0	11394	2878.486076929304	3
0	11396	2878.762341284162	4
0	11397	2878.871750276762	3
0	11408	2880.810311044154	2
0	11414	2883.167814037416	3
0	11415	2883.338942876764	2
0	11421	2884.182747019183	1
0	11426	2884.582955719402	0
0	11458	2888.364433103781	1
0	11463	2889.535030847936	0
0	11478	2893.052507339506	1
0	11479	2894.501018096394	0
0	11498	2898.053136385302	1
0	11502	2900.457309155931	0
0	11514	2903.036166670329	1
0	11518	2905.130703910304	0
0	11524	2905.46671647074	1
0	11527	2906.061424954584	0
0	11531	2907.066025413472	1
0	11534	2907.362709010347	0
0	11538	2908.046663586788	1
0	11541	2909.348270775146	0
0	11545	2909.705236440892	1
0	11549	2910.800116302019	2
0	11551	2911.035599064195	3
0	11552	2911.895505069057	2
0	11560	2913.58575005331	1
0	11565	2913.645176315501	0
0	11584	2917.024647127469	1
0	11586	2917.055532696301	2
0	11587	2917.098007686413	1
0	11592	2917.167408414769	0
0	11596	2917.428282738386	1
0	11599	2917.83101717621	0
0	11605	2918.77000111684	1
0	11606	2919.23095970841	0
0	11610	2919.577366002906	1
0	11612	2920.231057606098	2
0	11618	2921.478196868439	3
0	11619	2922.319153345004	2
0	11625	2922.677609910684	3
0	11627	2923.708298696129	4
0	11628	2923.764259385942	3
0	11634	2924.384450615385	2
0	11640	2925.504007524298	3
0	11647	2927.713672456401	4
0	11648	2928.814300797049	3
0	11653	2929.19265202477	2
0	11660	2933.306369017524	3
0	11664	2933.943762080673	2
0	11673	2935.890275865475	1
0	11678	2936.078819612118	0
0	11684	2936.421843909884	1
0	11686	2937.466787922011	0
0	11702	2942.327922497831	1
0	11703	2943.806280004221	0
0	11730	2950.876653830255	1
0	11731	2951.632422501895	0
0	11737	2951.863814000264	1
0	11739	2952.846716346848	2
0	11742	2953.585990814137	3
0	11743	2954.428529861744	2
0	11749	2954.701710032775	1
0	11755	2955.455820205552	0
0	11761	2955.641761302189	1
0	11764	2956.085769848301	0
0	11775	2957.415634270551	1
0	11777	2957.652167314679	2
0	11780	2958.019106258691	1
0	11788	2958.766671226039	2
0	11790	2959.195476992913	3
0	11793	2960.437621653034	2
0	11799	2961.482282631841	1
0	11804	2961.516091798266	0
0	11817	2962.994558540515	1
0	11818	2963.52407729835	0
0	11828	2966.189434814916	1
0	11834	2968.542829639279	0
0	11841	2969.769862819537	1
0	11842	2970.237401217185	0
0	11859	2973.509517193762	1
0	11861	2973.998788735177	0
0	11873	2975.476390145798	1
0	11875	2975.691532296204	2
0	11879	2977.499341680288	3
0	11880	2977.826570097033	2
0	11886	2978.223314918982	3
0	11889	2979.082212336155	4
0	11891	2979.615935263526	5
0	11893	2979.843561400138	6
0	11894	2980.118832466651	5
0	11899	2980.203802108298	4
0	11904	2981.028837999194	3
0	11908	2981.135854089481	4
0	11916	2983.993036951234	5
0	11920	2984.673131330627	4
0	11926	2984.99949173457	5
0	11927	2985.105921071666	4
0	11933	2985.370029645856	3
0	11938	2985.769085965348	2
0	11942	2985.770866655928	3
0	11944	2986.65846383613	4
0	11952	2991.41251484775	5
0	11953	2992.495622973588	4
0	11958	2993.310593740374	3
0	11964	2994.372195047817	2
0	11969	2994.466937677817	1
0	11975	2995.124461442048	2
0	11977	2996.82895569489	3
0	11979	2998.430975836396	4
0	11980	2999.924689486707	3
0	11986	3001.006819405022	4
0	11988	3002.424012735249	3
0	11994	3002.456413434415	4
0	11996	3002.696517893952	3
0	12003	3004.170743727528	2
0	12008	3004.42283625749	1
0	12016	3005.034050386559	0
0	12040	3008.586276054564	1
0	12042	3009.517002487929	2
0	12044	3011.712989847162	3
0	12048	3015.285652636769	2
0	12055	3016.387857012241	1
0	12060	3016.414886627466	0
0	12066	3017.137100915261	1
0	12073	3018.517481118693	0
0	12082	3019.32629707228	1
0	12084	3020.36753444806	2
0	12088	3022.389921466513	3
0	12095	3026.129745518417	2
0	12104	3026.804811521222	3
0	12105	3026.806475250986	2
0	12111	3027.713467874753	1
0	12116	3027.813103470645	0
0	12123	3028.803417337013	1
0	12126	3029.628610876766	2
0	12127	3030.094099151186	1
0	12134	3031.763945859803	0
0	12154	3036.630372841657	1
0	12157	3037.788855115183	0
0	12176	3041.606795349555	1
0	12180	3042.806986278596	2
0	12181	3042.973199210974	1
0	12189	3044.180812897026	0
0	12200	3047.37217857276	1
0	12205	3050.739231103252	2
0	12206	3052.618941488612	1
0	12213	3052.986446131131	2
0	12216	3053.371620750993	1
0	12224	3055.436030141581	2
0	12226	3055.969995746003	3
0	12227	3056.507326115703	2
0	12232	3056.684947623364	1
0	12238	3056.87284999851	2
0	12243	3058.989371381044	3
0	12244	3059.31791948746	2
0	12250	3062.702212723582	1
0	12257	3064.523556693256	0
0	12265	3068.089331109215	1
0	12266	3068.587143017747	0
0	12288	3073.31967499164	1
0	12289	3073.838724349135	0
0	12305	3076.868419032421	1
0	12308	3077.40690451429	0
0	12318	3078.705067687662	1
0	12326	3080.904051687762	0
0	12338	3082.400420259891	1
0	12340	3083.804576192513	0
0	12349	3086.001599110049	1
0	12353	3089.256862516068	0
0	12370	3090.812349143369	1
0	12374	3097.64079983678	2
0	12378	3099.582484216419	3
0	12383	3100.451858784088	2
0	12389	3101.632040365222	1
0	12394	3101.673028633394	0
0	12414	3106.212651888257	1
0	12415	3106.270578289145	0
0	12430	3109.280580029257	1
0	12434	3110.076021253027	2
0	12439	3113.870104173735	3
0	12441	3114.237721356647	4
0	12443	3114.834503430948	3
0	12448	3114.846350236585	2
0	12453	3115.547671890103	1
0	12457	3117.775708647186	2
0	12462	3119.202375282749	1
0	12469	3120.775131340411	2
0	12471	3122.000260545064	3
0	12472	3122.2851894444	2
0	12478	3122.445728067755	3
0	12481	3122.554824028912	4
0	12482	3122.638997040256	3
0	12487	3122.972395383201	2
0	12492	3123.012331058633	1
0	12497	3124.398551221318	0
0	12501	3124.676764048809	1
0	12508	3128.136445339629	0
0	12525	3131.985971491386	1
0	12527	3132.172222859426	2
0	12531	3135.039191082551	3
0	12532	3136.551358042687	2
0	12539	3139.287779772267	1
0	12545	3139.436712208923	0
0	12564	3141.768632249816	1
0	12566	3141.836121571455	2
0	12569	3142.250191183516	1
0	12576	3143.332471930756	0
0	12582	3144.193377227507	1
0	12583	3144.700216615441	0
0	12589	3144.844151879169	1
0	12592	3146.256802881902	0
0	12603	3146.764351337974	1
0	12606	3148.134751302442	0
0	12636	3151.519132395862	1
0	12639	3153.303017087916	0
0	12649	3156.761713396322	1
0	12653	3157.503243540867	2
0	12655	3157.544794767832	3
0	12656	3157.685312192057	2
0	12665	3158.160951209584	3
0	12668	3158.568216136509	2
0	12675	3159.362679063409	1
0	12680	3159.897233761469	0
0	12698	3162.356781987615	1
0	12699	3162.411914587459	0
0	12705	3163.197049952877	1
0	12707	3163.473043316064	0
0	12714	3164.567086510751	1
0	12715	3164.582000265694	0
0	12737	3169.036565462288	1
0	12740	3170.662303453806	0
0	12758	3174.371751830159	1
0	12760	3174.439937688077	2
0	12764	3175.847553017879	3
0	12765	3175.975339332539	2
0	12771	3176.015650676298	3
0	12775	3176.392482970904	4
0	12779	3177.433354087175	5
0	12780	3177.494429141307	4
0	12785	3177.912465679056	3
0	12789	3178.483141044878	4
0	12793	3181.227076397096	5
0	12798	3183.01570683749	6
0	12799	3183.203393272492	5
0	12804	3183.515455856191	4
0	12811	3185.584175202022	3
0	12819	3186.232919776913	2
0	12824	3186.270537228995	1
0	12834	3190.352127593576	2
0	12835	3190.841328953637	1
0	12841	3191.683280441296	0
0	12861	3194.971924474221	1
0	12864	3197.19573386537	0
0	12870	3197.556158147747	1
0	12872	3198.018197357523	0
0	12878	3198.299426711205	1
0	12881	3199.217131943105	0
0	12888	3201.685175464354	1
0	12889	3202.570923553294	0
0	12901	3204.932253741062	1
0	12902	3205.331842050395	0
0	12908	3205.354989754598	1
0	12911	3206.728347722168	2
0	12913	3207.932747445973	3
0	12915	3209.363355281445	4
0	12919	3209.994140979915	5
0	12920	3210.005912199731	4
0	12926	3211.430952097453	3
0	12931	3212.611798101651	2
0	12938	3217.05380277569	1
0	12943	3217.630534719577	0
0	12950	3218.053956377707	1
0	12952	3218.244698378642	2
0	12955	3218.431832350056	3
0	12956	3219.02785083667	2
0	12962	3219.118735450632	3
0	12963	3219.569554267777	2
0	12971	3220.32377585839	3
0	12973	3222.421304202269	2
0	12979	3222.835737153287	3
0	12980	3223.6255965647	2
0	12990	3226.481301159559	3
0	12991	3226.508724942113	2
0	12999	3228.666522038801	3
0	13001	3228.97423415995	4
0	13005	3230.528697583169	5
0	13006	3231.503103682288	4
0	13012	3231.860329383183	5
0	13014	3233.602209170878	6
0	13016	3234.083050476382	7
0	13017	3234.436005523712	6
0	13022	3235.576355055234	5
0	13026	3236.508086912325	6
0	13028	3236.728685001735	7
0	13034	3237.449883139891	6
0	13039	3237.542626632398	5
0	13043	3237.919732675521	6
0	13046	3241.463479237338	5
0	13051	3242.180726593623	4
0	13056	3243.499039753523	3
0	13062	3244.922217493255	4
0	13064	3245.662720286824	3
0	13071	3246.194318032068	2
0	13076	3247.245628459203	1
0	13081	3249.888055055619	0
0	13085	3250.048148269632	1
0	13089	3250.896302311002	0
0	13130	3260.642782172852	1
0	13132	3260.806075106211	2
0	13137	3261.241384769995	3
0	13140	3264.394632388679	2
0	13146	3264.457274402862	3
0	13150	3265.631119434656	4
0	13152	3265.74572930271	5
0	13153	3265.879809425175	4
0	13159	3266.025218272075	5
0	13161	3268.555773183972	4
0	13166	3269.269992291262	3
0	13171	3269.443347750747	2
0	13179	3272.957208569052	3
0	13184	3274.592292910736	2
0	13191	3275.90888925558	1
0	13196	3276.512821186241	0
0	13200	3276.550314215808	1
0	13202	3276.555651947449	2
0	13205	3277.904521676974	1
0	13211	3280.183922683304	2
0	13212	3280.720296697526	1
0	13216	3280.906940056886	2
0	13218	3281.659301954371	3
0	13224	3282.347633932907	4
0	13226	3284.600785965144	5
0	13227	3285.077226942141	4
0	13231	3285.282618427839	5
0	13233	3286.583797197615	6
0	13240	3289.700962017533	7
0	13241	3289.928465836648	6
0	13248	3291.151580392085	7
0	13250	3292.221083968759	6
0	13256	3292.748941013263	7
0	13257	3293.985656335491	6
0	13263	3295.413523990639	5
0	13270	3296.447032453479	6
0	13274	3297.071849099308	7
0	13277	3297.562035040368	6
0	13282	3297.619684836356	5
0	13288	3298.222864392773	6
0	13289	3299.275803981099	5
0	13295	3300.208225305888	4
0	13301	3300.908596531214	5
0	13303	3303.055324124281	6
0	13304	3303.511887867301	5
0	13313	3305.783747501232	4
0	13318	3306.404677644006	3
0	13324	3306.739254751386	2
0	13329	3307.085154904178	1
0	13335	3307.227889393563	2
0	13338	3311.80794233639	1
0	13343	3312.696884178845	0
0	13356	3314.649963505723	1
0	13357	3315.145825125671	0
0	13363	3315.462070743623	1
0	13367	3317.479426432179	0
0	13381	3320.618475839535	1
0	13384	3321.362331579655	0
0	13395	3322.632020966682	1
0	13396	3323.230522002818	0
0	13416	3325.000547474794	1
0	13421	3326.454262558696	0
0	13450	3336.936090492617	1
0	13454	3338.331517028193	0
0	13466	3339.121916951357	1
0	13467	3339.82739952172	0
0	13482	3343.780865941056	1
0	13484	3345.823335789671	0
0	13496	3347.265894596318	1
0	13499	3352.720165597908	0
0	13515	3354.246100622962	1
0	13516	3355.132228313021	0
0	13534	3360.105361417261	1
0	13535	3361.707508488698	0
0	13575	3372.390480335133	1
0	13579	3375.160496804095	2
0	13580	3375.497512399546	1
0	13586	3376.888423426713	0
0	13620	3382.679347937083	1
0	13621	3383.842457455435	0
0	13649	3395.858926833294	1
0	13651	3396.154252050821	2
0	13652	3396.655814867106	1
0	13657	3396.764459723828	0
0	13666	3398.082078127476	1
0	13668	3398.310330647094	2
0	13672	3400.025406068891	1
0	13678	3400.980547218552	0
0	13684	3402.153062007934	1
0	13686	3404.125526455024	0
0	13694	3405.024264587549	1
0	13699	3406.441629173543	0
0	13739	3417.010708647482	1
0	13744	3418.561233353137	0
0	13755	3419.682705245917	1
0	13757	3420.004442308038	2
0	13758	3420.904287412679	1
0	13763	3420.971147096297	0
0	13774	3424.575130975017	1
0	13777	3429.213381494599	0
0	13792	3433.537308660764	1
0	13795	3433.972448690044	0
0	13801	3434.249776897839	1
0	13803	3434.611034697969	0
0	13816	3436.096085268359	1
0	13819	3439.982327427657	0
0	13826	3440.639494866537	1
0	13827	3440.702445435221	0
0	13855	3445.172856681262	1
0	13857	3446.779427590818	2
0	13859	3448.909238758575	3
0	13860	3449.028727717521	2
0	13865	3449.301103614124	1
0	13871	3449.686692287994	2
0	13872	3449.82634340413	1
0	13881	3452.191308509547	0
0	13927	3462.197558169623	1
0	13928	3464.67132085234	0
0	13934	3465.178955055733	1
0	13935	3465.19066206405	0
0	13942	3465.918756780141	1
0	13943	3466.190777626546	0
0	13947	3466.988007303068	1
0	13951	3469.045898455215	2
0	13952	3469.421658752536	1
0	13958	3470.000348863605	2
0	13961	3470.978407063127	1
0	13965	3472.166922697829	2
0	13969	3472.657439122024	3
0	13970	3473.12122225155	2
0	13976	3474.145964255106	1
0	13982	3474.669869371286	2
0	13983	3474.780228763397	1
0	13994	3477.227454459866	0
0	14000	3478.705933699981	1
0	14003	3482.213574723854	0
0	14009	3482.387886909249	1
0	14010	3482.409556661153	0
0	14035	3488.792882376063	1
0	14037	3489.189246118208	2
0	14038	3490.68040834427	1
0	14043	3490.902273079678	0
0	14062	3494.743250179761	1
0	14064	3496.02953195613	2
0	14071	3497.287251724107	1
0	14079	3500.412295097441	0
0	14085	3500.722047682963	1
0	14087	3501.849693660196	0
0	14095	3503.023960429588	1
0	14096	3503.253644292093	0
0	14108	3504.940845112399	1
0	14112	3505.764174129198	0
0	14127	3507.836712071744	1
0	14130	3508.780433674736	0
0	14137	3510.341512130091	1
0	14138	3510.395534171725	0
0	14149	3511.097518539457	1
0	14153	3511.892071540071	0
0	14159	3511.981309488305	1
0	14160	3512.290842489999	0
0	14174	3514.601724975008	1
0	14175	3515.209275625889	0
0	14192	3523.72662919777	1
0	14197	3526.471728908723	0
0	14214	3530.019651525634	1
0	14217	3530.148795723601	0
0	14232	3532.111590849835	1
0	14236	3533.127048519444	0
0	14267	3539.380687550993	1
0	14268	3540.00139830399	0
0	14283	3542.877127122534	1
0	14286	3545.220909600018	0
0	14382	3577.766239948287	1
0	14383	3579.694784161944	0
0	14394	3581.630859987654	1
0	14395	3582.383946671085	0
0	14408	3583.595616934163	1
0	14409	3583.845954839416	0
0	14421	3585.301014695516	1
0	14423	3585.382943464034	2
0	14424	3585.41722773881	1
0	14429	3586.150906133668	0
0	14456	3591.240264687527	1
0	14457	3591.440769951411	0
0	14494	3605.122654943379	1
0	14495	3605.252164975079	0
0	14521	3613.480373483112	1
0	14522	3614.316999589549	0
0	14528	3614.324593771805	1
0	14531	3615.186833835699	2
0	14532	3615.192544306903	1
0	14539	3616.648181865586	2
0	14540	3616.751161507665	1
0	14546	3616.776293366748	2
0	14547	3616.862546115262	1
0	14554	3617.866976896615	0
0	14560	3618.467988423343	1
0	14563	3618.738623357854	2
0	14564	3619.022447396444	1
0	14570	3619.485277740495	0
0	14576	3619.649263767047	1
0	14578	3620.337223371397	2
0	14580	3621.101257391838	1
0	14585	3622.251433686791	0
0	14661	3641.131713024183	1
0	14665	3641.812369752564	0
0	14737	3663.530070506314	1
0	14738	3663.55083999225	0
0	14749	3666.499192840112	1
0	14756	3668.675791609857	0
0	14765	3671.922830642876	1
0	14767	3672.073364329325	2
0	14771	3675.495523204267	1
0	14776	3676.239254344515	0
0	14824	3685.164121356478	1
0	14825	3685.248568193747	0
0	14864	3692.140476849718	1
0	14865	3692.798709022784	0
0	14872	3693.420824903371	1
0	14873	3693.557206585439	0
0	14879	3693.635589851619	1
0	14881	3693.832656481903	0
0	14899	3697.027064874757	1
0	14901	3698.724569772358	2
0	14904	3699.565688217459	1
0	14910	3699.926759544557	2
0	14911	3700.235739528779	1
0	14918	3701.087244030183	0
0	14952	3708.737304756788	1
0	14954	3709.33336787062	2
0	14956	3710.068915117721	3
0	14957	3710.448229522091	2
0	14963	3710.589864105825	1
0	14969	3711.30182381955	0
0	14992	3715.491209220861	1
0	14994	3716.128204787092	2
0	14998	3717.990132671383	3
0	15000	3718.462299298484	4
0	15003	3718.870048972536	5
0	15004	3719.758692135965	4
0	15011	3719.858492056657	5
0	15014	3720.206390596527	6
0	15015	3721.000834309056	5
0	15020	3721.003685230478	4
0	15025	3721.092548527814	3
0	15029	3721.211724022438	4
0	15032	3725.765640831813	3
0	15036	3726.272262274368	4
0	15039	3726.88595923945	3
0	15044	3727.676892220278	2
0	15050	3729.654259792196	1
0	15055	3730.010163627566	0
0	15078	3746.348547414679	1
0	15081	3746.505324723165	0
0	15094	3748.762164572717	1
0	15095	3749.024664288976	0
0	15119	3753.105210348146	1
0	15124	3755.489896634171	0
0	15133	3756.425138529025	1
0	15136	3757.641948215768	0
0	15177	3768.259686762554	1
0	15181	3768.713387222176	2
0	15182	3771.032895410712	1
0	15189	3772.171477177134	0
0	15200	3772.35699143837	1
0	15203	3773.168808107522	2
0	15208	3773.993592774133	3
0	15209	3774.794587989203	2
0	15215	3775.964568381186	1
0	15222	3777.634931273013	0
0	15234	3780.610316921097	1
0	15235	3780.900935385005	0
0	15242	3782.533249121994	1
0	15244	3783.525616793308	2
0	15248	3785.074106713854	3
0	15249	3785.409196547589	2
0	15258	3787.247324433593	1
0	15264	3788.454476500288	0
0	15270	3788.550394307262	1
0	15271	3788.823832132556	0
0	15283	3790.255041084245	1
0	15284	3791.236995471324	0
0	15297	3797.215731785021	1
0	15298	3797.278408813746	0
0	15305	3798.403008892467	1
0	15306	3801.327008702363	0
0	15317	3803.307729336585	1
0	15321	3803.553456619743	2
0	15324	3804.150886849453	1
0	15330	3804.693434003677	2
0	15331	3804.774923583419	1
0	15337	3804.985355813454	2
0	15339	3805.914822916845	1
0	15343	3806.332219484691	2
0	15346	3806.8304120917	1
0	15353	3808.652716273772	0
0	15366	3809.859596732009	1
0	15367	3810.605072638989	0
0	15398	3817.823452924747	1
0	15402	3819.100544062679	2
0	15403	3821.796551851036	1
0	15408	3822.480673692889	0
0	15450	3833.39171191015	1
0	15451	3833.987006761949	0
0	15481	3843.252569517862	1
0	15484	3843.616160753242	2
0	15489	3844.827065521362	3
0	15490	3845.514037008466	2
0	15495	3846.670586261942	1
0	15501	3848.096103340932	0
0	15508	3848.780490769819	1
0	15512	3849.973245134984	2
0	15514	3850.914622111436	3
0	15516	3851.16535736501	4
0	15519	3852.605945595871	3
0	15524	3852.612937621405	2
0	15530	3855.630042615881	1
0	15535	3857.058324407932	0
0	15548	3859.491866906684	1
0	15549	3859.550117632783	0
0	15560	3861.198930386332	1
0	15562	3862.268027319982	0
0	15569	3862.90609106526	1
0	15570	3864.228598532304	0
0	15589	3872.377197199677	1
0	15593	3875.725298018089	2
0	15595	3876.539994289963	3
0	15597	3876.721863200795	4
0	15600	3878.650323072	3
0	15606	3879.388086704449	4
0	15607	3880.198351704877	3
0	15612	3880.560078579016	2
0	15619	3881.508156171304	3
0	15621	3881.513516589166	4
0	15624	3882.312559680339	5
0	15625	3882.458752395346	4
0	15631	3882.641366003544	5
0	15633	3883.656420130376	4
0	15639	3884.212474659479	3
0	15645	3885.078855908915	2
0	15651	3886.11906526731	3
0	15654	3886.366588839982	4
0	15655	3887.728893726704	3
0	15663	3890.413696112707	4
0	15664	3891.164369306584	3
0	15669	3892.026421774782	2
0	15674	3893.059148091228	1
0	15678	3893.107088745793	2
0	15683	3894.566101262228	1
0	15689	3895.297704573567	2
0	15692	3896.143042948557	1
0	15698	3897.134971807091	2
0	15699	3897.942638133516	1
0	15706	3899.387154464489	0
0	15735	3905.397611818529	1
0	15736	3905.467862582033	0
0	15742	3905.538572953664	1
0	15744	3906.131631878186	0
0	15750	3906.177581457907	1
0	15752	3906.32104030877	2
0	15755	3906.59192738398	3
0	15756	3909.115546225265	2
0	15761	3909.464662031994	1
0	15766	3909.510719674645	0
0	15785	3913.765417391909	1
0	15788	3914.661772804821	2
0	15791	3916.352205381657	1
0	15796	3916.858117994641	0
0	15825	3925.536644257839	1
0	15826	3925.771784158529	0
0	15849	3928.94488198671	1
0	15851	3929.130778451542	2
0	15852	3929.654585720656	1
0	15858	3930.930455018182	2
0	15859	3931.307832145939	1
0	15866	3931.635405479433	2
0	15868	3932.174527192362	1
0	15876	3935.296328493528	0
0	15897	3936.995805287461	1
0	15899	3937.319020918553	2
0	15902	3937.814253135916	1
0	15907	3937.89240271766	0
0	15913	3937.921696312262	1
0	15918	3938.709304096165	0
0	15922	3939.476974504095	1
0	15925	3940.049223586597	0
0	15943	3946.701713549717	1
0	15946	3948.079375893805	2
0	15947	3948.881655589781	1
0	15953	3949.18228188341	2
0	15954	3950.062734113839	1
0	15960	3950.636745244321	2
0	15963	3952.248530552526	1
0	15968	3953.044230129143	0
0	15981	3956.881191749069	1
0	15983	3956.968663239097	2
0	15985	3957.54383269595	1
0	15990	3957.670670823045	0
0	16073	3976.37963055425	1
0	16074	3976.570426622158	0
0	16102	3988.601893872093	1
0	16109	3989.616771867517	2
0	16117	3991.803059310303	3
0	16118	3992.283079142566	2
0	16124	3992.342609844109	3
0	16126	3992.655749497092	2
0	16132	3992.804381377482	3
0	16133	3992.831926987827	2
0	16138	3994.830474913126	1
0	16145	3996.956514962884	0
0	16162	4000.490343433552	1
0	16163	4001.630924082154	0
0	16175	4005.752387879646	1
0	16177	4006.586421346129	2
0	16178	4008.239795622729	1
0	16184	4008.529203717665	0
0	16193	4009.864652135277	1
0	16195	4010.262559764187	2
0	16201	4012.475662761735	1
0	16206	4013.22697331684	0
0	16221	4014.859278996453	1
0	16225	4015.231681509586	2
0	16227	4015.544388963441	3
0	16229	4015.572381321234	4
0	16232	4017.281910193675	3
0	16237	4017.28366615342	2
0	16245	4021.612507512047	1
0	16250	4023.472177816502	0
0	16275	4030.585318941034	1
0	16276	4031.164793711548	0
0	16372	4058.841058077074	1
0	16374	4059.396189612521	2
0	16375	4060.45460220254	1
0	16381	4061.110862472958	2
0	16384	4062.368782550658	1
0	16393	4066.123421634213	0
0	16406	4066.882470702584	1
0	16408	4068.093317210613	2
0	16409	4068.387420304512	1
0	16418	4072.144350809577	0
0	16430	4073.306719238638	1
0	16431	4074.067579097677	0
0	16444	4076.725229431173	1
0	16447	4079.82951812438	0
0	16461	4082.053997731752	1
0	16463	4082.544609847434	2
0	16467	4083.38347305254	1
0	16474	4084.674867910001	0
0	16503	4088.264802349703	1
0	16504	4089.208910906265	0
0	16511	4089.755060247822	1
0	16512	4089.90408085287	0
0	16544	4101.923012309364	1
0	16545	4103.019460134935	0
0	16581	4110.591548894773	1
0	16582	4111.030573862565	0
0	16634	4124.024570202356	1
0	16636	4126.865679475281	0
0	16645	4127.536242031925	1
0	16647	4128.320388034077	0
0	16661	4128.996097916822	1
0	16662	4129.489464945046	0
0	16678	4131.524811410365	1
0	16682	4132.803951341509	0
0	16686	4133.468158625936	1
0	16689	4134.829751420992	0
0	16693	4135.292896471161	1
0	16696	4135.969650797721	0
0	16702	4136.903303672383	1
0	16705	4137.890051782117	0
0	16709	4138.818983139595	1
0	16715	4143.145593809521	0
0	16723	4145.815664865868	1
0	16727	4148.915896759497	2
0	16728	4149.077789573222	1
0	16733	4149.352611305145	0
0	16741	4151.689014664004	1
0	16743	4151.695891975731	2
0	16744	4153.197910154417	1
0	16751	4154.230943466238	2
0	16752	4154.515453904783	1
0	16762	4156.903331123667	0
0	16782	4162.584458462545	1
0	16784	4163.861350835751	2
0	16785	4164.924044155917	1
0	16792	4165.664087446509	0
0	16809	4169.767008425057	1
0	16811	4170.241226162934	2
0	16812	4171.544993975779	1
0	16818	4172.060246479449	2
0	16821	4173.470076364654	1
0	16826	4175.475488043329	0
0	16832	4176.34760688738	1
0	16834	4177.312774645435	2
0	16839	4178.452807243356	1
0	16845	4179.000977212621	2
0	16846	4179.124417686649	1
0	16853	4179.849549197053	0
0	16878	4186.222269934412	1
0	16882	4186.902352561613	2
0	16883	4187.630573871731	1
0	16890	4189.247952464611	0
0	16901	4192.601041757034	1
0	16903	4193.257033677265	2
0	16908	4193.68666125655	3
0	16912	4198.964261175348	2
0	16917	4199.696152425683	1
0	16924	4201.677522982394	2
0	16925	4201.780325206778	1
0	16931	4201.872577857415	2
0	16933	4202.314099227329	3
0	16934	4202.502448847586	2
0	16941	4204.175435990806	1
0	16948	4206.951577756221	0
0	16954	4207.827471407216	1
0	16956	4208.025815497365	0
0	16971	4208.740503790283	1
0	16972	4209.932077896514	0
0	16998	4215.085617329391	1
0	17003	4217.032235051713	0
0	17009	4217.080663061651	1
0	17010	4218.01874984944	0
0	17022	4220.162864452291	1
0	17023	4220.411002830162	0
0	17032	4223.974118652843	1
0	17034	4224.113188698982	2
0	17040	4227.924026949876	3
0	17041	4228.133669857477	2
0	17051	4231.515703509185	1
0	17055	4233.034224544767	2
0	17057	4233.243457060469	3
0	17060	4233.583158047423	2
0	17064	4234.472632006848	3
0	17066	4237.742027799699	4
0	17070	4238.050862690629	5
0	17073	4239.554475668087	4
0	17077	4240.01052959234	5
0	17081	4242.367495485405	6
0	17083	4242.574570142248	7
0	17087	4245.244462047404	8
0	17095	4248.275551031806	9
0	17099	4250.139378808608	8
0	17105	4251.060287751095	7
0	17111	4251.145978360575	8
0	17112	4251.426782031018	7
0	17117	4252.885486531198	6
0	17121	4253.721118999437	7
0	17123	4256.130806340912	8
0	17126	4257.460216184642	7
0	17133	4258.568579064291	8
0	17135	4258.645915539907	9
0	17137	4258.652785338224	10
0	17142	4260.871701136634	9
0	17147	4261.080699040678	8
0	17154	4261.841724114054	9
0	17157	4262.444052344244	8
0	17162	4262.904152673619	7
0	17166	4263.670714515666	8
0	17172	4266.56551673736	7
0	17179	4268.193708678137	6
0	17186	4268.29908264383	5
0	17191	4268.303000902203	4
0	17199	4270.378730201532	3
0	17204	4271.851645281936	2
0	17209	4272.727672069051	1
0	17216	4274.706661550663	2
0	17218	4275.668300641772	3
0	17219	4276.03269523878	2
0	17224	4276.225498516312	1
0	17229	4277.414167453534	0
0	17265	4288.589365807833	1
0	17267	4289.47555334901	2
0	17269	4290.082204470365	3
0	17273	4291.630659255027	4
0	17275	4291.634950861804	5
0	17276	4292.242743155953	4
0	17281	4292.257030851238	3
0	17286	4292.45712536164	2
0	17292	4292.837179484341	1
0	17297	4293.090505617346	0
0	17320	4297.005516303295	1
0	17324	4297.858385750215	2
0	17325	4298.079967635247	1
0	17332	4298.739185879124	2
0	17333	4298.925111919569	1
0	17339	4299.984065163906	0
0	17357	4305.005259152955	1
0	17359	4305.39298335996	0
0	17365	4305.757095228564	1
0	17367	4306.067831309111	0
0	17387	4312.099631495933	1
0	17395	4315.845630237004	2
0	17396	4316.420604678903	1
0	17404	4316.859747571	0
0	17414	4319.194841010688	1
0	17417	4319.590489868015	0
0	17423	4319.834874527472	1
0	17427	4321.648796012749	0
0	17442	4323.680697131859	1
0	17445	4324.396999318523	0
0	17451	4324.464957115587	1
0	17452	4325.805817878987	0
0	17472	4329.266459752701	1
0	17473	4329.619811552388	0
0	17480	4331.378130729773	1
0	17481	4331.829192908984	0
0	17496	4335.771270717421	1
0	17499	4335.94531313382	0
0	17518	4338.769953404693	1
0	17519	4339.596655732678	0
0	17530	4341.535968165415	1
0	17531	4341.727830374332	0
0	17554	4346.071432891828	1
0	17555	4346.639732041307	0
0	17584	4350.109063490462	1
0	17588	4350.935217662556	2
0	17589	4351.065077409478	1
0	17596	4352.992127555965	2
0	17597	4353.053386682557	1
0	17603	4353.325824127442	2
0	17605	4353.42733439615	3
0	17608	4355.16424639506	2
0	17614	4355.57426183543	3
0	17617	4356.236093511666	4
0	17619	4356.582273114415	3
0	17626	4359.148363880152	4
0	17627	4359.491933221685	3
0	17632	4360.344683179617	2
0	17642	4361.611867456274	3
0	17644	4363.43933045199	2
0	17649	4364.814959616653	1
0	17655	4365.672876829055	2
0	17659	4367.178010802708	1
0	17664	4367.199136106263	0
0	17668	4369.145727132273	1
0	17672	4369.350862994521	0
0	17679	4370.312890600606	1
0	17682	4372.013667044729	0
0	17707	4376.238992452783	1
0	17709	4376.513469127082	2
0	17710	4377.086742299913	1
0	17715	4377.174058430852	0
0	17735	4380.487254245781	1
0	17738	4381.217205816776	0
0	17746	4384.132910309926	1
0	17748	4384.587931480743	2
0	17750	4384.960007579481	3
0	17754	4386.582122358655	4
0	17758	4389.542855351043	5
0	17760	4390.103465545661	6
0	17761	4390.530811609714	5
0	17765	4391.813978235114	6
0	17767	4393.158315930979	7
0	17769	4393.345602309069	8
0	17773	4394.080027608924	7
0	17779	4395.786547012386	6
0	17783	4397.134186343188	7
0	17786	4399.170493971887	6
0	17791	4399.760434609076	5
0	17801	4400.889241312436	4
0	17806	4401.193210582424	3
0	17811	4402.262079138968	2
0	17815	4402.577387689683	3
0	17818	4403.232918643561	2
0	17822	4403.896623992273	3
0	17824	4405.882464863283	4
0	17829	4406.948509829726	3
0	17836	4407.224692971921	4
0	17837	4407.695944467827	3
0	17842	4408.064065897084	2
0	17851	4410.414392805554	3
0	17853	4411.948991856901	2
0	17858	4412.523051659919	1
0	17863	4412.550007610411	0
0	17874	4413.812322439924	1
0	17878	4417.371246157901	0
0	17888	4420.28068470738	1
0	17889	4420.820921878148	0
0	17921	4424.156162692798	1
0	17926	4426.790074081289	2
0	17928	4427.129195593492	3
0	17929	4427.288974907744	2
0	17938	4429.239376062822	1
0	17944	4430.804579314966	0
0	17957	4431.804616975991	1
0	17959	4432.098824309569	2
0	17961	4432.117574926683	3
0	17964	4433.851406521615	4
0	17965	4434.287594448662	3
0	17971	4435.274320008809	2
0	17978	4436.396072223814	3
0	17979	4436.787600706661	2
0	17985	4437.51604169414	3
0	17989	4438.33633567681	4
0	17991	4439.76653500935	5
0	17994	4440.134844029494	4
0	17999	4440.99229649238	3
0	18008	4441.586198892943	4
0	18010	4441.698603537405	3
0	18015	4443.151744950848	2
0	18020	4444.124923167579	1
0	18027	4446.581350307272	0
0	18033	4447.018163597247	1
0	18035	4447.235486046414	2
0	18037	4449.266119107892	1
0	18042	4449.450315454341	0
0	18054	4453.034962471416	1
0	18056	4453.334505613999	2
0	18057	4453.343393284336	1
0	18061	4453.951103658947	2
0	18063	4454.117826403041	3
0	18065	4454.340188028417	4
0	18069	4457.150031644433	5
0	18070	4457.251926581305	4
0	18076	4460.462665232759	5
0	18078	4460.770901418965	6
0	18080	4462.981044979984	5
0	18085	4463.146125179395	4
0	18090	4464.57766927158	3
0	18096	4467.383813895494	2
0	18101	4467.474835232939	1
0	18109	4468.972790218941	0
0	18137	4476.474749942582	1
0	18139	4478.191033125057	2
0	18140	4478.975099860755	1
0	18145	4479.429105344017	0
0	18152	4480.493764609704	1
0	18154	4480.513071514588	2
0	18155	4481.011707388783	1
0	18161	4482.074730237827	0
0	18175	4483.406623465693	1
0	18183	4485.462013928441	2
0	18184	4485.621929651249	1
0	18189	4485.633862584427	0
0	18214	4487.398613168342	1
0	18222	4488.786721355412	0
0	18242	4491.140371609474	1
0	18244	4491.274517965896	2
0	18247	4493.586536694565	1
0	18253	4493.645792598797	2
0	18258	4497.656997850632	1
0	18265	4498.915257730656	2
0	18266	4499.162061788243	1
0	18273	4499.783460707303	2
0	18275	4500.539466405991	1
0	18280	4500.604849309674	0
0	18301	4502.502074534973	1
0	18302	4502.608479088602	0
0	18314	4504.693187189719	1
0	18317	4505.886593038801	0
0	18323	4505.896586289574	1
0	18327	4507.460504779115	2
0	18328	4507.51199544869	1
0	18333	4508.614716645685	0
0	18337	4509.21101601284	1
0	18339	4509.981722409998	2
0	18345	4513.274554763498	1
0	18352	4515.316075041253	0
0	18358	4515.458619654424	1
0	18359	4515.839892470198	0
0	18365	4516.514239242266	1
0	18366	4516.525877483767	0
0	18372	4518.989711427685	1
0	18373	4519.013512111621	0
0	18377	4520.609424054754	1
0	18379	4520.640274936934	2
0	18381	4521.319731967585	3
0	18384	4522.707147473113	2
0	18389	4523.340534285409	1
0	18393	4524.336422256686	2
0	18399	4527.039961887027	1
0	18406	4528.010664364901	2
0	18407	4529.171826901781	1
0	18413	4529.197185304166	2
0	18415	4529.635586650706	1
0	18420	4529.827954626123	0
0	18424	4530.719470196792	1
0	18428	4531.999074755542	2
0	18429	4532.571946597022	1
0	18435	4533.376462085128	2
0	18438	4534.069867590737	1
0	18444	4534.801015016436	0
0	18462	4538.233595477424	1
0	18464	4538.635310157773	2
0	18468	4539.90144879763	3
0	18469	4540.141584824702	2
0	18474	4540.18634124063	1
0	18479	4540.213094194723	0
0	18485	4540.819633244732	1
0	18486	4541.423920925294	0
0	18499	4543.655334086582	1
0	18500	4544.025693788209	0
0	18513	4546.722383644088	1
0	18514	4546.734983478828	0
0	18530	4550.595927506773	1
0	18531	4551.578914891647	0
0	18540	4552.524366213205	1
0	18542	4552.857051538395	2
0	18548	4555.228352597432	3
0	18552	4555.824260144758	4
0	18554	4556.360473974646	3
0	18559	4556.982236371769	2
0	18569	4560.070241141812	3
0	18571	4560.892591881185	4
0	18572	4562.148765303317	3
0	18578	4562.283566628305	4
0	18582	4564.131554761018	3
0	18587	4564.405546102214	2
0	18592	4564.477042616741	1
0	18599	4567.062217795972	2
0	18603	4568.593986975885	1
0	18608	4568.712140966502	0
0	18622	4573.438934112866	1
0	18626	4575.073226638453	2
0	18633	4576.125735160948	3
0	18635	4576.641519985463	2
0	18644	4577.093756828182	1
0	18650	4577.968291583875	0
0	18658	4579.563608208193	1
0	18659	4579.714733269605	0
0	18667	4581.38520747784	1
0	18670	4582.715009217443	0
0	18676	4583.357184568638	1
0	18678	4583.988105199936	2
0	18679	4584.876620699338	1
0	18685	4585.834063941052	2
0	18686	4586.137082317787	1
0	18690	4586.215556571414	2
0	18692	4586.959322844464	3
0	18695	4589.730977956862	2
0	18699	4589.97656225189	3
0	18703	4593.221551987948	2
0	18708	4593.234709040972	1
0	18713	4594.866375527448	0
0	18717	4595.231034926953	1
0	18719	4595.520578719189	2
0	18721	4595.598112496919	3
0	18724	4596.709044087876	2
0	18730	4597.42635951953	1
0	18735	4597.658996288625	0
0	18756	4602.37637124094	1
0	18758	4603.082662669811	2
0	18760	4605.839396730052	3
0	18764	4607.659146024849	4
0	18766	4608.190046137401	5
0	18769	4609.409214751372	6
0	18771	4610.749252819587	5
0	18776	4611.06000439989	4
0	18783	4611.814459069431	5
0	18785	4614.180840652255	4
0	18791	4614.682217588832	5
0	18793	4615.506839930373	4
0	18798	4615.715905972515	3
0	18805	4616.924905188124	2
0	18812	4617.378463806542	1
0	18817	4617.399891104766	0
0	18838	4624.4789699929	1
0	18840	4624.505861008391	2
0	18841	4624.886718337558	1
0	18849	4625.370706397697	2
0	18852	4626.978285782549	1
0	18860	4630.983329877605	0
0	18866	4631.325922916382	1
0	18867	4632.07389764756	0
0	18880	4633.332305325579	1
0	18881	4633.510710092732	0
0	18888	4634.327822793783	1
0	18890	4634.570581628463	2
0	18891	4634.964974194628	1
0	18898	4635.55527069464	0
0	18964	4647.024371402918	1
0	18967	4648.709546729466	0
0	18976	4650.199017880292	1
0	18980	4650.929952509262	0
0	18994	4652.638491505137	1
0	18995	4653.12432340829	0
0	19026	4659.212038195762	1
0	19029	4659.684598536587	0
0	19038	4661.025646355104	1
0	19043	4661.987596543585	2
0	19044	4662.233603197673	1
0	19050	4663.231899368536	0
0	19057	4663.937173376892	1
0	19060	4664.330925728269	0
0	19071	4664.970610266968	1
0	19075	4665.547985633417	0
0	19096	4670.566244875779	1
0	19099	4672.198347724782	0
0	19111	4676.907783341161	1
0	19115	4677.862742046724	2
0	19120	4679.255116374832	1
0	19125	4679.506801518869	0
0	19131	4680.286665169227	1
0	19132	4680.643121037132	0
0	19136	4681.9942582363	1
0	19141	4682.245527251499	2
0	19143	4682.922646411412	3
0	19145	4684.136928896777	4
0	19150	4686.554147090813	5
0	19151	4686.746909956186	4
0	19156	4687.137992502756	3
0	19162	4687.692788121854	2
0	19168	4689.638222284567	1
0	19175	4690.510180212393	2
0	19176	4690.515830718898	1
0	19182	4690.936510882267	0
0	19231	4706.569443892371	1
0	19234	4708.209182598299	0
0	19240	4710.201832020111	1
0	19243	4711.15038988709	2
0	19244	4711.533384215406	1
0	19250	4713.988433767057	0
0	19261	4714.524843918539	1
0	19263	4715.662895277872	2
0	19266	4716.562090039384	3
0	19267	4717.163299152312	2
0	19272	4717.573623329325	1
0	19277	4719.355703529736	0
0	19289	4723.465432417396	1
0	19290	4723.887448021709	0
0	19304	4724.951658089644	1
0	19308	4725.427382015473	2
0	19310	4726.518307098371	1
0	19315	4726.998893297288	0
0	19319	4727.25480299676	1
0	19323	4728.397618406546	2
0	19331	4730.504325559243	3
0	19333	4731.516801638921	2
0	19340	4733.095092721878	1
0	19345	4733.534064512342	0
0	19354	4737.346913821527	1
0	19355	4737.424795277675	0
0	19388	4743.684474092017	1
0	19390	4743.819064631299	2
0	19394	4744.381317448913	3
0	19396	4745.915624716171	4
0	19397	4746.289292569156	3
0	19407	4748.073451404388	4
0	19409	4748.957402745686	3
0	19414	4749.497061965545	2
0	19419	4749.778272610355	1
0	19424	4750.070865004484	0
0	19430	4751.852068446104	1
0	19433	4754.118505871366	0
0	19442	4756.280193910325	1
0	19443	4756.798464820735	0
0	19454	4757.154710652193	1
0	19459	4760.827249251633	2
0	19464	4763.112287481381	1
0	19471	4764.034885726743	0
0	19501	4772.377776490957	1
0	19505	4773.394184533029	2
0	19506	4774.022438433743	1
0	19512	4774.483003838451	0
0	19535	4776.975258587358	1
0	19538	4779.065126697974	0
0	19550	4784.576519705839	1
0	19554	4785.746377347991	2
0	19555	4786.095247147825	1
0	19563	4787.363934193833	2
0	19564	4788.091556135299	1
0	19569	4789.810316833484	0
0	19573	4790.08621099332	1
0	19576	4791.55209999015	0
0	19606	4797.941214025987	1
0	19609	4799.184923004747	0
0	19621	4801.150406098583	1
0	19623	4802.686942561847	2
0	19624	4803.021692222086	1
0	19629	4803.21469120732	0
0	19664	4810.580996727433	1
0	19666	4810.848552030404	2
0	19669	4811.610717172447	1
0	19677	4811.963908553287	0
0	19690	4815.481087617399	1
0	19692	4816.553587500594	2
0	19696	4817.574033960728	3
0	19697	4819.505281332266	2
0	19702	4819.84476224102	1
0	19708	4820.282316037671	0
0	19712	4822.38794710111	1
0	19715	4823.311964737986	0
0	19729	4826.575204294195	1
0	19732	4828.78038210124	0
0	19741	4829.549491841179	1
0	19745	4831.133712763594	2
0	19748	4833.420216026887	1
0	19754	4834.074288567391	0
0	19764	4835.199362885853	1
0	19766	4835.357837330523	2
0	19771	4840.900577277362	1
0	19776	4841.455476289647	0
0	19783	4843.235731290517	1
0	19785	4845.672853675419	0
0	19797	4846.634965978092	1
0	19800	4848.438694827434	0
0	19806	4848.461140903878	1
0	19808	4848.52995393741	2
0	19810	4849.632338006366	3
0	19814	4851.149048021982	4
0	19815	4851.45556323504	3
0	19822	4851.865655250698	4
0	19824	4851.952836878766	5
0	19826	4852.64872281385	6
0	19828	4854.072173723497	5
0	19835	4854.526101905129	4
0	19840	4854.759757095753	3
0	19846	4855.881651973747	2
0	19852	4856.115636608552	3
0	19854	4856.337488313632	2
0	19859	4856.340067423048	1
0	19864	4857.781270615082	0
0	19868	4858.845234120305	1
0	19870	4859.350061789773	2
0	19877	4861.626059631036	1
0	19883	4862.26140310323	2
0	19885	4862.359611910959	3
0	19886	4862.400816097285	2
0	19891	4862.497695640732	1
0	19895	4862.570448583994	2
0	19897	4862.78459194371	3
0	19900	4863.88712459336	2
0	19906	4865.128690581589	3
0	19907	4865.505644099175	2
0	19911	4867.046985053513	3
0	19916	4872.690368443819	2
0	19923	4873.940421768621	1
0	19928	4875.172863416051	0
0	19960	4883.257634683291	1
0	19963	4885.511450275841	0
0	19975	4887.717487869004	1
0	19979	4888.485896125112	2
0	19981	4888.846866874422	3
0	19982	4889.014710861451	2
0	19991	4892.05709675786	3
0	19992	4892.247817486338	2
0	19998	4893.773637817322	1
0	20002	4894.008955194046	2
0	20004	4894.085980527208	3
0	20009	4897.153553450317	2
0	20015	4897.567615088084	1
0	20021	4899.785322982612	0
0	20034	4900.924268249649	1
0	20037	4902.089059879015	0
0	20053	4904.133593449552	1
0	20054	4904.249884829399	0
0	20060	4904.423478542698	1
0	20061	4904.815930815834	0
0	20072	4907.525333700964	1
0	20078	4908.811464202821	2
0	20080	4909.893406073553	3
0	20081	4910.069535344266	2
0	20086	4910.850234672785	1
0	20093	4911.76926703957	2
0	20094	4912.138627062268	1
0	20102	4914.419017100361	2
0	20104	4914.613995572001	3
0	20105	4917.54188360579	2
0	20111	4919.392842142568	3
0	20114	4921.333759236205	2
0	20118	4921.511705640902	3
0	20123	4926.125416744431	2
0	20128	4926.560932846695	1
0	20136	4928.09945748091	2
0	20137	4928.163945375114	1
0	20141	4929.364288275478	2
0	20143	4931.217763570085	3
0	20148	4932.733046498225	2
0	20154	4934.574963363427	1
0	20162	4935.110081378678	0
0	20187	4939.081976347508	1
0	20190	4939.963283200217	0
0	20208	4942.815347741024	1
0	20210	4942.939440889578	2
0	20213	4944.754984240637	1
0	20219	4945.405108372931	0
0	20251	4948.686943798008	1
0	20254	4949.055494877654	2
0	20257	4949.710795732852	1
0	20262	4950.57642231847	0
0	20276	4952.566938033115	1
[...]
4	113859	27659.047926515202	37.59333543835
4	113865	27660.380405692404	29.689458910434
4	113870	27663.16781670406	30.765779757471
4	113881	27664.757552894038	31.226151118604
4	113906	27668.706560342581	34.513310140682
4	113926	27672.626934151288	37.164336619046
4	113945	27678.247715348026	32.1627812113
4	113956	27681.418983513975	26.986689456849
4	113961	27681.536321217121	12.664023598859
4	113966	27681.83118171658	11.6736312163
4	113978	27685.118287979523	13.759548611155
4	114107	27710.192031207166	35.840152572014
4	114112	27710.920467066768	33.620294471995
4	114129	27716.658656670526	32.259078939901
4	114160	27722.309415964921	35.567949513466
4	114165	27722.322689356821	32.242696555273
4	114187	27734.410129596347	42.581958573978
4	114234	27741.882518978452	41.672027903411
4	114242	27748.490072077944	42.166641606474
4	114256	27752.72483838319	39.876186113176
4	114269	27754.895213904955	38.927352015963
4	114277	27757.907836294709	36.391850838236
4	114288	27759.857243370835	35.158174970779
4	114293	27759.864379567063	21.189749971981
4	114301	27764.6015148043	11.728232290547
4	114310	27767.729584677816	7.139795047929
4	114340	27778.034295594724	5.678937591715
4	114376	27789.855412204782	12.137597427596
4	114383	27792.610244095878	0.418426929062
4	114430	27807.916759765338	10.493585565597
4	114447	27809.830343862252	11.961866921917
4	114477	27813.843444493809	13.939577158098
4	114482	27813.970099359025	11.708076313417
4	114495	27820.531669807319	12.568591354915
4	114527	27828.075793284204	19.928783401864
4	114536	27832.453311643041	23.570581710416
4	114552	27836.72616658863	26.798227266059
4	114596	27846.584574795739	36.641297449976
4	114607	27852.1634548645	38.950497032722
4	114617	27856.171172392135	29.998678310604
4	114630	27859.048327525678	29.193995486084
4	114677	27869.611686289668	35.867792511256
4	114682	27869.947443926243	28.516325679829
4	114688	27871.010752117614	27.390098066042
4	114693	27874.011884546713	29.905706921481
4	114704	27877.41748792193	26.150084916393
4	114720	27879.68520337405	28.094498228444
4	114750	27889.164757017628	36.115623960941
4	114840	27902.535139072871	41.976634629596
4	114850	27903.46139477787	36.865868313941
4	114864	27904.912218716049	35.475082161352
4	114869	27906.097870620756	31.936263015394
4	114876	27906.713835943282	29.788128000993
4	114883	27910.529787409034	32.501458966321
4	114910	27913.73671378885	34.498663381906
4	114917	27914.3120734803	34.306277968336
4	114931	27918.152147248272	36.074081641025
4	114947	27919.373307422786	36.759626223002
4	114958	27921.343786271087	32.058442784259
4	114966	27922.450577016865	23.232934690593
4	114981	27926.649544203999	23.699668717129
4	114987	27927.186957374315	23.404164385636
4	114992	27927.485343809536	20.855688570516
4	115000	27929.724993923927	14.740650678095
4	115024	27934.560385204113	14.277930522728
4	115065	27939.884640834355	19.222759893134
4	115072	27940.770125265944	19.812778011223
4	115118	27950.768221821014	25.742285392226
4	115138	27956.989391236634	30.925285023758
4	115143	27957.439149592228	26.758352224692
4	115148	27959.492678682447	25.367290013985
4	115153	27960.982651452359	26.654720465066
4	115160	27961.457952264274	25.196483571919
4	115175	27968.46162439288	7.373940325654
4	115198	27972.320784587729	10.390367241453
4	115207	27976.393284304774	11.297992559938
4	115218	27977.189706735633	8.652843223109
4	115225	27979.888796247348	2.455605857609
4	115232	27982.179892488531	0.480025254555
4	115242	27998.067574046765	2.272987627151
4	115277	28003.357031651967	4.939788826646
4	115284	28004.646284434989	5.980180145976
4	115305	28006.660053322903	6.966794477267
4	115313	28008.522291641713	8.281169445123
4	115422	28034.811127339281	24.217348709589
4	115469	28041.904145201538	24.274429966117
4	115474	28042.110529565303	19.155990515268
4	115478	28042.840748315992	5.594727312484
4	115568	28064.672789769811	18.989291315523
4	115577	28065.706706733524	19.803027689576
4	115611	28073.083999722417	23.880005491987
4	115616	28074.73809833513	24.428790461777
4	115625	28077.965365660918	24.49231973753
4	115632	28080.018503318195	20.397189054756
4	115637	28082.304190791631	19.915171263305
4	115644	28085.581638690054	18.919046512493
4	115681	28099.070287981125	32.273395040411
4	115751	28114.04014781076	39.199916733577
4	115770	28119.459694146495	42.11032179127
4	115775	28119.763134937551	30.20255654158
4	115792	28127.057076135701	36.131241268139
4	115910	28152.981805185125	61.764424101561
4	115916	28155.62231166396	58.028314125271
4	115923	28157.449887272762	50.621387529758
4	115941	28158.575319920092	31.788425555506
4	115950	28158.993141025295	22.41006738484
4	115969	28165.557983701522	19.132557861508
4	115984	28168.554116519861	9.744599682454
4	116032	28180.57181209181	18.943286967122
4	116043	28181.452703813844	18.535328729667
4	116049	28182.674855587185	18.869800417293
4	116056	28185.417639631787	11.03234786951
4	116067	28188.99826444012	12.79531535213
4	116151	28207.983764492624	24.274593738709
4	116156	28208.240369862625	19.579496022214
4	116164	28213.020936885183	20.269045154118
4	116175	28214.793481739477	18.271048421834
4	116184	28217.790794147878	20.364328845407
4	116195	28222.007047388176	22.792359982327
4	116299	28243.611326078154	27.318953747115
4	116312	28246.544620111034	22.117068187273
4	116334	28255.776193155391	21.174582603634
4	116378	28263.947748357085	26.479679685264
4	116397	28268.240027025038	14.877420637315
4	116409	28269.719343444403	11.351407446449
4	116413	28270.5693954278	2.207656743187
4	116457	28278.581158166539	3.408377125771
4	116472	28280.582480781971	1.747606024609
4	116484	28283.139294097303	2.773389559651
4	116495	28286.327796090181	5.36412221506
4	116504	28288.036185375103	6.575073021685
4	116524	28292.746792857879	1.410605265596
4	116546	28295.647849644952	0.547047445443
4	116560	28298.818977831595	2.184760741797
4	116593	28302.980606432598	1.473996684806
4	116632	28314.519851458621	1.620814588612
4	116638	28315.880323643231	2.366819377383
4	116642	28316.965101045838	2.517228728446
4	116745	28346.903395600397	12.540146083011
4	116752	28348.43108487372	8.607610113967
4	116776	28355.485114645077	15.120891758555
4	116781	28356.527362090573	10.858944733001
4	116785	28356.75872308692	5.545759141235
4	116795	28363.064939248361	0.659791841764
4	116802	28369.634211572424	0.951104563083
4	116809	28371.641656595203	0.246563182693
4	116819	28377.341358868243	3.42284794827
4	116840	28381.97905325998	0.198049968116
4	116855	28389.826203582548	3.500260042287
4	116967	28408.614661756994	18.173239723498
4	116972	28409.194415652421	17.046719334573
4	116984	28412.859469574996	20.162536402684
4	117003	28416.867817425321	22.934454752406
4	117010	28417.010114290518	14.963032820393
4	117015	28419.706889081709	16.240415584702
4	117023	28421.188417577904	16.274291127336
4	117038	28425.662597010861	15.832532523764
4	117045	28427.786986019643	16.51129444372
4	117061	28431.641933690219	14.733478413734
4	117109	28439.697630351494	17.817507916717
4	117113	28440.790462364668	5.632137976873
4	117145	28452.661699064287	0.455260186444
4	117186	28463.585077063117	4.009128958498
4	117220	28466.583974392551	1.865512453955
4	117225	28466.826193579569	1.182540929669
4	117230	28467.590881970367	1.26159528331
4	117246	28475.007876467953	0.297472046336
4	117274	28479.241991886042	0.607545997063
4	117310	28485.311749196532	0.651834007842
4	117319	28487.215605017835	1.315388699334
4	117336	28490.555469548353	0.33618107483
4	117360	28496.664110493074	2.026692121517
4	117372	28505.615017861551	1.027650095892
4	117453	28530.339197185395	18.581931373541
4	117464	28533.355418114084	11.183610851366
4	117469	28536.567047643452	10.021872846231
4	117491	28546.069330602026	4.733868066797
4	117644	28588.353838081458	43.668984783803
4	117649	28588.660597506405	43.563991993926
4	117660	28592.307256912697	38.434895652245
4	117683	28594.243802091044	35.605639563168
4	117688	28596.095074936504	33.079627267247
4	117695	28598.358424576846	32.407430934547
4	117712	28602.463257311626	33.84300762081
4	117879	28645.83260898446	71.447778331034
4	117890	28647.942302088847	72.759669987256
4	117897	28650.67256454544	53.903343560985
4	117910	28655.000019536398	56.355109205381
4	117928	28659.451431587493	52.143975638928
4	117935	28661.056211930183	44.394919088969
4	117946	28663.397889580801	45.547204216865
4	117968	28667.292208076878	46.275271375592
4	117980	28671.537639594652	46.897473336291
4	117997	28673.572819693354	48.278817330306
4	118002	28674.81101082823	30.058493073959
4	118011	28676.913726167515	17.287697320002
4	118033	28679.891375239852	16.627635034999
4	118048	28684.053207971048	18.90318343375
4	118070	28690.850156443452	23.768999173468
4	118077	28692.003884735776	16.451395663901
4	118082	28692.892809999104	4.670684023805
4	118089	28693.655175813082	2.895209943018
4	118100	28697.103497234213	3.94447221038
4	118116	28698.405734160367	2.960858727878
4	118130	28704.276753624867	1.281610464747
4	118156	28711.960413405949	4.045373774764
4	118176	28716.001055938452	6.256993390032
4	118206	28724.169755640237	9.924010048907
4	118228	28730.255652186895	12.664707610447
4	118241	28732.664251559723	8.503830016447
4	118256	28734.369809579087	5.331616536712
4	118264	28737.163877748113	4.890028829044
4	118276	28739.210231769026	1.301112365978
4	118361	28754.214479709362	6.713189135081
4	118373	28756.346998318952	8.073947897043
4	118387	28758.617658239968	6.323853591145
4	118413	28767.583808187257	12.788748355715
4	118432	28770.37587696142	14.213221720588
4	118437	28770.658384284704	7.229044392382
4	118445	28772.058596446971	7.201029279546
4	118465	28774.852142117285	0.327260628473
4	118476	28776.670597665007	1.303258864985
4	118496	28779.410435236263	0.810129847737
4	118534	28786.802507440052	4.911326619233
4	118539	28786.96131114969	2.79772242429
4	118546	28790.232254284192	4.135459692241
4	118598	28811.528332365264	8.127749311932
4	118608	28811.585561803592	4.522552101419
4	118613	28812.442039943619	1.509132296161
4	118620	28813.217613931995	0.190535594644
4	118647	28823.915521247761	6.775870445633
4	118662	28830.919210677476	0.959901819298
4	118669	28833.337857040727	2.988582133005
4	118697	28838.623639759712	2.730199300142
4	118713	28841.156106718167	1.025606549585
4	118733	28845.07304049789	2.922387195454
4	118763	28850.561096456223	7.883738065395
4	118797	28856.82035215492	14.107692929631
4	118810	28858.58573100827	14.791705482165
4	118843	28864.378031772424	12.730900631939
4	118848	28864.788904260238	13.092373265801
4	118854	28867.307943939618	14.531392746689
4	118863	28871.839228078997	16.747129755119
4	118876	28872.752299884133	12.755461405192
4	118894	28876.128633434755	14.939915080606
4	118914	28890.944477457292	19.773084549453
4	118984	28905.533365440754	25.494681151853
4	118989	28905.997267262514	18.599958376375
4	118998	28910.6846938457	16.62948870494
4	119008	28912.974576866278	10.954979711954
4	119012	28913.252937789061	6.462866747677
4	119035	28919.922113587166	1.517550148716
4	119074	28940.270719706262	1.401596578035
4	119113	28944.670276508992	0.52174244887
4	119142	28951.710366422385	1.91097225195
4	119176	28958.517667706515	7.613616772454
4	119202	28962.752113341734	11.134670924441
4	119206	28963.380850414384	9.80677758696
4	119221	28966.953872913312	3.499553878723
4	119270	28977.004650024184	9.922742357018
4	119282	28977.241331693603	5.921143276274
4	119286	28977.273902166967	4.923281884549
4	119323	28983.41520704426	0.753671510806
4	119337	28992.882687883578	2.10665687119
4	119352	28994.451686739522	0.31481493801
4	119375	29000.272573409515	2.374875557261
4	119386	29002.818819126063	2.623902791385
4	119398	29005.108401248113	4.537233768269
4	119402	29007.678073700749	6.902829902938
4	119433	29016.313381578826	2.132554647653
4	119448	29021.929401687246	2.894197319823
4	119533	29041.700544212897	20.149149396552
4	119538	29041.752722081144	18.080913469782
4	119547	29043.621752672928	18.225848346483
4	119585	29050.333244739776	19.029114106197
4	119589	29052.147655464164	1.98694142845
4	119643	29061.679362267414	1.273298138724
4	119662	29068.915463561792	3.61527683566
4	119685	29072.625070417204	2.038538658456
4	119711	29079.630541456238	1.547477762536
4	119729	29087.808856915953	1.817037912165
4	119787	29096.975116508186	8.753738484288
4	119798	29101.036985303051	7.963774257643
4	119811	29105.632046034555	6.5944237568
4	119815	29108.483477483746	4.766168870709
4	119878	29125.924006185687	3.289828803291
4	119901	29130.655780190014	4.653037271881
4	119921	29134.806303546951	7.008818419868
4	119946	29138.840374616388	4.452567030616
4	119950	29138.918581591023	4.037355362671
4	119965	29145.337790213858	3.817668605553
4	119987	29149.91647184138	5.113540771769
4	119991	29150.307610323402	1.453643403129
4	120059	29168.171065894729	13.474100578837
4	120066	29170.732003106992	11.254404215671
4	120075	29173.485315346885	10.731565843477
4	120093	29177.906090651171	11.938910785459
4	120098	29179.096629166184	7.804873658361
4	120103	29180.239857624999	5.940553858664
4	120108	29183.669742783115	9.289866325767
4	120115	29185.647053897906	9.697553724064
4	120183	29203.640881381029	7.764925943945
4	120188	29203.841817207818	6.467182758022
4	120198	29206.949897752786	9.570878610724
4	120213	29210.811442666898	10.720681395412
4	120292	29224.823174902805	0.291289320911
4	120302	29227.482795130237	1.183510523239
4	120309	29230.760213069983	0.836934265333
4	120317	29235.473107991905	2.964977756345
4	120333	29241.358362632688	4.508890392111
4	120346	29243.60176497641	5.989160592198
4	120353	29246.631844832508	8.272041687938
4	120362	29247.863402310816	9.068792952762
4	120379	29251.576665847154	9.897424303108
4	120399	29253.154632387683	8.886440079856
4	120454	29265.125088389743	17.8588389597
4	120460	29265.866818149138	16.795973168118
4	120465	29266.644561999688	11.821405455688
4	120474	29270.080378820375	6.765195269555
4	120489	29273.420283509974	4.821417680364
4	120545	29289.206043923907	5.641807139379
4	120552	29294.117815635593	7.722217004432
4	120568	29298.028429010044	8.85112230905
4	120580	29298.186168783259	3.120420891751
4	120592	29300.077623506683	1.971517347405
4	120656	29311.061431053498	12.277992467813
4	121113	29443.741290863217	141.32780259712
4	121119	29444.706981228389	131.47293980403
4	121124	29445.127640910832	127.90923821594
4	121135	29448.187265289503	128.32716103278
4	121185	29457.678544812417	134.10794552726
4	121206	29462.185589634721	135.83122011664
4	121220	29465.211792060207	138.17974829979
4	121234	29467.984309317986	138.11537203355
4	121256	29473.999568614088	143.75786560383
4	121285	29479.174157438566	148.33820517152
4	121456	29520.727436570754	188.41057197328
4	121461	29521.376401403586	185.27442017073
4	121469	29522.398371962892	177.91547637684
4	121486	29525.940351074468	173.76965862697
4	121514	29533.709636711156	181.29567813828
4	121519	29533.807016240241	179.04261204815
4	121535	29538.160024759419	182.45728874758
4	121554	29541.435072484223	172.55056226461
4	121559	29541.676836745138	171.76968985985
4	121566	29544.124261153635	170.48839952171
4	121577	29544.874705795334	165.99119647256
4	121583	29545.462374026937	162.35106493462
4	121591	29549.106562401248	160.72034846509
4	121606	29552.15342569245	160.64497029739
4	121631	29558.284095800589	160.38753579089
4	121814	29606.24542770118	205.19485722668
4	121819	29607.368406534681	201.61120042878
4	121828	29608.271938854293	183.34535380873
4	121845	29615.936666729761	188.84711522945
4	121868	29622.036587707549	191.76041317122
4	121888	29625.52541120645	191.77055415467
4	121894	29626.579288952501	184.03622195153
4	121901	29631.363957118585	179.48069592019
4	121918	29636.061361698185	180.17130207047
4	121939	29640.481773979331	184.13967871108
4	121997	29649.072084205617	188.39027685096
4	122007	29656.999320903759	187.99439745108
4	122026	29660.899333624593	189.23738569649
4	122035	29662.622489735308	189.00890129545
4	122053	29666.04788842861	190.33288553362
4	122058	29666.239452924452	179.7031204556
4	122065	29667.627071541847	180.86429637717
4	122099	29672.305884198106	183.42694897895
4	122110	29672.779067398674	183.57591269812
4	122118	29675.520009861492	164.22191511791
4	122141	29678.366519564511	162.96402715522
4	122148	29681.979355951603	165.01364985084
4	122158	29682.484776520051	158.29281670889
4	122164	29685.044027607759	153.47292878983
4	122173	29685.710562428999	151.69927222846
4	122206	29691.515805053103	156.35230287886
4	122222	29695.739325077149	159.31653230113
4	122232	29696.026146845428	134.4486715299
4	122241	29696.933683284417	132.79553911619
4	122252	29705.259071569876	130.79096511852
4	122292	29712.288849437201	130.78644655605
4	122300	29716.587575320335	135.01541321894
4	122314	29722.753244839295	135.96387226759
4	122322	29724.287133709704	133.37379531904
4	122341	29728.187517688501	130.22842247113
4	122348	29729.196719330899	130.87194843221
4	122353	29730.269211654678	129.01875296092
4	122358	29735.262964310094	131.77125363841
4	122367	29739.860897005581	132.34902944854
4	122398	29743.870374927204	128.15700754532
4	122434	29754.060009095159	132.37424100889
4	122457	29762.807905492311	137.35158141941
4	122463	29763.450565780097	131.66544436936
4	122470	29764.329076388026	129.92930370177
4	122482	29765.828602759159	129.1989347038
4	122487	29766.531280057767	124.00087411226
4	122496	29770.669111418161	107.71784430034
4	122507	29779.054583591047	107.24147449849
4	122551	29787.794197579139	115.50485006388
4	122556	29789.202017851015	112.36745696317
4	122561	29789.505634715822	111.51098866345
4	122570	29793.290697136482	107.79987459471
4	122586	29797.177955574171	108.60734241179
4	122594	29801.048183393195	111.45987826633
4	122601	29805.732447786122	109.51835514059
4	122642	29811.876806865455	115.16782382602
4	122652	29813.016516562064	109.94232878827
4	122658	29814.596540748361	108.98266820271
4	122663	29817.222043782984	111.32242225984
4	122673	29821.073538394615	113.57764305083
4	122685	29822.186422716973	113.70348307355
4	122698	29823.011664588752	104.8716384374
4	122712	29826.189790704114	107.04757847722
4	122737	29830.121539402688	101.34239425941
4	122813	29850.237967246482	103.79385441269
4	122851	29862.263440180362	110.93085782401
4	122856	29862.8828366354	101.98900292116
4	122861	29863.263305318581	101.38708194774
4	122886	29877.591957359874	111.79702462332
4	122935	29888.020837324995	121.35758804089
4	122952	29889.710379462708	117.26060101838
4	122960	29892.16039336239	108.48929571952
4	122974	29893.90298446334	108.07896282659
4	122986	29897.632477211881	98.550384537412
4	123021	29907.17606065628	97.364631360556
4	123052	29915.092059460241	104.80648364543
4	123057	29916.673715462243	98.684460942925
4	123062	29918.045045421114	95.380904522718
4	123067	29924.165126697556	100.89396959861
4	123075	29926.547450539195	101.10254587135
4	123084	29930.578838088781	102.95586704045
4	123104	29935.028832082691	105.47391989411
4	123121	29936.479137716977	103.19986907588
4	123128	29937.524362486573	99.62021330411
4	123135	29939.736522123781	98.156535414984
4	123141	29940.487980252547	97.661050534533
4	123146	29940.783337478319	97.743016088706
4	123153	29943.659029969565	99.675433925871
4	123168	29948.097649468445	98.341655771798
4	123183	29950.99517007055	97.151754468598
4	123200	29954.801008782076	88.286027469437
4	123211	29956.451874390705	84.617816377685
4	123218	29957.694664964379	84.019712360373
4	123223	29959.618374100666	84.410867244662
4	123232	29962.005820756849	84.874968202988
4	123249	29965.917100516341	86.135317197937
4	123266	29971.736839927883	78.997285298205
4	123271	29972.003755607939	79.105621208113
4	123280	29974.294481662987	72.654599091273
4	123313	29978.375872945008	72.078310697733
4	123322	29979.466959314474	53.711246127983
4	123337	29980.479470305093	35.538844186952
4	123353	29983.522184061562	35.059574745565
4	123379	29988.492275334233	36.598435323186
4	123384	29989.056904720567	36.713111703698
4	123389	29990.005851698416	32.553334165386
4	123398	29992.589610247677	31.291365955362
4	123415	29999.524867653296	35.169031492239

