version 2
run Second-n3-13-20191016-14:53:09-5340
attr configname Second-n3
attr datetime 20191016-14:53:09
attr experiment Second-n3
attr inifile omnetpp.ini
attr iterationvars ""
attr iterationvarsf ""
attr measurement ""
attr network org.omnetpp.queueing.Pizza
attr processid 5340
attr repetition 13
attr replication ""
attr resultdir results
attr runnumber 13
attr seedset 13
param **.PS.maxInventoriedPS 3
param **.U1.interArrivalTime exponential(3s)
param **.U2.interArrivalTime exponential(5s)
param **.PS.serviceTimeForInventoryU1 exponential(1.0s)
param **.PS.serviceTimeForInventoryU2 exponential(1.2s)
param **.PS.serviceTimeDirectU1 exponential(1.4s)
param **.PS.serviceTimeDirectU2 exponential(1.4s)
param **.PS.probabilityProducing 0.7
param **.CS.serviceTimeU1 exponential(1.1s)
param **.CS.serviceTimeU2 exponential(1.4s)

vector 0 Pizza.EntryQueueU1 queueLength:vector ETV
attr interpolationmode sample-hold
attr title "queue length, vector"
vector 1 Pizza.CS queueLength:vector ETV
attr interpolationmode sample-hold
attr title "queue length, vector"
vector 2 Pizza.EntryQueueU2 queueLength:vector ETV
attr interpolationmode sample-hold
attr title "queue length, vector"
vector 3 Pizza.sink lifeTime:vector ETV
attr interpolationmode none
attr title "lifetime of arrived jobs, vector"
attr unit s
vector 4 Pizza.sink lifeTimeU2:vector ETV
attr interpolationmode none
attr title "lifetime of arrived jobs, vector"
attr unit s
0	0	0	0
0	7	5.324835378102	1
0	14	11.215102530395	0
0	22	12.029129270795	1
0	24	12.623322247706	0
0	85	27.504002440506	1
0	94	31.130127449923	0
0	100	31.622090967814	1
0	101	31.913157289133	0
0	109	33.423746972988	1
0	111	34.274732290081	2
0	113	34.629483218715	3
0	116	35.338484298821	2
0	122	35.695259412213	1
0	129	38.366292289673	2
0	130	38.4538254908	1
0	137	39.207322304357	2
0	139	39.486719829327	3
0	140	39.52954607635	2
0	145	39.605512431233	1
0	150	39.682879773835	0
0	159	40.917602939373	1
0	162	41.802866484155	0
0	171	43.864304816244	1
0	182	51.675151759758	2
0	183	51.711396057193	1
0	188	52.475361270697	0
0	192	52.641991669643	1
0	196	53.436027940841	0
0	202	54.297225157905	1
0	206	55.165509358073	0
0	276	66.884057975252	1
0	279	67.986272753556	0
0	285	68.31088494853	1
0	286	68.331527787962	0
0	318	80.476628815662	1
0	320	81.60123132173	2
0	322	81.999291870291	3
0	323	82.502521147083	2
0	329	82.704223276856	3
0	330	82.863050247323	2
0	335	83.185971661866	1
0	340	83.251662503749	0
0	346	84.036587494724	1
0	348	84.805193585455	2
0	352	85.393661989455	3
0	356	87.925819407975	2
0	364	91.839437925259	1
0	369	91.863824284818	0
0	399	99.669144822037	1
0	401	100.435177891318	2
0	402	100.645030602616	1
0	408	101.83199868946	2
0	409	101.958283195263	1
0	415	102.053175710362	2
0	417	102.933480276198	1
0	427	105.080087545818	0
0	442	105.879732838872	1
0	443	105.944137249103	0
0	464	108.492525736143	1
0	468	108.912603154677	2
0	472	110.406324162439	3
0	475	110.963731920093	4
0	477	115.809784070906	5
0	478	116.547190168056	4
0	484	116.81434065226	5
0	486	117.389736321073	6
0	487	118.493612128464	5
0	495	120.040802049318	4
0	501	121.145560911009	5
0	502	121.395406950888	4
0	510	123.632943941487	5
0	518	127.120327141097	4
0	524	128.337350230144	3
0	531	129.215540381758	4
0	532	129.383475891867	3
0	537	129.523605392296	2
0	544	130.919892141974	1
0	550	131.157082124726	0
0	568	134.209370470124	1
0	569	134.986753555427	0
0	594	139.591533639956	1
0	599	140.241539121435	0
0	605	140.57774524487	1
0	608	141.609974968947	0
0	631	152.255783506384	1
0	634	153.337248432765	0
0	640	153.362573423804	1
0	642	153.429177159095	2
0	644	153.656614141493	1
0	649	154.326884991263	0
0	697	165.863743224376	1
0	698	166.003328796236	0
0	727	173.280852293594	1
0	728	173.371680228047	0
0	734	173.884822145931	1
0	736	173.982369866215	2
0	741	175.128063385687	3
0	746	175.756035873613	2
0	751	175.827910216672	1
0	756	175.916371587962	0
0	774	182.157463380825	1
0	779	184.608472860165	0
0	793	187.339456809244	1
0	799	189.802054254471	2
0	801	190.626979529107	3
0	802	191.256573064319	2
0	807	191.307835086923	1
0	812	191.908086283415	0
0	841	197.809424897137	1
0	843	198.475643236687	2
0	845	199.040108885846	3
0	849	199.878070378561	4
0	855	201.598319127126	5
0	856	202.897758652562	4
0	861	203.577183363857	3
0	872	205.329989402417	2
0	879	206.403111635396	3
0	882	207.238603857713	4
0	886	208.210333279926	5
0	888	209.548835762796	6
0	891	213.204420293802	5
0	897	213.265473163349	4
0	903	213.549258534576	5
0	907	216.530715885169	6
0	911	217.122401352345	7
0	913	218.372800279827	6
0	921	220.522510617255	7
0	922	221.177353171508	6
0	927	221.207443459361	5
0	932	221.637376001943	4
0	937	222.297550986949	3
0	942	223.943371972823	2
0	947	226.269182494724	1
0	952	226.858680363938	0
0	958	227.879178186441	1
0	960	228.065756822313	2
0	962	228.673663584566	3
0	964	228.779699317146	4
0	966	228.853066038981	5
0	967	229.260789822607	4
0	972	229.568008174412	3
0	978	230.076279240355	4
0	979	230.515568132404	3
0	983	231.047131118335	4
0	985	233.610533823061	5
0	989	234.310638380827	6
0	991	234.375528147024	7
0	994	234.725123589897	8
0	995	236.240673862988	7
0	1000	236.371882869869	6
0	1009	240.181424230269	7
0	1016	242.342555505792	6
0	1021	242.557450128007	5
0	1030	243.161905505119	4
0	1036	243.72867987864	5
0	1037	243.786021533404	4
0	1041	243.807226594458	5
0	1043	244.963795619363	6
0	1046	247.53342491299	5
0	1050	247.850877515311	6
0	1055	248.967622144766	5
0	1061	249.768616177684	4
0	1068	251.083714304733	3
0	1074	251.24692385047	2
0	1079	251.271309616404	1
0	1085	252.313468343561	0
0	1091	252.584978810239	1
0	1093	253.013585407884	2
0	1094	253.573056479734	1
0	1100	254.751999730483	0
0	1106	255.290773760167	1
0	1111	258.016626888143	0
0	1119	262.819293661176	1
0	1120	263.684976802919	0
0	1139	267.251798193765	1
0	1140	267.525091768063	0
0	1162	272.083550908488	1
0	1163	272.476436974334	0
0	1174	274.09087943434	1
0	1176	274.158951144436	2
0	1178	278.247134524389	1
0	1184	278.783019115431	0
0	1190	279.071361192439	1
0	1194	280.354416580102	2
0	1197	281.237135071978	3
0	1198	281.643871684989	2
0	1203	282.08394057122	1
0	1208	282.776254984673	0
0	1219	284.640908776437	1
0	1220	286.486553935952	0
0	1248	290.084633910387	1
0	1252	295.729208680864	0
0	1258	295.839670950328	1
0	1259	296.163936183417	0
0	1266	296.893693209164	1
0	1271	298.133582552508	2
0	1274	301.814967740808	1
0	1279	301.873929653709	0
0	1291	302.686391340145	1
0	1293	305.120399022249	0
0	1299	306.174179060288	1
0	1301	306.574627793316	2
0	1305	307.246386211832	1
0	1310	307.381240044227	0
0	1338	310.19763767403	1
0	1342	313.103103818906	2
0	1343	314.26680330016	1
0	1349	315.432107339567	0
0	1365	318.130973511222	1
0	1366	319.206239957731	0
0	1375	320.270714768089	1
0	1380	321.482567501565	0
0	1400	324.980167071948	1
0	1403	326.775822072862	0
0	1421	329.246847171838	1
0	1428	332.195729558082	0
0	1471	349.58878695285	1
0	1472	349.800142924691	0
0	1507	356.547280704943	1
0	1510	357.687935070142	0
0	1560	370.441818417315	1
0	1562	370.789863003898	2
0	1571	372.719448031107	1
0	1578	373.055933825242	2
0	1579	374.264387539421	1
0	1584	374.845398236512	0
0	1595	378.007997546537	1
0	1599	379.20018611402	2
0	1601	379.840583955177	1
0	1607	380.309268790272	0
0	1618	383.983134815745	1
0	1623	385.642963120701	0
0	1632	385.895538967922	1
0	1636	387.949377121162	0
0	1648	391.243708690552	1
0	1652	393.575108129838	2
0	1654	395.448335317236	3
0	1656	396.066484254713	4
0	1657	397.349614335442	3
0	1662	398.567033613705	2
0	1670	399.14229552888	1
0	1676	400.05615892888	2
0	1677	400.085646008099	1
0	1681	400.16468483786	2
0	1685	401.825424853664	1
0	1693	402.460720450872	2
0	1695	402.501482548731	3
0	1696	402.778437311968	2
0	1701	404.65601897153	1
0	1706	406.121721342387	0
0	1720	409.259028380129	1
0	1726	412.191419991468	2
0	1728	412.828931959083	3
0	1731	413.103603419221	2
0	1735	413.134582548225	3
0	1738	414.405111159618	2
0	1746	415.813371511476	1
0	1753	416.946103435688	0
0	1776	419.227462662596	1
0	1779	421.219391293557	2
0	1780	422.042701617207	1
0	1785	422.07719848685	0
0	1803	425.359290407225	1
0	1804	425.946523861829	0
0	1818	430.182730442748	1
0	1819	431.748753078763	0
0	1831	435.508369241231	1
0	1834	436.541892988511	0
0	1843	437.197101322761	1
0	1844	439.1762473636	0
0	1866	443.163480895435	1
0	1869	445.456978983656	0
0	1878	447.837795536309	1
0	1883	449.345935629315	0
0	1889	449.540031174048	1
0	1891	453.350558499299	0
0	1905	457.185791039304	1
0	1906	457.398893443667	0
0	1925	459.883663851027	1
0	1926	459.991216689586	0
0	1932	460.271555108338	1
0	1936	461.223150530104	2
0	1937	461.763811173494	1
0	1943	461.85652843945	2
0	1945	462.073787262754	1
0	1951	462.200943044879	2
0	1952	462.250979934999	1
0	1960	462.978514256639	2
0	1963	463.322001988916	1
0	1969	463.659026813811	0
0	1981	464.947901457336	1
0	1982	465.845533779785	0
0	1999	468.51781168719	1
0	2003	475.409145996524	2
0	2007	475.597497963335	3
0	2009	475.689811128365	4
0	2013	476.348036157966	5
0	2015	477.839361185303	6
0	2021	478.806678337814	7
0	2022	479.135362491474	6
0	2032	479.687463918408	7
0	2034	480.203978010378	6
0	2039	480.847397761001	5
0	2047	481.911568955036	6
0	2048	482.290882759105	5
0	2053	482.32334715169	4
0	2060	482.798106787093	3
0	2066	482.801494178201	4
0	2067	483.142341599956	3
0	2072	483.285676072286	2
0	2077	483.493870306956	1
0	2082	483.556512078771	0
0	2090	487.480604251567	1
0	2091	487.696239673996	0
0	2125	495.009498255972	1
0	2129	498.496675769794	2
0	2132	499.209007929032	1
0	2139	499.830613516166	0
0	2148	500.49081858368	1
0	2149	500.671431968718	0
0	2158	501.595096104531	1
0	2163	505.942725712363	0
0	2169	506.539358884556	1
0	2170	506.751833887773	0
0	2174	508.674657244789	1
0	2178	510.325402280204	2
0	2180	510.831202324587	3
0	2181	510.948260550106	2
0	2192	515.939259857305	1
0	2196	518.047153767258	2
0	2199	518.509458674912	1
0	2203	518.905564185757	2
0	2213	522.991269593609	3
0	2214	523.226269832583	2
0	2220	523.563415891402	1
0	2225	524.242060364997	0
0	2246	527.012910409457	1
0	2247	527.216175083638	0
0	2254	528.003420071151	1
0	2256	529.860819676932	0
0	2272	530.873656855573	1
0	2273	531.560506041783	0
0	2293	533.196882792476	1
0	2295	533.430838248428	2
0	2296	534.158939714695	1
0	2302	534.955445401624	0
0	2320	537.482059927989	1
0	2323	538.349524414818	2
0	2324	541.693842019546	1
0	2329	542.029494244955	0
0	2347	546.312241316691	1
0	2350	547.608786517673	0
0	2376	554.668906105795	1
0	2379	555.444124067916	0
0	2385	555.805515915009	1
0	2387	556.07246946155	2
0	2388	557.869074416078	1
0	2393	558.736850778202	0
0	2400	560.659480905797	1
0	2401	560.986028402759	0
0	2409	561.169825788264	1
0	2410	561.234276111309	0
0	2419	562.173448493026	1
0	2422	565.207736764094	0
0	2460	571.515554148862	1
0	2466	574.08748702167	2
0	2476	577.285930578474	1
0	2482	577.525582554976	2
0	2483	577.529398690037	1
0	2491	578.330994094172	2
0	2492	580.313109169353	1
0	2498	580.919445776873	0
0	2540	593.395750404055	1
0	2542	593.545783362918	2
0	2546	595.75290860013	3
0	2548	595.946147782332	4
0	2550	596.002053856706	5
0	2555	599.113918268087	4
0	2563	600.651290466497	3
0	2569	600.826775251031	4
0	2572	602.396165908989	5
0	2574	603.122536903093	4
0	2579	603.238826283532	3
0	2585	603.241519144378	4
0	2588	605.959084625066	3
0	2595	607.969198880169	2
0	2600	608.05834281791	1
0	2605	608.472401911389	0
0	2655	617.876362984863	1
0	2658	619.880764266294	0
0	2677	625.665069764438	1
0	2679	626.556913213239	2
0	2681	627.682186085161	3
0	2683	628.111341484139	4
0	2686	631.726572912352	5
0	2688	631.747357556705	6
0	2689	633.342960087406	5
0	2695	634.299892586508	6
0	2696	635.012115800837	5
0	2706	635.507722882271	6
0	2709	637.7400663008	7
0	2710	638.398270449297	6
0	2716	638.565185729268	5
0	2721	639.063092844069	4
0	2726	639.916341770687	3
0	2731	641.981213217973	2
0	2741	645.549933739096	1
0	2746	646.561099993573	0
0	2759	649.123221546839	1
0	2760	649.210446566773	0
0	2771	650.15625607195	1
0	2775	652.996601444251	2
0	2776	653.796507769798	1
0	2783	655.774000416517	2
0	2785	656.212339231134	3
0	2786	658.6557169544	2
0	2793	661.375040700619	1
0	2799	662.234588609593	0
0	2806	663.500938975603	1
0	2807	664.216885016741	0
0	2828	670.867789987873	1
0	2830	671.112626120032	2
0	2832	671.928673458887	3
0	2833	672.182839748272	2
0	2838	673.274259551916	1
0	2843	673.617616921732	0
0	2888	681.773402635226	1
0	2890	683.839017337636	2
0	2892	685.692343587209	3
0	2894	688.540166420455	4
0	2898	689.91980753518	5
0	2899	690.777997848472	4
0	2904	691.486075801209	3
0	2910	692.327931372434	2
0	2916	692.583818558726	3
0	2917	692.775224872148	2
0	2924	693.181589789723	3
0	2926	694.269480719353	2
0	2932	694.580752965694	3
0	2933	694.854210095663	2
0	2941	698.258635907903	1
0	2947	698.417204254379	2
0	2948	698.541282138656	1
0	2959	701.869104419168	2
0	2960	702.593431776756	1
0	2967	704.738884473668	0
0	2986	706.5612245281	1
0	2989	707.639239553661	0
0	3008	711.423449047507	1
0	3010	711.504470514501	2
0	3012	713.09830662677	3
0	3013	713.338668173179	2
0	3018	714.966374144452	1
0	3025	715.980749067984	0
0	3037	717.187282856833	1
0	3039	717.8164942	2
0	3040	718.635221694666	1
0	3047	719.472250732368	0
0	3098	742.235433918528	1
0	3102	742.858475091815	2
0	3104	743.440531446848	3
0	3106	743.543287739906	4
0	3108	745.174395525574	5
0	3109	745.855247254045	4
0	3115	746.093958309994	5
0	3116	746.218850658857	4
0	3122	747.312189961537	5
0	3124	747.690307897829	6
0	3125	747.757847792806	5
0	3131	748.402415918969	4
0	3139	748.52132721531	5
0	3141	749.509482634895	6
0	3143	749.958361368148	5
0	3149	751.743700333867	4
0	3153	752.520230187908	5
0	3157	753.522412461606	6
0	3160	754.663406232691	5
0	3165	755.976694270828	4
0	3173	758.615845517131	3
0	3178	759.319416460031	2
0	3184	761.259147255823	3
0	3189	763.957515289587	2
0	3193	764.001467395844	3
0	3195	764.235130629738	4
0	3198	764.93390059866	3
0	3203	765.895661555982	2
0	3207	766.538778120703	3
0	3209	766.801171704801	4
0	3213	769.80240649763	3
0	3218	770.097904080806	2
0	3224	770.652673639183	1
0	3231	771.82668227168	0
0	3253	775.561832704315	1
0	3256	779.582083828059	0
0	3286	789.74693118289	1
0	3290	790.940134850222	2
0	3291	791.478463679187	1
0	3296	791.723829053337	0
0	3312	794.148506670469	1
0	3314	795.56382393177	2
0	3319	796.089861756278	1
0	3326	796.689764217152	0
0	3362	805.940314319917	1
0	3365	807.972076726678	0
0	3395	812.61731183972	1
0	3397	812.631236703336	2
0	3400	813.317936170664	1
0	3406	814.39507666101	0
0	3418	815.575269048635	1
0	3419	815.602107915336	0
0	3444	824.716835467841	1
0	3445	824.866860253447	0
0	3467	828.543110426708	1
0	3469	828.669761797152	2
0	3470	828.703184462146	1
0	3476	828.960885550047	0
0	3482	829.363789956911	1
0	3485	829.754573979286	2
0	3486	830.447036246006	1
0	3491	831.25219313249	0
0	3498	831.466845328715	1
0	3501	832.103166718151	0
0	3507	833.203225323403	1
0	3508	833.251294465366	0
0	3554	844.696260297655	1
0	3557	844.929163793329	2
0	3558	845.662858603535	1
0	3565	846.196985464347	2
0	3567	849.052249141774	3
0	3568	849.251400218218	2
0	3573	849.372500903223	1
0	3580	850.086362093845	2
0	3584	851.718647602512	1
0	3589	851.788179096213	0
0	3595	852.471003550172	1
0	3597	852.564836668633	2
0	3598	852.678078394122	1
0	3604	852.834550560682	2
0	3606	853.782591906175	1
0	3611	855.55375494855	0
0	3638	861.639444844821	1
0	3641	863.808648849357	0
0	3652	864.633879979016	1
0	3653	865.989324141458	0
0	3681	873.046690902945	1
0	3683	874.241111328073	2
0	3685	878.567544383643	3
0	3687	880.155754057244	4
0	3688	880.594695965492	3
0	3693	880.739144544493	2
0	3699	880.970832306248	3
0	3700	881.280346305509	2
0	3706	881.578269801649	1
0	3711	882.02661746143	0
0	3715	882.502457513846	1
0	3720	886.708008782505	0
0	3792	903.872272802942	1
0	3793	904.521651887658	0
0	3800	905.233594477761	1
0	3801	905.577992061518	0
0	3823	920.840222465345	1
0	3825	920.899782954712	2
0	3826	920.977164645855	1
0	3833	921.672441706882	2
0	3840	923.021139515403	3
0	3841	923.4929799601	2
0	3849	926.132103900288	1
0	3855	926.417492862362	0
0	3861	926.748931482025	1
0	3865	928.666551343943	0
0	3891	931.193182866732	1
0	3894	931.719783595935	0
0	3905	933.365684005039	1
0	3909	935.262075385908	2
0	3910	935.491463724917	1
0	3919	937.304606929016	0
0	3926	940.284987366788	1
0	3929	944.080015234819	2
0	3930	944.156460349557	1
0	3938	944.659034516958	2
0	3940	945.192610060794	1
0	3946	946.378035657507	2
0	3952	949.995481138412	1
0	3957	950.026318046402	0
0	3979	953.263237485097	1
0	3980	954.062809423721	0
0	3988	954.732405675698	1
0	3992	955.372847432111	2
0	3993	955.448882149282	1
0	3998	955.776432905461	0
0	4022	960.629743487031	1
0	4023	961.011396965021	0
0	4042	964.634344166628	1
0	4043	964.974571234462	0
0	4049	965.43775454987	1
0	4050	965.54410269032	0
0	4155	1000.692229727654	1
0	4158	1001.960245959437	0
0	4179	1003.501531436238	1
0	4185	1005.097445868148	2
0	4187	1006.051575069093	3
0	4190	1006.46773667317	2
0	4195	1006.770200870198	1
0	4200	1007.690205999483	0
0	4226	1015.285697494897	1
0	4228	1015.852130250701	2
0	4230	1016.689127831784	1
0	4235	1016.86038084111	0
0	4258	1017.949751227699	1
0	4260	1020.12688293818	2
0	4262	1020.670783668093	3
0	4265	1021.296035202031	4
0	4266	1022.967153076147	3
0	4273	1023.486464213645	2
0	4282	1025.403806214351	1
0	4288	1027.902400018826	0
0	4299	1028.752183435158	1
0	4301	1030.793706513124	2
0	4303	1031.484710969839	1
0	4311	1033.076774185532	2
0	4315	1034.957135829225	1
0	4321	1035.943335125893	0
0	4332	1036.663618953932	1
0	4334	1037.7385547051	2
0	4336	1038.028778251906	1
0	4343	1038.574374671531	0
0	4347	1038.634863885531	1
0	4352	1039.117625076139	2
0	4353	1039.926189521162	1
0	4359	1039.948982706686	2
0	4360	1039.999631235749	1
0	4367	1042.53915594104	0
0	4371	1043.024493759794	1
0	4375	1044.857162520364	0
0	4388	1046.771100852277	1
0	4394	1048.371981916628	0
0	4411	1051.707811411539	1
0	4412	1052.448288084662	0
0	4421	1053.396589120218	1
0	4423	1053.838624214738	2
0	4424	1054.295351274713	1
0	4429	1055.458721951883	0
0	4436	1056.685543792387	1
0	4439	1057.492512718372	0
0	4445	1058.623703456797	1
0	4448	1060.69032109312	0
0	4454	1060.768145843528	1
0	4455	1061.323262824986	0
0	4461	1061.424052498703	1
0	4463	1061.457923862151	2
0	4464	1062.130719426589	1
0	4469	1062.996487377045	0
0	4473	1065.192983163293	1
0	4476	1065.744147810896	0
0	4482	1067.459266710985	1
0	4483	1068.023952166684	0
0	4487	1068.220141080835	1
0	4493	1069.528018125687	2
0	4494	1069.881344984601	1
0	4501	1070.793671589477	2
0	4504	1072.044926658942	3
0	4505	1072.497363096131	2
0	4510	1072.558247423632	1
0	4515	1073.870545429754	0
0	4519	1073.880704295687	1
0	4524	1074.514050321228	2
0	4526	1074.790693962635	1
0	4531	1074.802903497313	0
0	4547	1076.511097215347	1
0	4549	1076.80511336133	2
0	4550	1077.676064357547	1
0	4555	1078.046799489524	0
0	4602	1084.761006303425	1
0	4604	1086.608489609721	0
0	4617	1089.015838679789	1
0	4618	1089.522326601518	0
0	4673	1107.536094390973	1
0	4674	1107.842749078079	0
0	4688	1112.178974509164	1
0	4690	1112.201615805013	2
0	4692	1113.26085983033	1
0	4702	1115.133423602414	0
0	4714	1115.777512088227	1
0	4715	1117.096656492058	0
0	4721	1117.396412170185	1
0	4729	1123.421207195937	2
0	4732	1123.604709988804	1
0	4739	1123.919608914021	0
0	4745	1123.946254118395	1
0	4749	1124.428640595221	2
0	4750	1124.567898665969	1
0	4755	1124.573067579406	0
0	4766	1126.085465573278	1
0	4771	1127.855817988337	0
0	4803	1131.906269340661	1
0	4809	1134.654694414978	2
0	4811	1135.683389132982	3
0	4813	1135.89049201692	4
0	4815	1136.200818906628	5
0	4816	1136.340786938828	4
0	4824	1138.409384638301	3
0	4830	1140.639612649524	2
0	4835	1140.69915532193	1
0	4841	1140.821919067848	2
0	4842	1140.976145284483	1
0	4848	1141.441101362737	0
0	4867	1142.352219419632	1
0	4871	1143.053438397333	2
0	4873	1146.236880899394	1
0	4879	1146.834810177479	0
0	4883	1147.46648379154	1
0	4887	1148.492431426277	0
0	4894	1148.988924131288	1
0	4895	1149.375866092597	0
0	4909	1149.912900287898	1
0	4911	1150.206124580536	2
0	4913	1150.640395337412	3
0	4916	1152.875569559402	2
0	4921	1152.954619683368	1
0	4926	1153.404935191533	0
0	4947	1156.977739597418	1
0	4949	1157.257958861858	2
0	4950	1158.346874788157	1
0	4956	1158.813054498052	0
0	4962	1159.182189238098	1
0	4965	1159.655168087971	2
0	4967	1160.524644152456	1
0	4973	1161.952901648683	0
0	5035	1180.690469363915	1
0	5037	1181.763239437782	0
0	5060	1187.603094711765	1
0	5061	1188.310259582179	0
0	5075	1193.94043771932	1
0	5077	1195.879648009462	0
0	5116	1205.374941337664	1
0	5117	1206.503232351315	0
0	5124	1207.187159810257	1
0	5127	1209.803371615196	0
0	5172	1219.309264967433	1
0	5176	1222.71656859181	2
0	5177	1222.861745445888	1
0	5182	1223.028627221853	0
0	5196	1227.453452506487	1
0	5197	1229.750980450492	0
0	5207	1230.42420184337	1
0	5208	1230.478935695969	0
0	5227	1234.011532636575	1
0	5231	1237.945066417332	0
0	5237	1238.083306152767	1
0	5239	1238.758874077146	2
0	5241	1239.284036240904	1
0	5247	1239.607891610642	2
0	5251	1240.616202907031	1
0	5258	1241.186992467203	2
0	5260	1242.853463059505	1
0	5266	1244.072756105366	2
0	5269	1245.090482381814	3
0	5270	1247.397329071624	2
0	5276	1249.116273332019	1
0	5281	1249.13982110538	0
0	5298	1250.641423987112	1
0	5300	1251.620263633515	0
0	5359	1265.547946295045	1
0	5361	1265.944067565991	0
0	5385	1270.257121333977	1
0	5386	1270.637320691505	0
0	5409	1279.380594155813	1
0	5410	1279.821886474238	0
0	5530	1335.750992568189	1
0	5533	1337.680881271568	0
0	5540	1338.215160211118	1
0	5543	1339.72964609553	0
0	5558	1343.540297259027	1
0	5562	1344.272570992829	2
0	5564	1345.289128401867	3
0	5565	1347.25427835689	2
0	5571	1347.38759983287	3
0	5573	1347.476785123773	4
0	5577	1348.795951275304	3
0	5582	1349.197414489561	2
0	5589	1350.684818440137	1
0	5594	1351.044263964017	0
0	5598	1351.887862179894	1
0	5604	1353.45374605684	0
0	5613	1353.533704389386	1
0	5616	1355.643264494375	0
0	5625	1359.572841316565	1
0	5628	1361.059605395832	0
0	5652	1367.735641721622	1
0	5656	1368.783195936924	2
0	5658	1369.926894712032	3
0	5662	1370.923930767143	2
0	5667	1371.398097323438	1
0	5672	1371.465708653928	0
0	5685	1372.518026085853	1
0	5688	1374.060500604264	0
0	5713	1379.93875441325	1
0	5714	1380.047142387969	0
0	5722	1381.636694119269	1
0	5724	1382.359813818621	0
0	5733	1384.294741077407	1
0	5736	1385.727350968207	0
0	5753	1387.421922265011	1
0	5756	1387.82076285212	0
0	5788	1396.93312793969	1
0	5790	1396.961537217257	2
0	5792	1397.209988715811	3
0	5795	1400.311540889056	2
0	5801	1400.44238859349	3
0	5804	1401.804903517047	4
0	5805	1402.096834301711	3
0	5815	1405.403524216928	2
0	5822	1406.62563155712	3
0	5825	1407.158059568283	2
0	5831	1407.33313156481	3
0	5832	1407.399639791531	2
0	5838	1407.803224459792	3
0	5839	1407.933374865518	2
0	5844	1407.953310296778	1
0	5849	1408.332707921629	0
0	5853	1409.181439584574	1
0	5856	1411.085427935545	0
0	5867	1415.667088516316	1
0	5870	1416.10861418013	0
0	5880	1416.795063937818	1
0	5884	1418.546545460189	2
0	5890	1422.19158863933	3
0	5896	1424.64183891885	4
0	5898	1425.298075681238	3
0	5903	1425.726236050577	2
0	5910	1425.940004902017	1
0	5914	1427.987176396028	2
0	5919	1431.957350060264	1
0	5923	1432.262142860753	2
0	5925	1432.82393454932	3
0	5928	1433.315945926439	2
0	5934	1434.167372935104	1
0	5939	1434.6884060965	0
0	5953	1436.058743544901	1
0	5955	1436.152403521045	2
0	5960	1438.340563307518	3
0	5963	1438.529180407974	2
0	5970	1438.919225429155	1
0	5975	1439.668864154107	0
0	5979	1440.951183168313	1
0	5983	1443.027096111826	2
0	5984	1443.907956425784	1
0	5991	1446.210897890977	2
0	5992	1449.531991157236	1
0	6000	1450.976931529994	0
0	6059	1463.63449061087	1
0	6060	1463.779241935471	0
0	6070	1465.684457784864	1
0	6071	1467.243715446465	0
0	6083	1469.157723005189	1
0	6085	1470.086074393662	2
0	6088	1473.652705081126	1
0	6093	1475.112952526652	0
0	6111	1477.970270921049	1
0	6112	1478.973103564718	0
0	6131	1481.294120039729	1
0	6136	1482.185854920946	2
0	6142	1485.748654453467	3
0	6144	1487.662355614976	4
0	6145	1489.435526478189	3
0	6153	1491.050334565235	2
0	6158	1491.107831969482	1
0	6163	1491.153387280092	0
0	6207	1503.552656376299	1
0	6216	1508.507576719199	0
0	6227	1511.698878493692	1
0	6229	1513.151538827477	2
0	6233	1515.334642701732	1
0	6238	1515.376396982614	0
0	6252	1518.517751784469	1
0	6256	1518.800301344149	2
0	6257	1519.362680073432	1
0	6263	1520.002328058508	0
0	6320	1539.339321474893	1
0	6321	1539.944557102968	0
0	6350	1545.934884166562	1
0	6352	1547.477045129829	0
0	6366	1549.645746477494	1
0	6369	1551.963250447933	2
0	6374	1553.05053997503	3
0	6376	1553.161578367016	4
0	6377	1553.900493805354	3
0	6383	1554.713210880034	4
0	6384	1555.460873064068	3
0	6389	1555.532766686049	2
0	6395	1555.679288707077	3
0	6398	1556.606673938617	4
0	6399	1556.688893938316	3
0	6405	1557.720707927119	4
0	6408	1558.836887517677	3
0	6413	1558.843604691824	2
0	6418	1560.332832832005	1
0	6427	1565.942833789422	0
0	6453	1569.617728585669	1
0	6455	1570.771067184755	2
0	6457	1570.800591663238	3
0	6462	1572.78176380492	2
0	6466	1573.145684128046	3
0	6468	1573.406517086114	4
0	6470	1574.849998577149	5
0	6475	1575.71976766436	4
0	6481	1575.842640224633	5
0	6483	1576.804275076204	6
0	6486	1577.990343292682	5
0	6492	1578.707224560512	6
0	6495	1580.00538332168	5
0	6499	1580.169471984074	6
0	6501	1580.306608503021	7
0	6504	1581.681267727769	6
0	6508	1583.783834163625	7
0	6510	1584.100737575173	8
0	6513	1584.787500905245	7
0	6521	1587.637547361393	8
0	6524	1588.544573532785	7
0	6529	1588.967458283599	6
0	6535	1589.723315348009	7
0	6539	1590.252706993732	6
0	6544	1590.810781471193	5
0	6550	1591.727329054553	6
0	6556	1593.216677809975	5
0	6562	1594.997396768535	4
0	6568	1596.133850218651	3
0	6574	1597.269517650238	2
0	6579	1597.390632090954	1
0	6584	1597.929119878496	0
0	6602	1601.376726198179	1
0	6604	1602.451054980646	0
0	6610	1602.595434236557	1
0	6611	1602.747529016678	0
0	6627	1606.068503717464	1
0	6632	1606.75760178543	2
0	6634	1607.549378063783	1
0	6640	1608.455321099713	0
0	6654	1609.523486531256	1
0	6655	1610.120767477287	0
0	6672	1612.061192832961	1
0	6675	1617.309059234221	0
0	6685	1619.412701450693	1
0	6687	1620.601264358931	2
0	6696	1622.831851148716	1
0	6702	1624.755586051771	0
0	6711	1627.474763276327	1
0	6712	1627.660104299393	0
0	6724	1630.236827064862	1
0	6726	1631.469727901765	2
0	6728	1632.356788595601	3
0	6730	1632.823436481203	4
0	6732	1633.949585998525	5
0	6733	1635.051925657337	4
0	6741	1637.407891495336	5
0	6743	1637.462629379409	6
0	6744	1637.532853444894	5
0	6749	1637.717231760468	4
0	6756	1639.626113815088	3
0	6761	1639.870180908978	2
0	6766	1640.783676368991	1
0	6771	1641.483353593257	0
0	6778	1642.997020892058	1
0	6784	1644.976459578708	2
0	6785	1645.600883663044	1
0	6792	1645.667274731386	0
0	6805	1652.313999201257	1
0	6806	1652.339817904914	0
0	6819	1653.632418151356	1
0	6821	1654.559595250727	2
0	6822	1655.593209869228	1
0	6830	1658.40288960921	0
0	6851	1666.465454887578	1
0	6856	1668.843239417844	0
0	6862	1668.881217151721	1
0	6863	1669.629927035776	0
0	6877	1670.612392986388	1
0	6878	1670.874553674482	0
0	6890	1672.893484047673	1
0	6892	1673.117084677432	2
0	6895	1674.545550845793	3
0	6897	1674.980773626245	4
0	6898	1675.14387483618	3
0	6904	1675.563197248159	2
0	6911	1676.088668114119	3
0	6914	1676.762841634723	2
0	6919	1677.704082385613	1
0	6924	1677.779178927491	0
0	6949	1687.444047912735	1
0	6952	1687.595558316988	0
0	6956	1687.68767467967	1
0	6959	1688.440650894241	0
0	6963	1688.444128499117	1
0	6967	1689.993020060965	0
0	6988	1696.213332375698	1
0	6990	1697.057467413489	2
0	6991	1697.3744916219	1
0	6996	1698.117813309736	0
0	7012	1698.938083037449	1
0	7015	1700.670576918892	0
0	7027	1702.084275772673	1
0	7028	1702.221594912165	0
0	7035	1703.80521863335	1
0	7037	1703.888397839303	2
0	7038	1704.607272395599	1
0	7045	1705.429358268363	2
0	7046	1706.291972561259	1
0	7051	1707.480684875398	0
0	7070	1710.9354191684	1
0	7072	1714.480040989549	2
0	7074	1714.654891324344	3
0	7078	1715.286594561069	4
0	7081	1716.100220762994	3
0	7089	1717.066910787422	4
0	7092	1718.210147655024	5
0	7093	1718.466774443385	4
0	7098	1719.404245964412	3
0	7103	1719.475701178539	2
0	7110	1721.52631821627	1
0	7115	1723.379818570484	0
0	7122	1724.666257310012	1
0	7126	1725.140227659319	2
0	7128	1725.768023475479	3
0	7129	1728.140038057482	2
0	7136	1729.042956366831	3
0	7137	1729.222937117715	2
0	7142	1729.714270819247	1
0	7149	1730.354228531733	2
0	7150	1731.262422161544	1
0	7156	1731.294885634405	2
0	7158	1731.919663870502	3
0	7162	1733.78844424792	4
0	7163	1734.821428308015	3
0	7170	1737.311586478778	4
0	7171	1737.354325681671	3
0	7178	1737.837379836391	2
0	7185	1738.579313111306	3
0	7187	1739.970893807345	2
0	7192	1740.231468230696	1
0	7198	1741.285781710328	0
0	7239	1747.025867426765	1
0	7241	1747.431832852613	2
0	7242	1747.817584741126	1
0	7248	1748.716952974941	0
0	7255	1749.86931311768	1
0	7257	1750.443796544901	2
0	7259	1750.480645621671	3
0	7260	1751.547224920352	2
0	7266	1751.676796779409	3
0	7267	1752.648666442017	2
0	7272	1752.893786678132	1
0	7277	1753.411609153946	0
0	7290	1754.867736978128	1
0	7291	1756.404993141932	0
0	7316	1761.403930330254	1
0	7318	1763.020475431638	0
0	7412	1781.499913249461	1
0	7414	1781.666831352459	0
0	7470	1801.813282608551	1
0	7482	1806.880138357646	0
0	7509	1809.468134610941	1
0	7515	1810.84415847502	2
0	7517	1810.993641834475	3
0	7518	1811.313922043433	2
0	7523	1811.654531877229	1
0	7530	1811.80578348837	0
0	7552	1814.406414013419	1
0	7555	1814.691074021525	2
0	7558	1816.567116845003	3
0	7560	1818.072751683015	4
0	7562	1818.765793630486	5
0	7564	1818.84702186549	6
0	7565	1818.851176261028	5
0	7570	1818.88350976756	4
0	7578	1819.808172259301	3
0	7585	1820.964815567401	2
0	7590	1821.607771126701	1
0	7596	1823.707050047204	2
0	7598	1824.502480297716	3
0	7601	1829.296792265232	2
0	7608	1830.703957546076	1
0	7613	1832.470658023489	0
0	7619	1835.070617938365	1
0	7623	1835.568666556787	2
0	7624	1836.426113660708	1
0	7629	1837.484357369726	0
0	7640	1839.866368101092	1
0	7642	1840.859671804857	0
0	7681	1851.895761844185	1
0	7688	1856.144092228298	0
0	7712	1859.919865902921	1
0	7717	1863.517935135767	0
0	7740	1871.087219960549	1
0	7742	1871.742085558973	2
0	7744	1872.035522316565	3
0	7745	1874.74312098148	2
0	7753	1876.772370472173	3
0	7755	1876.779687692852	4
0	7756	1877.030701287688	3
0	7761	1877.164761113009	2
0	7767	1877.424092621799	3
0	7770	1877.896548047748	4
0	7772	1879.10281591599	5
0	7773	1879.385545367796	4
0	7779	1879.975234889511	3
0	7784	1880.696843640869	2
0	7789	1882.704408833346	1
0	7797	1883.80530753043	2
0	7798	1884.06843884792	1
0	7803	1885.13954999584	0
0	7807	1885.339275064618	1
0	7810	1887.290740394369	0
0	7814	1887.494729311381	1
0	7818	1890.38244238488	2
0	7820	1890.461106275059	3
0	7823	1890.59386238908	2
0	7830	1891.954455869945	1
0	7836	1894.992825965665	0
0	7849	1895.938519309248	1
0	7851	1896.826202848267	2
0	7852	1897.138789933289	1
0	7857	1897.835617973073	0
0	7875	1900.13872689788	1
0	7885	1903.099292699699	2
0	7887	1904.791714362938	3
0	7888	1904.805913290716	2
0	7893	1905.305382393262	1
0	7899	1905.60654072256	2
0	7900	1905.710394612549	1
0	7906	1905.967396576047	0
0	7912	1906.674759770088	1
0	7913	1906.705372333452	0
0	7960	1915.440883263611	1
0	7964	1918.068625987291	0
0	7984	1921.998061141597	1
0	7985	1923.652965597509	0
0	7996	1927.365676084979	1
0	7998	1928.170852803143	2
0	8000	1928.908840082626	3
0	8001	1928.917691379709	2
0	8007	1929.671326306692	3
0	8008	1929.870580434672	2
0	8017	1932.804549886126	3
0	8019	1933.170450537696	4
0	8020	1933.492680800426	3
0	8025	1933.577885147717	2
0	8036	1934.292294363669	1
0	8041	1934.88696962657	0
0	8061	1938.657600406763	1
0	8062	1939.157459248228	0
0	8087	1946.003831018422	1
0	8091	1947.427010910775	2
0	8093	1947.782848793955	1
0	8098	1948.624055845639	0
0	8108	1949.303014587921	1
0	8112	1956.688187449655	2
0	8121	1959.010102764932	3
0	8123	1959.486350185424	2
0	8129	1961.551261801655	1
0	8134	1961.683252640217	0
0	8179	1973.055015430688	1
0	8181	1975.263524201389	2
0	8187	1978.997589399848	3
0	8188	1980.502967399109	2
0	8196	1980.900689644538	3
0	8197	1981.003617032064	2
0	8202	1982.531545676741	1
0	8209	1983.572673181464	2
0	8212	1983.779725292019	1
0	8217	1984.102410764701	0
0	8227	1985.477366883379	1
0	8230	1985.906760995101	0
0	8258	1989.837323208919	1
0	8259	1990.613781426038	0
0	8280	1993.951495025942	1
0	8282	1994.904288113736	2
0	8284	1995.454224168244	3
0	8286	1997.004227564795	4
0	8289	1997.952493839524	3
0	8294	1999.519243879808	2
0	8303	2002.126381920221	1
0	8309	2003.813062350855	0
0	8347	2015.142866003686	1
0	8350	2016.534404105082	2
0	8351	2016.892228450058	1
0	8356	2017.219423411877	0
0	8362	2017.227493467193	1
0	8364	2018.453909988218	2
0	8365	2018.613690053438	1
0	8371	2019.97826776774	0
0	8383	2023.456657010665	1
0	8384	2023.488232702206	0
0	8446	2043.875102766458	1
0	8447	2045.790107291651	0
0	8466	2047.890011423473	1
0	8467	2048.087811452637	0
0	8478	2049.853485485573	1
0	8482	2054.746912054406	0
0	8490	2055.74436011464	1
0	8491	2056.142416675865	0
0	8511	2062.0290581416	1
0	8514	2062.845336786854	0
0	8536	2065.812034604232	1
0	8537	2066.133192024104	0
0	8546	2067.579321206065	1
0	8547	2067.861707781179	0
0	8572	2078.881501264558	1
0	8573	2079.116118397177	0
0	8588	2080.448515973773	1
0	8589	2080.522097395439	0
0	8607	2082.561609995389	1
0	8609	2083.741572979591	0
0	8613	2084.126417610126	1
0	8616	2085.066936767296	0
0	8620	2085.105216428318	1
0	8626	2086.687234393026	0
0	8642	2089.220542353844	1
0	8645	2090.939572935659	0
0	8652	2091.673061697252	1
0	8655	2092.985287932752	0
0	8679	2096.709067069188	1
0	8680	2096.747495857834	0
0	8699	2101.934842964731	1
0	8703	2102.222091570624	2
0	8704	2102.610782846501	1
0	8710	2102.955030600026	2
0	8712	2104.766640710114	1
0	8718	2108.180479406741	0
0	8726	2108.955786369137	1
0	8728	2109.367239559329	2
0	8729	2109.60187816198	1
0	8735	2109.792118878348	2
0	8738	2110.775708208343	1
0	8744	2110.895049773353	2
0	8745	2111.035411479206	1
0	8751	2111.703952836587	0
0	8755	2113.411798342519	1
0	8759	2113.865565885655	2
0	8760	2114.345864222376	1
0	8765	2115.095241127845	0
0	8804	2123.745504269497	1
0	8807	2124.963837087167	2
0	8809	2125.760845321084	3
0	8810	2126.124385258178	2
0	8817	2126.878428812286	1
0	8825	2127.452756880114	2
0	8828	2128.129703995862	1
0	8835	2130.11543298202	0
0	8841	2130.123247545026	1
0	8842	2130.23260506982	0
0	8854	2132.704234424605	1
0	8857	2134.380418832611	0
0	8874	2135.482753179494	1
0	8876	2135.612787731587	0
0	8924	2145.516334608085	1
0	8927	2147.261907686322	0
0	8936	2148.537343799431	1
0	8938	2149.401469328795	2
0	8940	2149.531283307027	3
0	8942	2149.841409894996	4
0	8943	2151.470669820154	3
0	8948	2151.784491667132	2
0	8954	2152.310358623914	1
0	8960	2152.379910678741	2
0	8961	2152.792112556272	1
0	8967	2152.904322177254	2
0	8970	2154.069084792376	1
0	8975	2154.747979553415	0
0	8987	2157.166005881623	1
0	8990	2157.436284285395	0
0	9003	2158.931711608227	1
0	9004	2159.09172770616	0
0	9015	2159.614151945225	1
0	9020	2163.045658264999	0
0	9039	2164.679776809466	1
0	9044	2166.155108263746	0
0	9056	2168.181221615565	1
0	9058	2169.009856961475	0
0	9070	2171.352827112593	1
0	9071	2171.512256427891	0
0	9077	2171.727593623059	1
0	9078	2173.057443918358	0
0	9089	2174.333295011212	1
0	9090	2174.610885005102	0
0	9100	2178.538591384446	1
0	9104	2180.860007374598	0
0	9110	2180.903248951619	1
0	9112	2181.472179590473	2
0	9114	2182.145880676774	3
0	9115	2182.963860199666	2
0	9120	2183.81670627413	1
0	9125	2184.284857373212	0
0	9142	2189.236430827524	1
0	9144	2189.93616266364	2
0	9145	2190.46429242301	1
0	9151	2190.892611672663	2
0	9153	2191.883467255541	1
0	9160	2192.468833329863	0
0	9175	2195.541811982125	1
0	9176	2195.692535224013	0
0	9200	2202.078150364894	1
0	9201	2203.336296247179	0
0	9365	2247.819312877726	1
0	9369	2251.573303927204	0
0	9377	2252.687317341792	1
0	9378	2252.79935590887	0
0	9392	2254.801520377875	1
0	9395	2256.645706013692	0
0	9407	2257.091971334097	1
0	9408	2258.371524165566	0
0	9419	2258.739744357708	1
0	9422	2258.923805340467	2
0	9423	2260.452844206826	1
0	9428	2261.209437908985	0
0	9452	2264.03561720086	1
0	9453	2264.199975834222	0
0	9459	2264.295187181465	1
0	9461	2264.768891559461	2
0	9464	2265.112853009885	3
0	9467	2266.855835571097	2
0	9473	2267.481278481064	1
0	9478	2267.823204553377	0
0	9500	2272.562680798458	1
0	9505	2273.822161353275	0
0	9511	2274.741362863312	1
0	9513	2275.967501970664	0
0	9519	2276.159346005907	1
0	9522	2277.685535916992	2
0	9524	2278.439941324962	3
0	9525	2278.478694057503	2
0	9532	2279.287139628523	1
0	9537	2279.426225013981	0
0	9555	2281.725909639402	1
0	9562	2284.935513116801	0
0	9569	2285.978106916936	1
0	9572	2288.600581063377	2
0	9574	2289.379640634804	3
0	9575	2289.44869937368	2
0	9580	2290.468927400146	1
0	9586	2291.004305127615	2
0	9588	2291.058130399234	3
0	9589	2291.115424198516	2
0	9596	2292.294313313407	1
0	9601	2293.288565509543	0
0	9618	2297.624912118198	1
0	9619	2298.794297995282	0
0	9650	2304.989970172537	1
0	9656	2306.51601499692	2
0	9662	2308.031262111714	3
0	9663	2310.075129480327	2
0	9668	2310.580796214898	1
0	9675	2312.028591090086	0
0	9683	2314.669822880248	1
0	9685	2314.892301265514	2
0	9686	2315.793444557103	1
0	9692	2316.248537478738	0
0	9704	2316.84763234985	1
0	9705	2317.311983744339	0
0	9727	2320.822731840731	1
0	9731	2323.613913132329	0
0	9759	2331.487848428843	1
0	9762	2333.380478587169	0
0	9772	2335.543808571715	1
0	9777	2340.062507193391	2
0	9780	2340.258010118769	1
0	9787	2340.816549374447	2
0	9791	2341.601908726373	3
0	9792	2344.30654712173	2
0	9797	2344.824710052334	1
0	9806	2347.74784413605	0
0	9830	2352.42516579046	1
0	9833	2352.775808595655	0
0	9850	2355.953296588489	1
0	9852	2356.301726547719	2
0	9853	2356.614674606392	1
0	9862	2361.170607484113	0
0	9868	2361.205687959605	1
0	9869	2361.325080669102	0
0	9886	2364.663191157557	1
0	9889	2366.683935423874	2
0	9892	2368.271050548431	1
0	9898	2368.372971403102	2
0	9899	2368.458632431031	1
0	9905	2368.89596937748	2
0	9908	2370.058144142597	1
0	9914	2370.423262179422	2
0	9915	2370.465678435614	1
0	9921	2370.479605258847	2
0	9927	2371.498704211268	3
0	9928	2371.742239426732	2
0	9933	2371.743595394855	1
0	9940	2373.748148825785	2
0	9942	2374.540921999245	1
0	9947	2374.985000418932	0
0	9961	2377.040134637719	1
0	9966	2379.779853827516	2
0	9967	2380.322208513079	1
0	9973	2383.314887868113	2
0	9976	2384.101354380572	1
0	9982	2384.219090997872	2
0	9986	2385.661376103524	1
0	9994	2386.219576961961	2
0	9995	2386.733188861363	1
0	10000	2387.325472256027	0
0	10006	2387.967203408614	1
0	10009	2389.024025684159	0
0	10050	2403.018340136892	1
0	10053	2403.790940125659	0
0	10073	2407.424545565094	1
0	10079	2408.691191057839	0
0	10091	2409.458028525366	1
0	10092	2409.904528617913	0
0	10098	2409.922644497188	1
0	10100	2410.948531110128	0
0	10122	2418.476306139321	1
0	10124	2418.995238236915	0
0	10147	2424.374104979491	1
0	10150	2426.182818991492	0
0	10161	2427.377531169894	1
0	10166	2430.545980616064	0
0	10175	2432.819490659488	1
0	10176	2434.993870925511	0
0	10211	2440.653000605987	1
0	10212	2441.981260895317	0
0	10221	2442.172482728725	1
0	10223	2443.088902799722	2
0	10225	2444.724690148744	3
0	10229	2446.432929039276	2
0	10235	2446.445481408524	3
0	10236	2446.732404278744	2
0	10242	2446.916416414333	1
0	10247	2447.088551890466	0
0	10253	2449.321891722437	1
0	10254	2450.241024660842	0
0	10285	2455.350760506486	1
0	10287	2455.916225893994	2
0	10292	2457.566731384874	3
0	10298	2459.88567879552	4
0	10299	2459.923567454426	3
0	10305	2460.309705522206	4
0	10307	2460.655970898818	3
0	10312	2460.825679067918	2
0	10318	2462.210065930699	3
0	10321	2463.660580484195	2
0	10326	2464.102846953411	1
0	10331	2468.131970276595	0
0	10337	2468.957934592057	1
0	10338	2469.075974837613	0
0	10342	2469.557267489191	1
0	10347	2470.363116613575	0
0	10357	2472.787004815993	1
0	10358	2473.038949140171	0
0	10364	2473.238103669148	1
0	10365	2473.335911364749	0
0	10371	2473.399471763189	1
0	10377	2473.759683726007	0
0	10384	2474.237530060293	1
0	10386	2476.244792701497	2
0	10387	2476.305695444621	1
0	10393	2476.990344624523	0
0	10399	2477.082878300268	1
0	10400	2477.207236978273	0
0	10432	2481.796397007404	1
0	10433	2481.960296413324	0
0	10452	2490.252515431306	1
0	10456	2491.770731369773	2
0	10458	2492.482516920734	3
0	10463	2493.262747910788	2
0	10474	2497.397590060834	1
0	10480	2497.956173937366	2
0	10481	2498.217281705218	1
0	10487	2498.358342223273	2
0	10489	2499.863239929131	3
0	10492	2502.399343334024	2
0	10500	2505.034394037658	3
0	10501	2505.403498605663	2
0	10507	2505.663657365164	3
0	10508	2507.48054935505	2
0	10513	2507.680548084571	1
0	10523	2512.104313458182	2
0	10524	2512.855515058944	1
0	10530	2513.557294597536	0
0	10575	2523.810256640661	1
0	10580	2524.33462246703	0
0	10596	2530.79732442901	1
0	10597	2532.005914185616	0
0	10603	2532.414829539593	1
0	10604	2532.822430698079	0
0	10611	2533.451499207395	1
0	10612	2533.70845057622	0
0	10652	2543.213828260305	1
0	10655	2544.389801676885	0
0	10665	2545.493815341628	1
0	10670	2548.223759756838	0
0	10681	2549.342625000405	1
0	10685	2553.748079867177	0
0	10699	2555.417177987363	1
0	10701	2557.342540142176	0
0	10708	2558.172929924043	1
0	10710	2558.630456966312	0
0	10727	2560.030131565946	1
0	10728	2560.19983739148	0
0	10734	2560.204955505902	1
0	10736	2561.439795299331	0
0	10746	2564.198970702842	1
0	10748	2564.578078847564	2
0	10752	2565.273814868628	3
0	10754	2565.785615361947	4
0	10756	2565.940197625082	5
0	10757	2566.014409990305	4
0	10762	2566.415706319756	3
0	10769	2567.609951165888	4
0	10772	2569.981284443786	5
0	10773	2570.430039266827	4
0	10780	2572.390986459239	3
0	10785	2573.038005815439	2
0	10790	2573.302404746942	1
0	10795	2573.626648021425	0
0	10812	2575.422255441308	1
0	10813	2576.896403105614	0
0	10843	2586.070960531631	1
0	10844	2586.324818920094	0
0	10931	2612.441607642881	1
0	10932	2612.710978979733	0
0	10948	2618.779982224797	1
0	10950	2620.450440395293	0
0	10957	2620.749162668454	1
0	10958	2620.779113781713	0
0	10997	2626.986223458477	1
0	11000	2628.348899179236	2
0	11001	2628.794688460803	1
0	11008	2629.33537782128	0
0	11014	2629.531782513758	1
0	11017	2629.819696240845	0
0	11044	2634.448945474695	1
0	11045	2634.485823744817	0
0	11061	2638.937420002955	1
0	11062	2641.010126120843	0
0	11079	2644.477730949029	1
0	11080	2645.265789233622	0
0	11095	2649.029301536775	1
0	11096	2650.275533372042	0
0	11150	2668.185287110389	1
0	11151	2668.189714316879	0
0	11176	2673.054033003987	1
0	11178	2673.455289921938	2
0	11179	2673.90189002332	1
0	11186	2674.438438844171	2
0	11192	2675.932025466655	1
0	11198	2678.259953194592	0
0	11222	2685.415602966934	1
0	11223	2687.20500581577	0
0	11276	2699.176301864189	1
0	11280	2702.603540986281	2
0	11281	2703.687904171015	1
0	11289	2705.496753708264	0
0	11323	2708.981541452966	1
0	11324	2709.092620523203	0
0	11339	2712.126047250442	1
0	11340	2712.513946658057	0
0	11355	2714.976856083482	1
0	11356	2715.477523976138	0
0	11414	2732.935929121764	1
0	11418	2733.655518395412	2
0	11420	2734.483861369264	3
0	11421	2734.485884694791	2
0	11426	2735.033254057239	1
0	11434	2736.272947420922	2
0	11436	2736.628919267903	3
0	11440	2738.905985361765	4
0	11443	2740.433484517224	3
0	11450	2740.639670333824	4
0	11451	2741.48085396707	3
0	11456	2741.539902369925	2
0	11464	2742.72501148605	3
0	11465	2743.03566837587	2
0	11470	2743.417162828235	1
0	11476	2744.005002797798	2
0	11477	2744.805800337108	1
0	11483	2744.823431317874	2
0	11484	2744.915103524219	1
0	11489	2745.223609015467	0
0	11518	2749.156090026981	1
0	11520	2750.037914902398	2
0	11521	2751.310373592992	1
0	11525	2751.964083995088	2
0	11527	2752.712346659948	3
0	11534	2754.529367534496	2
0	11538	2754.551123073206	3
0	11547	2756.191809677512	2
0	11553	2756.214541873042	3
0	11554	2756.59740385079	2
0	11560	2756.882541682564	3
0	11562	2757.644606222952	2
0	11567	2758.888655600677	1
0	11571	2758.932961613202	2
0	11575	2760.622335237625	1
0	11581	2762.15543661725	0
0	11591	2764.115594081487	1
0	11592	2765.807330083495	0
0	11610	2767.286150427605	1
0	11611	2768.798422036046	0
0	11618	2771.030982284954	1
0	11620	2771.714800070056	2
0	11622	2772.104175846196	3
0	11626	2773.108841727948	4
0	11627	2774.053094179428	3
0	11635	2776.19690587646	2
0	11641	2777.125664260461	1
0	11646	2777.298654198826	0
0	11681	2784.400425440409	1
0	11682	2784.879795862539	0
0	11693	2787.330076989511	1
0	11695	2787.341057069056	2
0	11698	2788.741750149089	1
0	11705	2789.688456924991	0
0	11717	2790.56584294999	1
0	11722	2791.968954192307	0
0	11739	2795.150963387253	1
0	11740	2796.392221035143	0
0	11746	2797.174175889596	1
0	11748	2797.613358275825	0
0	11765	2801.240479892272	1
0	11766	2802.01899882442	0
0	11783	2809.346654077363	1
0	11785	2811.850607301374	2
0	11787	2814.154409173877	3
0	11789	2814.46113885551	4
0	11791	2815.942303564283	5
0	11793	2816.052797512322	6
0	11798	2817.803245496996	5
0	11806	2819.155825747613	4
0	11811	2819.702268044053	3
0	11817	2819.928434762601	4
0	11823	2821.603620307404	3
0	11830	2822.184353249531	4
0	11831	2823.582735645719	3
0	11838	2825.024722526395	2
0	11843	2825.083827601714	1
0	11852	2825.994214975894	2
0	11853	2825.994644560044	1
0	11858	2826.573369713273	0
0	11871	2827.655565529588	1
0	11872	2828.004259202335	0
0	11880	2828.600450256835	1
0	11881	2828.736608281428	0
0	11887	2830.499099233013	1
0	11891	2831.765495883092	0
0	11912	2835.899027207918	1
0	11918	2841.143011839931	0
0	11925	2841.752679465414	1
0	11928	2841.842403698346	0
0	11953	2845.545710157739	1
0	11954	2845.659471529545	0
0	11971	2848.540192323069	1
0	11972	2849.186536965279	0
0	12005	2857.214417069286	1
0	12011	2859.202476655043	2
0	12016	2861.325314784988	1
0	12022	2861.411211249529	2
0	12024	2862.258431606196	1
0	12029	2862.25897469003	0
0	12089	2875.626207291611	1
0	12090	2876.063925559422	0
0	12102	2879.293841954179	1
0	12103	2880.468538636527	0
0	12119	2882.340737772403	1
0	12123	2883.032074182709	2
0	12127	2884.499440540255	1
0	12133	2884.680598744885	0
0	12147	2887.261825231484	1
0	12152	2888.963559644618	2
0	12155	2890.678371130304	1
0	12163	2892.116894101002	0
0	12188	2899.858532221651	1
0	12189	2901.059956846124	0
0	12195	2901.326476060873	1
0	12197	2902.58557668349	0
0	12203	2902.751480094669	1
0	12205	2902.970505802181	0
0	12232	2911.21781519477	1
0	12236	2914.490003446644	2
0	12238	2915.048123933861	3
0	12240	2915.999165242436	4
0	12242	2916.293701928095	5
0	12243	2916.864480358167	4
0	12249	2917.198941377233	3
0	12255	2917.453300094922	4
0	12258	2918.33888644969	3
0	12269	2921.144509482081	4
0	12272	2921.875168765434	3
0	12277	2922.040296648257	2
0	12284	2923.047628540902	3
0	12285	2923.125807510619	2
0	12294	2925.278049488156	3
0	12295	2925.707156290495	2
0	12300	2925.946593157225	1
0	12306	2927.514698433084	2
0	12307	2928.85157993652	1
0	12314	2930.784791471178	2
0	12319	2933.220897767598	1
0	12324	2933.749104778331	0
0	12330	2933.755884683088	1
0	12331	2934.469705408625	0
0	12338	2936.23862075486	1
0	12339	2936.273253843302	0
0	12357	2942.986376526282	1
0	12359	2944.007989925489	0
0	12388	2948.647761451429	1
0	12392	2952.047140576635	0
0	12405	2953.522059518785	1
0	12407	2956.552752075383	0
0	12413	2957.167871391023	1
0	12414	2957.363047873246	0
0	12426	2959.062217279621	1
0	12427	2959.208849275395	0
0	12433	2960.196291213796	1
0	12435	2960.24363548408	2
0	12436	2962.6953439292	1
0	12441	2963.716603930721	0
0	12445	2964.175777495274	1
0	12450	2965.190404434333	0
0	12466	2966.807034792591	1
0	12469	2968.00214828903	0
0	12481	2968.878515643532	1
0	12485	2973.248648912251	2
0	12488	2974.040606594551	1
0	12494	2974.903368307122	2
0	12495	2974.90531642184	1
0	12501	2976.377921025612	0
0	12513	2977.50412134537	1
0	12514	2978.394089277249	0
0	12521	2979.465281860162	1
0	12522	2979.624133404031	0
0	12543	2982.439753953716	1
0	12548	2983.375136710367	2
0	12550	2983.519868491472	1
0	12556	2984.617934316882	2
0	12562	2985.746433703984	3
0	12564	2986.061440522924	4
0	12566	2986.169437342635	5
0	12568	2986.233231679825	6
0	12569	2986.272508086129	5
0	12574	2986.68852115106	4
0	12581	2987.049737294007	3
0	12588	2987.947579809612	2
0	12593	2988.365520128225	1
0	12598	2988.393973098963	0
0	12628	2995.392949528555	1
0	12629	2995.583889874644	0
0	12672	3003.618824869884	1
0	12673	3004.07732947438	0
0	12695	3014.903215871753	1
0	12697	3015.375026034858	0
0	12729	3022.710457234463	1
0	12732	3025.019246851347	2
0	12733	3025.06644189782	1
0	12738	3026.378783703552	0
0	12744	3026.597675891708	1
0	12746	3027.33822830173	0
0	12788	3042.651607891247	1
0	12789	3043.006738116616	0
0	12796	3043.870758555604	1
0	12797	3044.345467907165	0
0	12804	3045.283762693272	1
0	12806	3045.433077354394	2
0	12807	3047.303591605791	1
0	12813	3049.147015748916	0
0	12821	3049.753385272214	1
0	12822	3049.755851388056	0
0	12840	3051.674920735683	1
0	12841	3051.714030379711	0
0	12878	3063.57325964284	1
0	12879	3064.37387829571	0
0	12890	3066.759576586048	1
0	12892	3066.834187284347	2
0	12896	3068.012483824833	1
0	12901	3068.412804526047	0
0	12914	3070.172019049089	1
0	12920	3071.652004629877	0
0	12931	3074.684757603234	1
0	12934	3076.654919093148	2
0	12935	3076.680766639188	1
0	12941	3076.927309367156	0
0	12947	3078.043661424889	1
0	12950	3078.923511528023	2
0	12951	3079.535532227116	1
0	12957	3080.14013716201	2
0	12961	3080.610176704442	1
0	12966	3080.743838147823	0
0	12974	3081.828598839289	1
0	12975	3081.855853896964	0
0	12981	3082.79321079939	1
0	12985	3084.121815135338	0
0	13003	3087.584370439595	1
0	13007	3088.672518756696	2
0	13012	3091.474653691772	3
0	13013	3091.985456965967	2
0	13020	3092.875767892852	3
0	13021	3093.800031241583	2
0	13027	3093.900467603608	1
0	13033	3094.673164254508	0
0	13053	3097.980308605454	1
0	13057	3099.556361269617	2
0	13061	3100.320347864944	1
0	13067	3100.508936479422	2
0	13068	3100.94197233813	1
0	13076	3103.108100438898	0
0	13082	3103.214251138076	1
0	13083	3103.747154480994	0
0	13096	3105.138651017176	1
0	13097	3105.392546027166	0
0	13123	3108.990057698335	1
0	13125	3110.432706340001	0
0	13165	3123.022216863725	1
0	13171	3123.58688069128	2
0	13172	3124.312346344433	1
0	13178	3124.499086536157	2
0	13179	3124.539341060431	1
0	13184	3124.866740688527	0
0	13227	3131.942144821353	1
0	13229	3132.490932995843	0
0	13255	3137.889095116642	1
0	13256	3138.530386939159	0
0	13281	3142.911594511308	1
0	13282	3143.366112504019	0
0	13296	3144.825941828075	1
0	13297	3145.321007665757	0
0	13340	3158.019708205602	1
0	13345	3160.242671056613	0
0	13357	3160.529918592563	1
0	13359	3160.730548615998	2
0	13360	3161.012738343838	1
0	13365	3161.282848207264	0
0	13412	3173.464031763361	1
0	13413	3173.576788711872	0
0	13442	3176.537271544698	1
0	13444	3176.71724788156	2
0	13447	3178.455254766402	3
0	13449	3178.504715081075	4
0	13453	3178.951548481568	5
0	13455	3179.03748839831	6
0	13456	3180.909286612861	5
0	13461	3181.066489990689	4
0	13466	3181.114062433448	3
0	13479	3184.141918507461	4
0	13485	3185.880031448379	3
0	13490	3187.48294961043	2
0	13496	3188.403059054786	1
0	13501	3189.51485270707	0
0	13507	3189.741155914145	1
0	13508	3190.980038750885	0
0	13512	3191.561072670335	1
0	13518	3193.307242471127	2
0	13519	3193.646703338132	1
0	13525	3194.044804394405	2
0	13526	3194.408275504121	1
0	13531	3195.639553186979	0
0	13558	3203.883858712113	1
0	13562	3205.081424932051	2
0	13563	3205.569594190449	1
0	13568	3206.34798235844	0
0	13629	3218.346286996533	1
0	13632	3219.386246193314	2
0	13634	3222.842074219573	1
0	13641	3222.960997955437	2
0	13642	3223.65679011811	1
0	13650	3225.163266474811	0
0	13658	3225.641423535931	1
0	13659	3226.534016127999	0
0	13671	3229.745486090681	1
0	13673	3230.761103577705	0
0	13688	3232.966839089114	1
0	13690	3233.13213797956	2
0	13691	3234.889357448882	1
0	13696	3235.172843158495	0
0	13726	3239.526055528388	1
0	13727	3240.116510019475	0
0	13752	3246.973581989583	1
0	13753	3248.952773572019	0
0	13769	3254.414906590468	1
0	13770	3254.563344757248	0
0	13813	3262.147829600009	1
0	13814	3262.225652776258	0
0	13826	3263.746325425631	1
0	13828	3263.844270302381	2
0	13834	3270.315545242855	1
0	13839	3270.581521492441	0
0	13850	3271.197163003272	1
0	13854	3273.401043454047	0
0	13868	3276.356998810068	1
0	13870	3277.305995447154	2
0	13874	3278.148673682125	3
0	13875	3278.502160066703	2
0	13882	3279.108154579188	3
0	13884	3279.209172733352	4
0	13885	3279.732172797599	3
0	13891	3280.056321404877	4
0	13892	3281.462821039687	3
0	13897	3281.586889863742	2
0	13903	3281.606358026837	3
0	13913	3286.972770851417	4
0	13914	3288.298702929418	3
0	13923	3289.439378408515	4
0	13924	3289.491366484477	3
0	13930	3289.825402508364	4
0	13931	3290.160330562407	3
0	13940	3293.189873129802	2
0	13948	3293.753644137941	3
0	13949	3294.837990461831	2
0	13953	3294.838866723801	3
0	13955	3295.265753615135	4
0	13959	3296.475152513894	5
0	13960	3297.174214913419	4
0	13965	3297.568168390057	3
0	13969	3297.963843191852	4
0	13971	3299.117041760864	5
0	13973	3299.927034537512	6
0	13976	3301.412478672122	5
0	13980	3303.866912716804	6
0	13982	3303.906833367406	7
0	13988	3306.723206041574	8
0	13991	3308.324171063416	7
0	13996	3309.407595469675	6
0	14001	3311.173670673324	5
0	14006	3312.704123476134	4
0	14011	3316.265856329779	3
0	14016	3316.491489334232	2
0	14022	3317.834942086475	3
0	14027	3318.646207471799	2
0	14033	3323.427954004636	3
0	14037	3324.481249188146	4
0	14039	3325.681026470565	3
0	14044	3326.010772637571	2
0	14049	3327.075049151605	1
0	14056	3330.026645410324	0
0	14080	3334.162445741071	1
0	14082	3335.481016200281	0
0	14102	3341.55539682566	1
0	14103	3342.910670229419	0
0	14116	3345.184173318593	1
0	14117	3345.278341291644	0
0	14160	3355.760074831806	1
0	14164	3357.64822152297	2
0	14165	3357.908511259626	1
0	14170	3358.309835431886	0
0	14177	3359.356237910356	1
0	14179	3359.372277977097	2
0	14180	3359.583339256395	1
0	14187	3361.695781551468	0
0	14207	3365.215276829678	1
0	14209	3365.434385555619	2
0	14211	3365.971829665242	3
0	14212	3366.384781599712	2
0	14218	3368.076361408969	1
0	14223	3369.564932346998	0
0	14248	3374.815213990391	1
0	14253	3377.22181651583	0
0	14266	3378.645109281045	1
0	14268	3379.181005264817	2
0	14269	3379.45399017652	1
0	14274	3380.980522945706	0
0	14314	3395.128381034063	1
0	14316	3395.744283479395	2
0	14319	3396.974706119562	1
0	14325	3397.261646192804	0
0	14331	3397.370594921333	1
0	14334	3399.0616711474	2
0	14335	3399.124958729554	1
0	14340	3399.563053109598	0
0	14361	3403.02839808443	1
0	14363	3403.360295921527	0
0	14386	3409.714886951621	1
0	14391	3412.624658852438	2
0	14392	3413.928217185765	1
0	14401	3414.846180668741	2
0	14402	3415.066605186631	1
0	14408	3416.138376867883	0
0	14434	3423.543452804804	1
0	14436	3423.992958006888	2
0	14438	3426.110595391952	1
0	14443	3426.668276166624	0
0	14476	3434.561350422721	1
0	14480	3435.146014274949	2
0	14482	3436.362431914369	1
0	14487	3437.572670272251	0
0	14547	3455.824689446997	1
0	14548	3455.873178412791	0
0	14571	3461.644249417126	1
0	14573	3463.021125958361	0
0	14627	3477.056907328181	1
0	14631	3481.121769105324	0
0	14697	3493.260019264051	1
0	14698	3493.519577505933	0
0	14707	3494.676180210918	1
0	14708	3495.109381196719	0
0	14817	3528.243306995272	1
0	14818	3528.469172323362	0
0	14832	3532.045556597225	1
0	14837	3537.478602353314	0
0	14847	3540.455960740001	1
0	14850	3541.322655433114	0
0	14864	3545.131552132818	1
0	14868	3546.018899053633	2
0	14871	3548.297114144276	1
0	14880	3549.458682668646	2
0	14881	3549.770328442795	1
0	14886	3550.176571209416	0
0	14895	3551.566391185978	1
0	14898	3552.328344454063	0
0	14909	3558.079342904268	1
0	14911	3558.350526586463	2
0	14913	3558.893405740201	3
0	14917	3559.446198511262	4
0	14919	3559.64041298851	3
0	14927	3561.49152848302	2
0	14931	3562.34864105917	3
0	14933	3562.931238563681	4
0	14937	3566.249078528681	5
0	14945	3567.41327374756	4
0	14953	3568.620596146689	5
0	14960	3574.672615050616	4
0	14967	3576.513662296071	5
0	14970	3576.810707567355	4
0	14975	3578.010379449057	3
0	14980	3578.576182954524	2
0	14985	3578.677222146762	1
0	14993	3580.604571101443	2
0	14994	3581.088112781287	1
0	14998	3581.298430806717	2
0	15001	3582.1569471161	1
0	15008	3584.276203718652	0
0	15020	3588.309511530035	1
0	15021	3588.571937967644	0
0	15033	3590.503450554541	1
0	15036	3590.729097765749	0
0	15047	3593.544944353982	1
0	15048	3593.644148202065	0
0	15052	3593.892596229183	1
0	15055	3595.766525613393	0
0	15077	3599.763867562986	1
0	15078	3599.765637352803	0
0	15089	3601.15922542135	1
0	15091	3601.391284789891	2
0	15095	3602.00699397106	1
0	15100	3604.233618383038	0
0	15124	3610.686879943576	1
0	15126	3610.807774344317	2
0	15130	3613.345594387271	3
0	15132	3613.669036156705	4
0	15133	3613.949681776068	3
0	15139	3614.39387774181	4
0	15143	3616.106560249196	3
0	15148	3616.532740741909	2
0	15154	3616.595250972787	3
0	15155	3617.034818114183	2
0	15164	3618.505913157903	1
0	15170	3620.357580193064	0
0	15177	3620.687389639965	1
0	15178	3620.799078541152	0
0	15184	3621.134945205132	1
0	15186	3621.296969318829	2
0	15188	3621.924445747745	1
0	15195	3624.06613280501	0
0	15204	3625.812733774776	1
0	15206	3625.845279342613	2
0	15213	3628.304705676577	1
0	15219	3629.918907844091	0
0	15225	3630.01157923322	1
0	15226	3630.522981689465	0
0	15238	3632.827883028842	1
0	15241	3634.635760357194	0
0	15252	3634.721192806378	1
0	15256	3636.992687210436	0
0	15284	3641.09788043814	1
0	15287	3641.791473257872	0
0	15315	3647.342684258688	1
0	15317	3648.212966280708	2
0	15320	3649.66404982646	1
0	15327	3651.152581887242	0
0	15347	3655.237216998044	1
0	15348	3657.691829796256	0
0	15357	3658.050868450403	1
0	15358	3658.50627702827	0
0	15383	3664.801905463801	1
0	15385	3666.949023409299	2
0	15386	3667.248621889889	1
0	15392	3667.267139733369	2
0	15395	3669.016431863675	3
0	15397	3669.45322794569	2
0	15403	3670.847730511992	1
0	15409	3675.039692140486	0
0	15423	3680.365249921284	1
0	15425	3681.458493645846	2
0	15426	3682.200167842115	1
0	15431	3682.44136502212	0
0	15442	3685.983826575382	1
0	15443	3686.826545771806	0
0	15454	3688.253433755774	1
0	15457	3688.985621595244	0
0	15469	3691.963700391034	1
0	15473	3695.032258449187	0
0	15482	3696.146787349075	1
0	15491	3700.372841541906	0
0	15504	3702.598834710182	1
0	15505	3703.743609426837	0
0	15528	3710.007843986773	1
0	15530	3710.205231749152	2
0	15534	3712.143584752075	3
0	15535	3712.40722001668	2
0	15542	3712.873602028282	1
0	15549	3715.477150095939	0
0	15580	3717.568937958468	1
0	15584	3717.818480040304	0
0	15593	3718.352385575937	1
0	15597	3719.374673068492	2
0	15599	3719.447053262173	3
0	15601	3720.13525028009	2
0	15607	3720.482793454048	3
0	15609	3722.797467979621	2
0	15616	3724.232183031734	1
0	15623	3724.45438210479	2
0	15624	3724.84193438271	1
0	15632	3726.987770536694	0
0	15661	3732.066270417941	1
0	15662	3732.626411583487	0
0	15677	3735.337120886476	1
0	15680	3737.065892608903	0
0	15689	3737.430060943871	1
0	15691	3737.643207917354	2
0	15695	3738.240668042276	3
0	15697	3739.043901563595	2
0	15705	3739.951247530136	1
0	15711	3741.241974998049	0
0	15731	3744.415832879423	1
0	15734	3745.371616719771	0
0	15741	3746.852253593589	1
0	15743	3746.968044805113	2
0	15745	3751.853945551385	3
0	15746	3751.886359341491	2
0	15753	3752.726014161446	1
0	15759	3753.11414713159	2
0	15761	3753.368758874524	3
0	15764	3754.737530153857	2
0	15769	3754.833246803812	1
0	15775	3755.274711148234	2
0	15776	3755.544898734313	1
0	15782	3756.834355740626	2
0	15783	3758.177434546725	1
0	15788	3758.659038374005	0
0	15806	3761.227164899684	1
0	15810	3761.432849082721	2
0	15812	3762.179657793935	1
0	15818	3763.106119280508	0
0	15853	3771.214798843474	1
0	15855	3771.527365729861	0
0	15872	3774.104780970431	1
0	15873	3774.206327462716	0
0	15882	3775.132918295356	1
0	15885	3775.211480044101	0
0	15907	3778.35067693906	1
0	15910	3779.028838708565	0
0	15917	3781.659761862624	1
0	15918	3782.008434079965	0
0	15924	3782.641748822257	1
0	15927	3783.28360911432	0
0	15938	3785.751117016773	1
0	15939	3785.769768128627	0
0	15945	3786.70327288348	1
0	15949	3787.427924704239	2
0	15951	3788.87314443085	3
0	15953	3789.437403812902	2
0	15958	3790.355714755308	1
0	15969	3794.222891034223	2
0	15970	3794.560815004882	1
0	15977	3795.581787870901	2
0	15978	3795.793499030284	1
0	15983	3795.833061034162	0
0	16016	3806.421974094769	1
0	16019	3807.199496991324	0
0	16137	3829.859017365383	1
0	16139	3830.03140506437	2
0	16141	3830.141008300278	3
0	16144	3831.199448171248	2
0	16151	3832.48144973055	1
0	16156	3833.528282473111	0
0	16162	3833.680355880629	1
0	16163	3834.322281130178	0
0	16235	3863.449193736108	1
0	16237	3863.580405682301	0
0	16303	3893.185303084939	1
0	16307	3894.121402254912	2
0	16309	3894.257777444374	3
0	16311	3895.214263483805	4
0	16312	3895.998906552064	3
0	16318	3896.08899972912	4
0	16319	3896.428102308463	3
0	16326	3899.500750343681	2
0	16332	3900.233687623951	3
0	16333	3900.263851196936	2
0	16340	3901.378527022725	1
0	16348	3902.285201445157	2
0	16349	3902.68558409096	1
0	16356	3903.724139684836	0
0	16362	3904.157497083939	1
0	16364	3904.165848254633	2
0	16365	3904.347293849919	1
0	16373	3905.824399533764	2
0	16375	3906.807219585341	1
0	16382	3907.947301722103	0
0	16410	3912.463462750509	1
0	16411	3913.384588540236	0
0	16417	3913.632304455464	1
0	16423	3915.297527221035	0
0	16444	3919.354213821863	1
0	16445	3919.729865520803	0
0	16472	3928.934575861621	1
0	16473	3928.936429481942	0
0	16544	3944.898579816467	1
0	16547	3946.033790084574	0
0	16586	3952.956328005296	1
0	16588	3953.741498942155	2
0	16590	3954.295014002746	3
0	16591	3954.353434995003	2
0	16597	3955.405980894152	1
0	16606	3957.600816476078	0
0	16612	3957.784359907888	1
0	16613	3957.838139044915	0
0	16634	3965.07674355457	1
0	16639	3966.887615054556	2
0	16640	3969.36310586172	1
0	16646	3969.676614266832	0
0	16681	3976.982468292668	1
0	16682	3978.560237097946	0
0	16694	3983.479676007682	1
0	16696	3985.000538661507	2
0	16698	3985.356582213703	3
0	16699	3985.818433620187	2
0	16704	3987.281207328732	1
0	16709	3987.990444982537	0
0	16751	4004.183449680923	1
0	16756	4008.452996661702	2
0	16757	4009.3893481951	1
0	16764	4009.712039169574	2
0	16765	4010.538014196615	1
0	16770	4010.612516547951	0
0	16776	4010.73161963734	1
0	16778	4011.177174142707	0
0	16805	4024.261566382023	1
0	16807	4024.406488148675	2
0	16808	4025.462414808285	1
0	16814	4025.835934590407	2
0	16816	4026.152440721996	3
0	16818	4026.275857942724	4
0	16821	4027.273449919888	5
0	16822	4027.549073755043	4
0	16829	4029.906308582656	3
0	16835	4030.062657452244	4
0	16836	4030.075549068391	3
0	16841	4030.084924671123	2
0	16849	4031.556698387939	1
0	16854	4031.821493641713	0
0	16872	4036.998236704128	1
0	16874	4037.536412304776	2
0	16876	4037.678718933727	3
0	16878	4038.417202815023	4
0	16880	4039.164443708731	5
0	16882	4039.361157143112	6
0	16883	4039.559429071683	5
0	16895	4044.426866274586	4
0	16904	4050.699122109723	5
0	16905	4050.783921291412	4
0	16910	4051.355937571242	3
0	16917	4054.635864703416	4
0	16918	4055.076444748163	3
0	16923	4055.169035857382	2
0	16928	4055.823024505824	1
0	16932	4056.548152521629	2
0	16935	4057.858599417532	1
0	16942	4059.268817547682	2
0	16945	4060.569754734468	1
0	16950	4061.006229482996	0
0	16984	4067.232386493627	1
0	16986	4067.478430871358	2
0	16989	4069.37251276037	3
0	16990	4071.091170397781	2
0	16996	4071.293654738562	3
0	16998	4073.246221750523	2
0	17006	4073.735460565825	3
0	17008	4073.901365591314	4
0	17011	4075.276901025223	3
0	17017	4075.731957437677	2
0	17022	4075.737705305464	1
0	17027	4076.31467122447	0
0	17045	4080.40894379252	1
0	17046	4081.149230153551	0
0	17089	4099.963650110557	1
0	17090	4100.035446834001	0
0	17112	4107.710000613869	1
0	17113	4107.724320327779	0
0	17117	4108.323692372708	1
0	17121	4109.056165756737	0
0	17127	4109.076824353933	1
0	17130	4109.51226675086	2
0	17131	4110.169983954447	1
0	17138	4111.268173098626	0
0	17155	4114.093628717396	1
0	17158	4114.616756039282	2
0	17160	4114.783965052559	3
0	17161	4114.962420966688	2
0	17167	4115.088095777444	3
0	17168	4115.39964533711	2
0	17177	4116.172788105221	1
0	17182	4117.068920139853	0
0	17202	4119.669049008105	1
0	17203	4119.713831767171	0
0	17214	4120.996151415545	1
0	17216	4121.079937074283	2
0	17219	4123.480862892442	1
0	17225	4125.304218182225	0
0	17282	4137.990482272769	1
0	17284	4138.460027655291	2
0	17287	4140.372151560654	1
0	17292	4140.750184506665	0
0	17316	4145.081154768873	1
0	17317	4145.222116706609	0
0	17357	4163.745563373025	1
0	17360	4165.453694368949	2
0	17362	4165.912275607231	3
0	17363	4166.08285273014	2
0	17371	4166.997499358355	1
0	17380	4168.641379712351	2
0	17381	4169.486758748825	1
0	17388	4171.559542080206	0
0	17412	4175.744412047192	1
0	17413	4176.237212642377	0
0	17464	4183.958221333791	1
0	17466	4184.808002476104	2
0	17467	4185.232291412882	1
0	17473	4186.888466167003	0
0	17484	4188.69912207455	1
0	17488	4188.752672417479	2
0	17491	4189.413880762848	1
0	17496	4190.442552402528	0
0	17506	4195.085146522082	1
0	17512	4197.92415759624	0
0	17526	4198.92758211805	1
0	17527	4199.221572905409	0
0	17559	4210.334645938944	1
0	17561	4211.716367274539	2
0	17563	4211.803715619234	3
0	17566	4212.387948819159	2
0	17572	4212.842717564822	1
0	17578	4212.853574962516	2
0	17581	4216.471523799147	3
0	17582	4216.696184106214	2
0	17587	4216.87410308981	1
0	17592	4216.906475667659	0
0	17618	4219.772420930782	1
0	17622	4220.460045186841	0
0	17747	4259.190172119233	1
0	17748	4259.355592977918	0
0	17755	4263.199898851415	1
0	17762	4265.317531430331	0
0	17774	4266.48761090499	1
0	17776	4267.326342379788	2
0	17778	4268.758647945865	1
0	17783	4268.838574964587	0
0	17809	4271.308555636676	1
0	17811	4272.444627183719	2
0	17814	4274.471063236601	1
0	17819	4275.423300567415	0
0	17832	4276.684403822668	1
0	17835	4277.773464810504	0
0	17850	4282.334217366718	1
0	17852	4283.09259161924	2
0	17854	4284.730298794743	3
0	17860	4291.239775936594	4
0	17861	4291.776010489017	3
0	17867	4292.096318249786	2
0	17872	4292.543820118237	1
0	17878	4293.797466507438	2
0	17881	4294.348726187906	3
0	17883	4296.390723711259	2
0	17889	4296.83017858522	1
0	17901	4299.704042084762	0
0	17931	4312.121627016031	1
0	17932	4313.522960871139	0
0	17943	4315.02247661001	1
0	17945	4315.097563033893	2
0	17953	4316.258343611616	1
0	17958	4316.505977703544	0
0	17964	4316.630970373901	1
0	17966	4317.035810986795	0
0	18001	4327.459633340616	1
0	18006	4330.009803536097	2
0	18009	4330.740392914954	1
0	18017	4331.61110370159	0
0	18030	4332.664658656712	1
0	18031	4333.129309269195	0
0	18052	4340.552314700914	1
0	18055	4341.891027945443	0
0	18073	4346.18195454863	1
0	18074	4346.922899776357	0
0	18092	4349.828159013367	1
0	18094	4351.170630858092	2
0	18098	4352.202520494901	1
0	18103	4352.897208559589	0
0	18109	4353.195968079231	1
0	18110	4353.477522944895	0
0	18158	4367.549406491909	1
0	18160	4368.025551177347	2
0	18164	4369.228135816929	3
0	18170	4370.755560156661	2
0	18176	4371.270282385983	1
0	18184	4374.604213717907	0
0	18197	4374.940857898216	1
0	18200	4376.738258394844	0
0	18227	4381.857061276213	1
0	18228	4382.760143550752	0
0	18240	4385.903229564827	1
0	18244	4386.393779823833	2
0	18246	4387.82881422869	3
0	18248	4388.356904244338	4
0	18250	4388.41474613437	5
0	18251	4388.971491339035	4
0	18256	4389.008768928487	3
0	18262	4389.915989155944	2
0	18269	4390.746291826164	1
0	18275	4391.811891933655	0
0	18305	4401.845184784628	1
0	18307	4402.709690999782	0
0	18322	4403.367461073096	1
0	18323	4403.888195677253	0
0	18345	4406.571913930082	1
0	18346	4406.921985213133	0
0	18438	4432.271064097571	1
0	18441	4436.236854327801	2
0	18444	4438.917906267454	1
0	18449	4439.192506193991	0
0	18481	4445.216869539459	1
0	18482	4445.284241566103	0
0	18491	4447.213125457048	1
0	18499	4453.034698209375	0
0	18516	4456.174609493024	1
0	18521	4458.405985194033	0
0	18527	4458.452209903396	1
0	18528	4460.90567949921	0
0	18535	4462.31265551447	1
0	18537	4462.933879896432	0
0	18551	4464.377180136606	1
0	18553	4467.874855918839	2
0	18556	4468.166758733198	1
0	18563	4468.989839997314	2
0	18565	4469.143506368062	3
0	18568	4470.395845288334	2
0	18574	4470.456408552375	3
0	18575	4470.828420325805	2
0	18584	4471.707765458586	1
0	18591	4473.553634348772	0
0	18603	4475.845646762189	1
0	18605	4476.51200165866	2
0	18607	4477.314789306327	3
0	18609	4478.743480901369	2
0	18615	4479.566565073462	1
0	18620	4479.615583593939	0
0	18653	4486.773646638276	1
0	18654	4486.981897368289	0
0	18712	4505.249912214136	1
0	18718	4508.596830188082	2
0	18719	4510.51911213512	1
0	18724	4510.97442294787	0
0	18735	4513.601784351205	1
0	18738	4514.021530127741	2
0	18740	4514.217312065344	1
0	18746	4514.250104499586	2
0	18747	4514.42140950769	1
0	18752	4515.094159723962	0
0	18778	4518.27430776058	1
0	18780	4519.336892817155	0
0	18802	4525.286059600721	1
0	18803	4525.48477392912	0
0	18826	4527.699114087836	1
0	18827	4528.909725505808	0
0	18842	4532.34924060779	1
0	18844	4532.663328032122	2
0	18847	4533.132209216892	1
0	18852	4533.40356583118	0
0	18900	4542.279280377783	1
0	18902	4543.441963273823	0
0	18908	4544.50916626616	1
0	18910	4546.154194491301	0
0	18970	4567.162206487395	1
0	18972	4567.483263454105	2
0	18976	4568.918041908421	3
0	18977	4568.983386252977	2
0	18984	4571.748427828131	1
0	18989	4571.776293464091	0
0	19050	4587.411067700329	1
0	19053	4587.593060747371	2
0	19054	4588.659601546594	1
0	19059	4588.86454174684	0
0	19130	4613.526728206557	1
0	19131	4613.58328335099	0
0	19160	4620.025354686154	1
0	19163	4620.228393603301	0
0	19193	4626.04342860195	1
0	19194	4627.433498140626	0
0	19259	4659.374545624208	1
0	19266	4662.776359528952	0
0	19279	4664.968643000141	1
0	19283	4665.350039989954	2
0	19287	4668.408205024392	1
0	19292	4668.512209016324	0
0	19313	4673.801624105236	1
0	19315	4674.180129017209	2
0	19316	4674.429268341267	1
0	19323	4675.669147521334	0
0	19337	4676.767004025495	1
0	19339	4676.969012277946	0
0	19348	4678.060095601645	1
0	19349	4678.190698344173	0
0	19369	4680.258574102361	1
0	19372	4681.815202237663	0
0	19379	4683.632310693651	1
0	19381	4684.217033505944	2
0	19382	4684.336484170064	1
0	19388	4684.540091780961	0
0	19394	4685.068979275832	1
0	19395	4685.992288480105	0
0	19421	4690.497142086829	1
0	19428	4694.275401037788	0
0	19435	4694.923607553815	1
0	19439	4698.486509851179	2
0	19440	4698.688572698331	1
0	19451	4700.64596073449	2
0	19452	4702.961373968026	1
0	19457	4703.32468415041	0
0	19497	4710.457821693496	1
0	19501	4710.898119949191	2
0	19502	4711.548275175145	1
0	19507	4712.043089439958	0
0	19522	4714.744636010415	1
0	19525	4715.505132174244	0
0	19531	4715.576877930655	1
0	19534	4717.69225920718	0
0	19541	4718.68526977052	1
0	19543	4719.506857327845	2
0	19551	4722.97357571987	1
0	19557	4724.881516731584	2
0	19564	4726.56349018956	3
0	19565	4726.768036705161	2
0	19571	4727.528270848883	1
0	19579	4728.412221991879	0
0	19585	4728.483297454901	1
0	19587	4729.149749594163	2
0	19588	4730.014258438271	1
0	19594	4730.283835755806	2
0	19595	4730.44495587595	1
0	19600	4730.841300991478	0
0	19624	4736.496506290103	1
0	19626	4737.019552598678	2
0	19628	4737.360432981501	3
0	19631	4738.298600467146	2
0	19637	4738.524432149026	1
0	19644	4740.723986541055	2
0	19646	4740.908545100558	3
0	19647	4741.215349895511	2
0	19652	4741.987418940346	1
0	19657	4742.170656622089	0
0	19666	4743.1789697893	1
0	19667	4743.217650903776	0
0	19677	4743.734264549476	1
0	19681	4746.437351523679	2
0	19684	4747.861864171496	1
0	19691	4748.434078344827	0
0	19713	4753.761633155686	1
0	19714	4753.909905733412	0
0	19727	4755.158360716793	1
0	19728	4756.077779097133	0
0	19747	4757.697167843594	1
0	19750	4758.774293343437	0
0	19759	4760.229689255394	1
0	19765	4761.617728878095	0
0	19802	4770.494080494737	1
0	19803	4771.950679515665	0
0	19820	4773.459611890896	1
0	19822	4773.461505564318	2
0	19826	4774.930118929213	3
0	19827	4775.053217510474	2
0	19832	4775.323814833158	1
0	19840	4776.972626712047	0
0	19847	4777.511639998721	1
0	19849	4778.697807923349	0
0	19856	4779.012586616646	1
0	19859	4779.851347156331	2
0	19860	4779.953025162315	1
0	19865	4780.956203754898	0
0	19884	4782.849318970755	1
0	19885	4784.431103993762	0
0	19900	4786.076792535341	1
0	19902	4786.88944885208	0
0	19926	4790.501088146265	1
0	19928	4790.503517497591	2
0	19931	4792.556299473489	1
0	19937	4794.250512071032	0
0	19988	4812.898418376919	1
0	19992	4814.260690328473	2
0	19994	4814.637097437516	3
0	19999	4815.943648197818	2
0	20004	4816.068507101282	1
0	20009	4816.835808404193	0
0	20042	4828.134143642478	1
0	20047	4829.5414454408	2
0	20050	4830.18563202769	1
0	20055	4830.875896547564	0
0	20061	4831.501874460944	1
0	20063	4831.822137388848	2
0	20065	4832.826731232483	1
0	20070	4833.121980507499	0
0	20074	4835.347666363908	1
0	20079	4836.759110944357	0
0	20090	4837.022434797263	1
0	20093	4838.278235971858	0
0	20130	4846.57018667561	1
0	20132	4847.527956114238	2
0	20133	4848.182727752054	1
0	20139	4849.200859592563	2
0	20141	4851.646465062153	1
0	20147	4851.814000993653	2
0	20149	4852.376832642422	1
0	20159	4853.469013932518	0
0	20165	4854.190389274588	1
0	20166	4854.267197702981	0
0	20172	4854.301289267201	1
0	20179	4855.934954088493	2
0	20181	4856.750472782993	3
0	20182	4857.637629528026	2
0	20187	4857.642782688445	1
0	20194	4858.949928715433	0
0	20205	4861.1666253888	1
0	20207	4861.782704008875	0
0	20214	4862.566789269315	1
0	20215	4862.989492080065	0
0	20230	4865.238258722552	1
0	20231	4865.824588087993	0
0	20243	4869.714793326518	1
0	20244	4869.76998477389	0
0	20250	4870.033830747051	1
0	20251	4870.103482442866	0
0	20267	4874.819605954759	1
0	20273	4879.710466908966	2
0	20274	4880.862233589987	1
0	20279	4880.926601149151	0
0	20293	4883.255686551503	1
0	20295	4884.671786868791	0
0	20304	4885.798456466386	1
0	20308	4886.420149915882	0
0	20322	4894.040280415219	1
0	20324	4894.859151729499	2
0	20328	4895.341843953669	3
0	20331	4896.28933732491	2
0	20337	4897.017383155465	3
0	20339	4897.391424814235	2
0	20347	4898.613373707814	3
0	20348	4900.277285613881	2
0	20353	4900.948297402617	1
0	20358	4901.643161553124	0
0	20364	4901.698372973912	1
0	20365	4902.830276936551	0
0	20383	4906.249959813234	1
0	20389	4908.967233183341	0
0	20398	4910.012110899006	1
0	20404	4912.500737305742	2
0	20406	4914.114824698766	1
0	20411	4914.123632511511	0
0	20419	4915.188120607365	1
0	20420	4916.640972281971	0
0	20428	4918.078235815003	1
0	20431	4918.471964786049	2
0	20434	4919.085568577841	1
0	20439	4921.37542941001	0
0	20462	4927.315784787695	1
0	20463	4927.357695827971	0
0	20470	4928.054486794573	1
0	20472	4928.931208311827	0
0	20483	4929.292517553085	1
0	20486	4929.749335066189	0
0	20495	4930.685644835304	1
0	20499	4932.686058630258	2
0	20501	4932.805433535693	3
0	20506	4935.569986023817	4
0	20511	4936.728099174201	5
0	20513	4937.195400232721	6
0	20515	4940.018929502361	5
0	20520	4940.189990737844	4
0	20527	4941.563572567255	3
0	20533	4943.040977638479	4
0	20536	4945.602826809327	3
0	20542	4946.320306171208	2
0	20548	4946.901409399161	1
0	20555	4949.429739316033	2
0	20556	4949.643905575599	1
0	20561	4950.779701033271	0
0	20589	4957.292225362445	1
0	20591	4958.763601714855	2
0	20595	4962.744265898374	3
0	20596	4962.872568677724	2
0	20602	4963.067850686888	1
0	20610	4964.981614114744	0
0	20617	4965.296632447502	1
0	20621	4965.411072066302	2
0	20624	4966.014597480376	1
0	20630	4966.52833207017	0
0	20636	4966.940978770867	1
0	20637	4967.026227289624	0
0	20652	4973.419838987185	1
0	20656	4975.765146593026	0
0	20665	4980.672388797848	1
0	20666	4983.241760454909	0
0	20672	4983.312808839961	1
0	20673	4984.029596375119	0
0	20681	4985.307483389118	1
0	20683	4985.710367731568	0
0	20704	4990.176187964915	1
0	20709	4994.161444631287	0
0	20715	4994.6824375665	1
0	20717	4995.524253694838	2
0	20719	4996.416616884307	1
0	20726	4997.096425016862	0
0	20730	4997.584339942779	1
0	20732	4999.112751747555	2
0	20736	4999.435112676576	3
0	20738	4999.840947974378	2
0	20744	5001.496340546738	3
0	20746	5001.741520751756	4
0	20753	5004.825948553389	3
0	20758	5004.898794018837	2
0	20766	5005.470595493392	3
0	20767	5005.650745948015	2
0	20773	5006.760001196199	1
0	20778	5007.212093937941	0
0	20791	5011.094822919021	1
0	20792	5011.217702256626	0
0	20863	5029.011213058337	1
0	20865	5030.017560800099	2
0	20868	5030.13292412052	3
0	20869	5030.410691889208	2
0	20877	5032.665474010079	1
0	20882	5032.676466669934	0
0	20903	5036.935369808135	1
0	20905	5037.279094037951	2
0	20907	5038.220032818144	3
0	20908	5039.266568604179	2
0	20913	5039.999071530199	1
0	20919	5041.664458754708	0
0	20959	5046.03973310759	1
0	20960	5046.305113459655	0
0	21002	5053.74539835322	1
0	21006	5055.155746176508	0
0	21013	5055.49339360281	1
0	21016	5057.074517410807	0
0	21068	5070.106575802228	1
0	21069	5070.355817026209	0
0	21095	5079.578345017189	1
0	21097	5080.721201392939	2
0	21100	5082.694509671476	1
0	21105	5083.001514723759	0
0	21113	5084.933325165471	1
0	21115	5085.750365772375	2
0	21116	5087.043802298204	1
0	21121	5087.743891157918	0
0	21142	5093.7921963831	1
0	21143	5093.808557461121	0
0	21197	5114.174815703572	1
0	21200	5115.378719421321	0
0	21211	5117.435072466059	1
0	21212	5117.728429073136	0
0	21226	5120.180967262607	1
0	21228	5121.242259621499	2
0	21230	5121.331513818376	3
0	21234	5121.953681686063	4
0	21239	5122.897535885912	5
0	21241	5123.132560145909	6
0	21244	5123.810221710198	7
0	21246	5124.384012951436	8
0	21247	5124.936292895403	7
0	21253	5125.233175518525	6
0	21262	5126.599797837547	5
0	21267	5126.788121580115	4
0	21272	5127.199581710828	3
0	21279	5128.29573109219	2
0	21284	5128.861155545708	1
0	21289	5129.160992239015	0
0	21298	5131.79865573162	1
0	21299	5131.890065797221	0
0	21313	5134.550970691337	1
0	21315	5135.954788264951	0
0	21321	5136.204441603384	1
0	21324	5136.616369118829	2
0	21325	5136.75743189446	1
0	21332	5139.902268945691	0
0	21336	5140.931156594412	1
0	21338	5142.811978580213	2
0	21340	5143.859981101636	3
0	21343	5144.600955382093	2
0	21350	5147.484252486426	1
0	21355	5148.040925019758	0
0	21359	5148.432881912895	1
0	21365	5149.330538218319	2
0	21367	5150.678278185348	1
0	21373	5151.535129319944	2
0	21375	5151.898651077476	3
0	21376	5153.908390493256	2
0	21382	5154.867775751848	1
0	21387	5155.099544493714	0
0	21411	5157.166824886718	1
0	21414	5158.286408016524	0
0	21418	5159.571791330885	1
0	21426	5163.026663758624	2
0	21428	5164.645700596234	1
0	21434	5164.719542842139	0
0	21438	5164.765884505097	1
0	21443	5169.061832743788	0
0	21451	5170.59951797992	1
0	21452	5170.767230229966	0
0	21459	5173.216844071291	1
0	21461	5174.155199906577	0
0	21467	5174.603620150723	1
0	21468	5175.552256625385	0
0	21482	5177.243123222709	1
0	21483	5177.857148974272	0
0	21496	5179.850006436472	1
0	21499	5180.382855020635	0
0	21534	5189.616749514552	1
0	21536	5189.970337726024	0
0	21546	5191.394229411871	1
0	21548	5191.507854783625	2
0	21549	5191.966222228294	1
0	21555	5192.754310864483	0
0	21562	5193.860498648327	1
0	21564	5194.11091732937	2
0	21568	5195.888102728416	3
0	21569	5196.236934256943	2
0	21574	5196.357001995667	1
0	21579	5196.83496178753	0
0	21612	5200.448562222101	1
0	21614	5201.105169083524	0
0	21647	5206.987435470751	1
0	21648	5207.112983637402	0
0	21659	5210.414274676174	1
0	21661	5211.04999971242	2
0	21665	5212.74414288794	1
0	21671	5214.919400523667	0
0	21689	5216.227304402882	1
0	21692	5217.977948491213	2
0	21693	5218.253096407186	1
0	21698	5218.847891620159	0
0	21722	5222.722826509034	1
0	21724	5222.895052176679	2
0	21725	5223.129059790548	1
0	21733	5225.23425557417	0
0	21741	5227.859127843514	1
0	21742	5228.986014917833	0
0	21764	5233.77302665052	1
0	21766	5234.563863136718	2
0	21775	5239.272593377441	3
0	21776	5240.588787430191	2
0	21782	5241.933835033945	1
0	21787	5242.565386714219	0
0	21840	5257.691598211557	1
0	21841	5257.879414780777	0
0	21847	5258.065340194855	1
0	21849	5259.462353354314	0
0	21855	5259.889567797435	1
0	21857	5260.335128576531	2
0	21861	5261.072103006013	1
0	21866	5261.443523249484	0
0	21882	5264.063497094713	1
0	21885	5265.476660965007	2
0	21886	5266.100680724995	1
0	21892	5266.974430559459	0
0	21910	5272.077117581458	1
0	21913	5273.159307177574	0
0	21974	5288.810572589233	1
0	21975	5288.930703193859	0
0	22022	5295.585157766769	1
0	22026	5297.52691594802	2
0	22027	5297.800971209957	1
0	22034	5298.924746548299	0
0	22040	5299.25286143232	1
0	22043	5299.777419590696	0
0	22061	5305.080200879598	1
0	22063	5305.175229440136	2
[...]
4	116004	27710.941385801228	51.583143081868
4	116011	27712.156842166672	52.61973343136
4	116048	27719.437620552494	58.081733084944
4	116057	27722.134931712533	58.33522830401
4	116069	27729.260652516626	63.633806208467
4	116076	27733.029128503105	60.971888255975
4	116089	27734.329143487476	58.024677082811
4	116110	27738.633123048847	54.537639589053
4	116120	27742.281597629502	49.961346781252
4	116141	27746.285694899098	51.974562276464
4	116152	27746.82103550074	41.140521618161
4	116159	27747.692697646997	40.274868218881
4	116218	27757.351319678376	40.550194343493
4	116228	27760.656444859928	40.932956207915
4	116261	27767.186146745584	32.536524369515
4	116283	27769.419290199008	27.80926535017
4	116288	27769.684699405889	26.560711723291
4	116298	27770.854678963128	26.332792295711
4	116303	27771.707286551867	25.734992253509
4	116313	27775.318575648471	25.384038610023
4	116324	27777.054177500059	24.637301497872
4	116330	27780.314454303188	26.147377398715
4	116337	27780.636206598985	24.252455039406
4	116381	27789.833950719648	32.687832925383
4	116391	27792.688280680588	29.734870621379
4	116409	27798.051265098969	30.533821221961
4	116437	27800.998994208752	30.911988646709
4	116449	27802.359890962851	31.986077058438
4	116462	27804.74986956873	31.845971094759
4	116486	27807.801536598074	19.662533382122
4	116507	27810.88464794492	18.088995568171
4	116537	27814.646472965215	17.455735766506
4	116546	27821.267182535263	17.960284341104
4	116551	27822.100109170521	18.585506799307
4	116558	27824.097481144715	17.953790512683
4	116572	27825.876137223609	16.780314211265
4	116593	27828.621444493471	15.880814013474
4	116599	27829.788210723332	9.122744139373
4	116606	27831.442882263344	5.796288841505
4	116626	27834.700715899703	8.736047306794
4	116631	27837.576488824756	5.715741259934
4	116648	27846.508857051867	0.961496310536
4	116660	27853.370736546934	2.061804071262
4	116716	27867.923700928146	9.139723939082
4	116723	27871.902575745542	7.576372462036
4	116744	27876.732541640682	4.115437393707
4	116752	27878.18975548668	5.463507507143
4	116794	27890.408548346042	6.386431285653
4	116867	27902.978354820247	5.255902671949
4	116881	27905.807580153082	7.194031365206
4	116893	27906.542349776228	3.79691383897
4	116900	27908.608749395965	0.234251601216
4	116928	27913.857330933718	2.908247489352
4	116945	27919.862296174226	6.8115795489
4	117005	27927.844088318178	10.777914877636
4	117033	27931.072336627307	9.476439903612
4	117039	27931.786187402532	9.289664298746
4	117053	27934.863011416918	11.852316136625
4	117108	27941.829178703563	15.574182077911
4	117115	27943.278625432653	11.333306392829
4	117120	27945.497933797633	10.318860322317
4	117127	27946.118331788906	10.632686900615
4	117142	27951.618030363154	15.45510175609
4	117151	27956.539207020765	20.283788614918
4	117161	27957.747320280773	9.978756815569
4	117168	27958.288071745468	7.008737266401
4	117182	27960.51130573163	5.241151787439
4	117201	27963.69932898429	1.931861185855
4	117222	27965.239680927399	1.131481050441
4	117252	27970.300601919659	2.395544744482
4	117284	27982.163407613548	0.590725025022
4	117291	27987.52079003732	0.567731084626
4	117298	27988.564122614427	0.100179336532
4	117317	27994.524050312357	3.364273920125
4	117327	27995.192956084381	1.574077755943
4	117358	28006.768167410659	7.015740788772
4	117384	28009.278610667796	0.049422578068
4	117433	28016.740410844043	1.607573101022
4	117455	28021.911990671078	3.281775707515
4	117459	28021.918876642633	0.971090217992
4	117491	28034.108201670146	0.423201716622
4	117526	28040.155411135569	0.303785798895
4	117547	28046.900898818041	0.719787321143
4	117579	28050.898611473697	2.33393399774
4	117584	28051.631701304174	0.926175690128
4	117642	28070.350884919876	5.09130042896
4	117684	28088.456999710998	3.782821933456
4	117699	28099.256450395586	1.163397249957
4	117723	28107.763389318505	0.776533534608
4	117754	28114.095120934105	0.234964539239
4	117764	28118.408189506709	3.6841001232
4	117771	28120.808164301706	0.023993370217
4	117778	28121.872849097118	0.770641836892
4	117793	28126.431060600559	0.598494707264
4	117805	28130.927613363798	2.282953642858
4	117835	28135.406171054683	1.680652256813
4	117928	28156.323465413208	14.79380184701
4	117945	28160.512161130546	13.541862169939
4	117949	28160.564906883203	12.141179888899
4	117990	28172.10429561427	1.463631116504
4	117997	28175.1442366554	0.781427728961
4	118004	28176.73944612471	1.381485173048
4	118020	28182.960557260346	5.585959042114
4	118038	28184.060188940329	6.245652021643
4	118045	28189.049788763096	7.706928333424
4	118056	28191.451924715851	3.174115482928
4	118096	28202.810891039868	11.512404525921
4	118170	28213.317352976513	18.441245104382
4	118177	28216.702625557033	19.725827219456
4	118207	28221.091297690282	23.610999720171
4	118215	28223.159197641208	20.274492274984
4	118226	28223.55869243857	18.811270744215
4	118233	28224.256274839671	16.376942413611
4	118245	28225.086447234361	15.136261225127
4	118261	28227.782616408114	17.125574971215
4	118278	28229.518094815198	18.134068717975
4	118283	28230.072618500111	10.078317990241
4	118293	28232.439851994551	11.701490273648
4	118337	28236.986495443153	2.039974451192
4	118341	28237.416838041646	2.203649449369
4	118379	28246.706073737222	4.641819161803
4	118402	28252.432277263328	10.208568582768
4	118413	28253.936799493986	5.460370744
4	118432	28256.716995837354	7.45025527613
4	118447	28268.136136167014	1.571239405496
4	118486	28278.431672503233	4.196175521182
4	118497	28282.157444294524	6.821990428213
4	118507	28282.578074997293	3.588972256079
4	118514	28284.279697679637	4.539578747047
4	118530	28285.712007390943	1.237884067007
4	118568	28292.486463167672	1.992259351667
4	118607	28303.699431059479	1.60167474825
4	118612	28304.916079986027	2.209646362753
4	118619	28306.148797559951	0.386091530651
4	118626	28311.854132892913	1.79272753086
4	118661	28324.929852714441	5.612555429115
4	118678	28328.043417247407	7.651297257031
4	118683	28329.90944919766	5.268164611473
4	118692	28331.499700897163	6.812769459957
4	118726	28335.919366897458	2.267110221718
4	118732	28339.762382024746	6.018985158923
4	118737	28340.489461364387	6.542096635328
4	118744	28344.56951086337	10.309844952894
4	118753	28346.013535527353	11.246745895767
4	118765	28350.819062236719	2.283239511713
4	118785	28354.838707881749	2.221173276027
4	118819	28364.079136289294	1.015223727804
4	118840	28367.135537919831	0.095505577081
4	118867	28374.231523681829	2.041257718097
4	118884	28383.767884255911	11.427436616633
4	118921	28390.680401714981	16.934178526741
4	118931	28390.988673304893	4.008014335681
4	118935	28391.239021927241	0.958197274678
4	118946	28396.71422968151	2.905200810473
4	118973	28408.042712887732	0.529601035122
4	118994	28414.76311487996	2.867155790343
4	119009	28416.698923372341	4.472563635192
4	119013	28418.335529559885	3.997106422814
4	119037	28424.098594228092	2.947122741778
4	119067	28431.507298967331	4.358303744416
4	119071	28431.899279230462	1.14911724917
4	119087	28436.334315186853	2.82506588421
4	119183	28453.587002121027	1.300532164801
4	119200	28455.664539724362	0.13634831426
4	119235	28461.02512509229	0.289054108815
4	119252	28466.048260942179	3.575878991993
4	119264	28468.600995801019	0.1317802872
4	119324	28482.277607692987	1.251140901323
4	119328	28483.733110368837	2.280835104113
4	119353	28485.771234145194	1.056601877897
4	119361	28487.085892071401	2.077051058374
4	119378	28488.133171726611	1.004092644212
4	119393	28490.613881710381	2.845706910959
4	119398	28491.8068922309	1.883139905091
4	119406	28493.669458805646	1.751762115177
4	119439	28500.70459943777	2.943576585824
4	119459	28509.628572366722	2.38747035988
4	119475	28513.361467704619	3.935406325727
4	119484	28513.627499680086	2.781134601953
4	119494	28521.740562120952	2.618583184068
4	119526	28526.983717146883	0.315053181439
4	119542	28529.870381932632	1.357453061335
4	119551	28531.491121523606	0.092090041632
4	119563	28536.070058321618	3.298065824769
4	119575	28538.93219324056	3.618268184549
4	119597	28543.292282714329	0.369949873389
4	119615	28552.58656241535	3.303327801771
4	119622	28554.466983494244	3.148907311902
4	119629	28556.716670072849	3.079946387686
4	119633	28560.695660088136	5.867637512412
4	119643	28567.254057860587	3.617847238316
4	119660	28578.102916617915	11.519828388317
4	119743	28593.413214862686	21.533339047141
4	119758	28596.24659149644	22.440967210744
4	119780	28598.477864968897	22.966983077389
4	119785	28599.125364620685	20.137427576522
4	119790	28600.747599565701	18.716598737191
4	119803	28606.62417205752	21.952784822594
4	119828	28614.633836512543	21.68636076904
4	119835	28616.960245929515	20.263342628053
4	119846	28619.600894809244	21.321624501232
4	119853	28620.795951002029	17.379763851984
4	119858	28621.33427149817	17.278239913473
4	119862	28621.445425474886	1.387822806947
4	119877	28626.625232709773	2.016916707102
4	119906	28631.420048245292	3.527386517234
4	119916	28631.728348604049	2.237310878249
4	119948	28640.145734246169	5.45914526019
4	119955	28640.984214180922	3.085256474773
4	119968	28641.833154727945	3.478401694137
4	119978	28644.185720694148	5.557366248294
4	119992	28646.574181645451	4.845763877145
4	119999	28649.83845245045	3.351547456315
4	120010	28654.332047269138	5.927764731798
4	120039	28658.620869231062	1.495919935678
4	120066	28664.7586204936	6.92093750607
4	120071	28665.181323756852	6.371989890064
4	120086	28671.672154020547	9.786067555549
4	120139	28680.294769184039	16.131733413679
4	120303	28722.981552740224	33.16684052619
4	120311	28725.288526809775	35.413196053077
4	120327	28730.8720948613	35.352228377525
4	120380	28739.359487668252	30.267966017037
4	120394	28745.783329366014	28.036213395536
4	120411	28747.909687960639	30.062592925859
4	120444	28756.177361238845	37.599374914092
4	120465	28759.028423410396	31.922515281887
4	120491	28766.932375801864	30.793102240101
4	120501	28767.557149422801	13.338900851243
4	120508	28769.296098798452	14.719289012559
4	120521	28771.528619347346	13.757179186324
4	120532	28774.69787227117	14.208872807496
4	120540	28781.023872770558	19.944754907595
4	120570	28788.436943045783	2.145103656706
4	120574	28790.800763110289	2.905586537256
4	120610	28800.358753480129	2.770037487798
4	120631	28804.99340388979	1.636859578655
4	120640	28807.084189274626	1.648379755243
4	120648	28808.560100143271	0.635518597987
4	120671	28817.014902022196	0.458745919346
4	120679	28818.933877431636	1.257058929788
4	120692	28823.329954334194	3.248573280436
4	120723	28830.31840593668	5.260156739509
4	120727	28830.611139799249	4.717099987302
4	120742	28835.896305671328	4.885712532845
4	120797	28843.183886088194	9.28650553901
4	120804	28844.767934575648	7.71463934793
4	120817	28845.601066600136	5.387403892034
4	120823	28847.167208660214	5.569723942801
4	120830	28848.633163776279	0.079021440135
4	120856	28860.347846745085	8.585547357796
4	120878	28862.438107953874	9.627397676745
4	120883	28864.512435006809	10.060928638296
4	120890	28866.908170266164	5.697273551646
4	120986	28901.17730510804	0.710248711656
4	121037	28920.61514008262	11.724289290308
4	121045	28923.302769202508	8.016778755664
4	121057	28928.288770619927	11.607275862111
4	121108	28937.376931791436	16.289285180521
4	121119	28940.960333036411	17.302572678498
4	121183	28952.934982266399	28.780994504196
4	121190	28953.769069459678	22.790860491465
4	121195	28954.183560742365	8.392176605766
4	121205	28954.861894470448	8.630541367957
4	121219	28962.730537361213	14.31523194389
4	121224	28962.737784154832	8.228140522188
4	121233	28964.456989962398	7.287566277303
4	121251	28967.016699145182	3.339297851629
4	121307	28978.575082931874	12.795421486383
4	121318	28979.656860616401	12.406445103503
4	121323	28980.96780965958	13.095483976759
4	121328	28981.19717814237	6.020049363335
4	121365	28988.948671189503	4.940413884346
4	121414	28995.789714346301	9.055563938113
4	121444	28998.853231302453	6.377220196407
4	121454	29002.251557299278	8.810109521641
4	121466	29003.797885158705	7.356076232173
4	121497	29014.082111411193	17.513369201021
4	121514	29019.095031320568	21.362966589796
4	121547	29024.221828235495	22.350420964928
4	121554	29027.841304743438	18.652326886519
4	121561	29033.990588368541	22.486134275589
4	121578	29035.036588278134	7.722128430535
4	121598	29042.091194534123	7.340195357131
4	121605	29044.275427118695	9.272542921751
4	121615	29047.332955238618	9.46106184543
4	121627	29051.230031844111	8.958149647753
4	121634	29052.931745728132	6.176872163533
4	121649	29056.015138826481	5.018219403642
4	121658	29061.472836270498	7.077936883532
4	121677	29072.491565539686	0.191365112897
4	121687	29077.362720859796	1.313657043517
4	121710	29081.857818811837	1.68916746197
4	121738	29088.034595339176	1.213320730169
4	121763	29091.496208077772	1.834123353502
4	121776	29094.510034095284	2.585688678457
4	121787	29098.558000269478	5.538109768711
4	121807	29102.536136553705	1.603509472045
4	121827	29109.056985156182	1.987189724359
4	121844	29118.411927760008	1.865732197529
4	121851	29122.964767099977	1.597659901934
4	121886	29134.177881608673	7.843426139451
4	121892	29136.73061155347	4.282110053589
4	121903	29139.938930226713	1.333831708758
4	121909	29140.42119144125	1.60331606304
4	121959	29154.097293553721	3.16414681793
4	121971	29155.801854675467	0.614921155949
4	121994	29159.040284727357	1.664111370292
4	122009	29161.72745730515	4.092774692765
4	122039	29172.345698721822	0.209967547221
4	122043	29172.635958801619	0.426193995397
4	122078	29180.422685024735	2.893594066755
4	122082	29180.440265304096	2.296839077793
4	122135	29193.29860106258	2.316740738787
4	122180	29202.80904988692	4.566650157647
4	122200	29206.896499895863	3.257783630869
4	122211	29208.621141766975	3.074821101555
4	122235	29215.823259182707	2.311024321276
4	122270	29228.302405009775	1.440263917559
4	122319	29241.732477081117	7.482044053232
4	122324	29242.231595616511	7.899311936586
4	122328	29242.856965889192	7.80566855733
4	122337	29245.116891137304	0.140928677558
4	122362	29248.256464765194	0.907702293458
4	122391	29259.706968879315	2.562689088805
4	122436	29269.3051545052	1.52635937481
4	122478	29282.158020128111	3.42409370993
4	122491	29286.057696673762	4.200508161259
4	122519	29293.755176198257	10.957958998853
4	122529	29297.313363903895	10.94083356377
4	122540	29299.982605287291	11.954739023124
4	122550	29303.17683243831	8.369984308736
4	122575	29308.655049718814	1.853396279579
4	122593	29318.556341742285	4.367848969328
4	122610	29331.905267086947	0.112596796859
4	122632	29335.824572850142	2.372607113893
4	122655	29343.969581027482	2.015772872777
4	122722	29359.273132795353	11.101572982806
4	122731	29361.597260255889	7.245249872044
4	122744	29363.687338761511	5.446564265135
4	122751	29365.562783423629	4.432554303163
4	122793	29372.887926499881	3.937603856207
4	122828	29379.552775988711	1.286517513782
4	122849	29386.091085258269	0.643857078156
4	122856	29388.033772191386	2.501727343209
4	122868	29390.984700713585	5.031651006929
4	122951	29412.969961466454	26.316397848277
4	122980	29418.267364782871	29.707711819921
4	123006	29424.407433089843	32.359789036795
4	123017	29424.846121812218	29.89912473081
4	123022	29425.209713590805	28.190452715013
4	123027	29425.801824231092	11.54696427429
4	123037	29427.152619032763	12.857330868606
4	123050	29428.299034066894	10.934320089356
4	123057	29430.693506335986	3.788524701046
4	123069	29433.615860072908	6.299949670448
4	123085	29437.902444418655	2.266678602928
4	123114	29446.742185453618	4.037502659933
4	123125	29450.931091636549	4.092071766186
4	123132	29451.351870686604	3.68975168463
4	123149	29453.755814012801	2.194301161728
4	123172	29462.046603052399	7.398800979656
4	123234	29477.666269077637	2.957437041441
4	123238	29478.925391320881	3.679102548638
4	123374	29511.52992182947	18.680310316023
4	123395	29514.214263174205	5.180646349475
4	123415	29521.88365283498	4.729895280021
4	123434	29524.727648128542	3.987679990457
4	123438	29525.451721492083	2.469964913821
4	123482	29534.060136894226	4.556340171771
4	123492	29535.930256770556	5.147853758245
4	123506	29539.636504326893	5.541771734728
4	123513	29541.315375372542	3.919261651989
4	123547	29549.640411672269	3.264859190367
4	123551	29550.031601355933	2.337410705285
4	123567	29558.427324507916	1.333245160268
4	123619	29568.374943904233	1.639755062922
4	123623	29570.47647217636	2.131484284989
4	123644	29575.588898093988	1.363963458435
4	123681	29584.529022001757	5.818680240954
4	123692	29585.491193847706	6.418615490395
4	123697	29585.999225438584	6.208408202011
4	123704	29588.071326437854	7.143120264501
4	123717	29592.035479566711	9.647499162612
4	123721	29593.118250511024	3.255249676367
4	123728	29594.127460557945	0.802310156196
4	123738	29598.12366741976	2.804636708634
4	123749	29600.897551066656	3.665196683923
4	123759	29604.612400121126	6.482864158126
4	123769	29610.697882522291	0.731462213888
4	123788	29614.037110871711	3.300925434326
4	123803	29614.97143773671	1.606618392078
4	123811	29616.303735953414	0.092444190669
4	123871	29632.028884007669	9.670727935486
4	123888	29635.92430156794	9.054958931631
4	123902	29638.167029044024	4.887606807251
4	123911	29641.373376751479	7.604804134052
4	123930	29645.836729151431	8.723876917831
4	123967	29653.68433722246	7.449402260267
4	123981	29658.895713827595	12.23441135536
4	123987	29660.487746731451	4.643249252741
4	124010	29662.3685508954	0.412907734281
4	124040	29670.515935534099	2.078049113606
4	124073	29686.262478928152	10.678921405409
4	124119	29693.040199062374	15.688111292905
4	124125	29693.164236964052	2.159163451316
4	124130	29695.449529541948	2.858990664933
4	124138	29697.239232393781	1.103513485707
4	124197	29718.255279192774	2.626387493449
4	124235	29734.053208615306	0.84983690995
4	124301	29756.956684695073	0.791508691871
4	124315	29758.479033163656	0.468065680335
4	124322	29760.042870469934	0.024646548342
4	124352	29768.415097014229	1.742386747312
4	124403	29782.890773229922	13.713289413494
4	124408	29784.08114820105	11.987196450189
4	124417	29786.872752459859	11.759140458227
4	124430	29790.709901026436	8.994918004024
4	124454	29795.052418337593	8.844496081814
4	124462	29796.114460481081	5.171929487121
4	124471	29796.885067473478	4.601205986321
4	124485	29802.131651801084	2.828190741586
4	124509	29806.562819033476	5.195571849278
4	124521	29808.577155396337	6.057079041644
4	124538	29816.254903139412	2.06826443356
4	124559	29825.966868561964	6.260811492094
4	124582	29828.692440867847	6.818758024127
4	124595	29832.861702654751	5.721003907202
4	124631	29841.414746905495	1.718124333034
4	124635	29842.312954171491	1.952741639695
4	124669	29859.173584676611	2.468432813709
4	124707	29867.811597312314	5.489782751188
4	124810	29889.805574272696	23.04628164134
4	124815	29891.631944876168	23.518807157471
4	124822	29893.568562809595	24.85418093948
4	124827	29893.711018260471	23.570482553061
4	124834	29894.57339046653	22.433999895102
4	124841	29896.382114587835	22.193736614836
4	124847	29898.150966087767	19.881620696427
4	124859	29900.282748963769	18.559273328601
4	124870	29902.169756194957	19.664775933196
4	124875	29903.084357069128	9.813517212735
4	124884	29908.116798886427	13.039370891125
4	124900	29911.61227605122	13.269560065136
4	124907	29912.046559435847	13.128706369524
4	124918	29914.77227685255	7.404512585957
4	124929	29921.313700713764	10.305820573581
4	124977	29928.418475691099	17.215264355773
4	124984	29931.668380201619	10.961930558856
4	124994	29934.904407061196	12.250023469304
4	124999	29935.85443066189	11.286839771133
4	125004	29938.977646932554	11.684815455727
4	125011	29940.986100668704	1.833067796166
4	125028	29948.592467041219	4.435156684757
4	125047	29950.908541210933	5.55825496533
4	125054	29955.700338806891	9.704763076705
4	125073	29961.292772236615	13.633288947352
4	125084	29962.55565299025	12.588037462018
4	125089	29962.662401547785	6.718614573425
4	125093	29963.08687401669	4.063300945797
4	125107	29968.746534081282	4.256943968345
4	125139	29977.179452265695	1.612280189521
4	125158	29985.332908873926	2.248388771279
4	125221	29999.637990550096	8.334599990186

