version 2
run Second-n4-5-20191016-17:04:16-3568
attr configname Second-n4
attr datetime 20191016-17:04:16
attr experiment Second-n4
attr inifile omnetpp.ini
attr iterationvars ""
attr iterationvarsf ""
attr measurement ""
attr network org.omnetpp.queueing.Pizza
attr processid 3568
attr repetition 5
attr replication ""
attr resultdir results
attr runnumber 5
attr seedset 5
param **.PS.maxInventoriedPS 4
param **.U1.interArrivalTime exponential(3s)
param **.U2.interArrivalTime exponential(5s)
param **.PS.serviceTimeForInventoryU1 exponential(1.0s)
param **.PS.serviceTimeForInventoryU2 exponential(1.2s)
param **.PS.serviceTimeDirectU1 exponential(1.4s)
param **.PS.serviceTimeDirectU2 exponential(1.4s)
param **.PS.probabilityProducing 0.7
param **.CS.serviceTimeU1 exponential(1.1s)
param **.CS.serviceTimeU2 exponential(1.4s)

vector 0 Pizza.EntryQueueU1 queueLength:vector ETV
attr interpolationmode sample-hold
attr title "queue length, vector"
vector 1 Pizza.CS queueLength:vector ETV
attr interpolationmode sample-hold
attr title "queue length, vector"
vector 2 Pizza.EntryQueueU2 queueLength:vector ETV
attr interpolationmode sample-hold
attr title "queue length, vector"
vector 3 Pizza.sink lifeTime:vector ETV
attr interpolationmode none
attr title "lifetime of arrived jobs, vector"
attr unit s
vector 4 Pizza.sink lifeTimeU2:vector ETV
attr interpolationmode none
attr title "lifetime of arrived jobs, vector"
attr unit s
vector 5 Pizza.sink lifeTimeU1:vector ETV
attr interpolationmode none
attr title "lifetime of arrived jobs, vector"
attr unit s
0	0	0	0
0	5	0.753059933076	1
0	7	1.447793824209	2
0	11	2.804223168235	3
0	13	3.086565267221	4
0	14	3.713850244484	3
0	20	5.225158783124	2
0	24	5.92483528698	3
0	26	6.548570327485	4
0	32	11.503754629997	5
0	35	12.097883854806	4
0	40	12.468465603316	3
0	45	13.056406209051	2
0	50	14.363753905328	1
0	54	15.527032728862	2
0	57	15.917614004192	1
0	65	16.259902939981	0
0	76	17.559657457948	1
0	77	17.612700222004	0
0	110	27.2333374427	1
0	113	32.048704521728	0
0	125	33.365168955247	1
0	127	33.565213473477	2
0	129	35.092419009026	3
0	131	35.677713561396	4
0	138	40.17504022329	3
0	143	40.317594223085	2
0	148	40.417144247152	1
0	156	40.719427577396	2
0	158	41.124505944377	1
0	163	41.645520598896	0
0	175	43.716538013315	1
0	176	45.349592499072	0
0	199	48.942202791148	1
0	200	49.236224832856	0
0	206	49.374648012343	1
0	208	49.713637045031	0
0	215	50.526645158426	1
0	216	50.677092062066	0
0	234	58.617741383418	1
0	236	58.725112609752	2
0	240	60.118430605264	3
0	242	60.155770250825	4
0	245	60.937160917794	3
0	252	61.320253151054	4
0	253	61.427535234494	3
0	258	62.222908116867	2
0	267	64.908250699955	3
0	269	65.072927006611	4
0	270	66.107890791268	3
0	276	66.662868846324	4
0	277	67.659205369822	3
0	283	69.175475690674	2
0	290	70.510686622625	1
0	299	71.512279528652	2
0	300	73.309396528811	1
0	306	75.826634050934	0
0	318	76.831955654352	1
0	322	79.717322016763	0
0	343	83.536294700519	1
0	347	84.755759568892	2
0	349	87.86204250661	3
0	350	88.02518073522	2
0	357	88.683934068524	3
0	358	90.06985751043	2
0	363	90.138033000793	1
0	369	90.953477537031	0
0	400	97.100285996994	1
0	401	97.966984945918	0
0	426	108.116745676949	1
0	427	108.813455960725	0
0	481	128.316612527267	1
0	483	128.663434411884	2
0	484	129.610572325753	1
0	490	131.298891424534	0
0	535	143.773142112807	1
0	537	145.437554911524	2
0	539	147.906738895568	3
0	542	151.65488520671	2
0	551	153.526374291384	3
0	552	153.829289417934	2
0	558	154.979508480747	1
0	565	155.662036393983	0
0	572	156.396256124039	1
0	573	156.602899914558	0
0	596	158.798243268905	1
0	602	161.481994745594	2
0	604	161.935810613191	3
0	607	162.457731480096	4
0	608	162.704294979256	3
0	616	164.590959506532	2
0	621	165.374466650432	1
0	631	167.146627704629	0
0	641	169.183970169365	1
0	642	169.240732215246	0
0	718	188.483104832796	1
0	722	190.415871806384	0
0	753	201.964674126701	1
0	755	201.979420758064	2
0	756	202.053539643724	1
0	761	202.660153526723	0
0	834	216.903385095332	1
0	835	217.096201506972	0
0	865	221.676381265938	1
0	866	222.435381752979	0
0	887	229.009433613438	1
0	888	229.537816369243	0
0	895	229.707273052761	1
0	896	230.021573860064	0
0	904	230.49539423452	1
0	906	230.61268320396	2
0	908	231.73978886097	1
0	913	232.604313416264	0
0	959	237.766041836345	1
0	961	237.943778569497	2
0	962	238.353218912312	1
0	968	240.853660036772	0
0	985	244.428706003319	1
0	986	245.779500121318	0
0	992	245.818923609291	1
0	993	246.512130036619	0
0	999	246.565354103008	1
0	1002	248.087083529699	0
0	1020	251.494798310053	1
0	1021	251.76055456494	0
0	1089	274.273268434516	1
0	1091	274.796007329017	2
0	1092	275.29270901907	1
0	1098	276.528608706089	0
0	1116	282.192495601151	1
0	1117	282.223753054681	0
0	1151	287.655905316373	1
0	1154	289.184429785098	2
0	1155	289.362155432409	1
0	1163	289.882278404448	2
0	1164	290.284993705271	1
0	1169	291.447015601509	0
0	1178	292.431419597877	1
0	1179	292.674601514255	0
0	1229	302.93146239621	1
0	1231	304.170752007646	2
0	1233	304.804409392495	3
0	1237	306.52483849348	2
0	1243	307.034872770023	1
0	1250	309.2906060167	0
0	1270	312.17970736882	1
0	1272	312.829942719096	0
0	1298	319.543623696856	1
0	1299	319.666479839272	0
0	1305	319.950467503928	1
0	1306	320.092730933235	0
0	1318	322.553261231328	1
0	1319	323.586566917736	0
0	1327	325.503912637905	1
0	1329	325.9301256762	2
0	1330	325.98054317157	1
0	1336	327.160941724787	0
0	1422	353.403605310742	1
0	1425	353.938984883465	0
0	1438	355.585387805789	1
0	1447	359.656372347352	0
0	1460	364.479605988214	1
0	1461	364.723117187994	0
0	1492	371.490335608042	1
0	1494	371.496656826333	2
0	1496	371.528304731917	3
0	1497	374.202149114722	2
0	1502	374.623462717885	1
0	1510	374.968601793597	2
0	1513	375.629379138481	3
0	1514	375.997395054005	2
0	1519	376.25418776132	1
0	1528	379.141810884195	0
0	1557	387.651747750068	1
0	1558	389.179761761759	0
0	1622	418.065358830854	1
0	1625	419.227551864048	2
0	1627	419.958929488909	3
0	1629	420.401384513553	4
0	1633	420.977618467991	5
0	1634	421.522836145648	4
0	1639	422.050809209077	3
0	1649	423.37356231362	2
0	1655	423.385436240329	3
0	1656	423.567042980649	2
0	1661	424.184141351171	1
0	1668	425.386790084461	2
0	1669	426.545942282179	1
0	1674	426.746953740387	0
0	1685	428.522663858336	1
0	1687	429.430940021886	2
0	1689	429.535709436871	3
0	1690	429.891964441794	2
0	1696	431.333936026127	3
0	1701	432.993726648653	4
0	1705	433.608190846232	5
0	1707	435.658551589918	4
0	1712	435.818639016391	3
0	1717	439.407796832224	2
0	1726	442.519769729337	1
0	1732	442.931207389903	0
0	1743	443.293825817357	1
0	1749	444.944490680764	2
0	1751	445.756023484888	3
0	1753	446.131210989927	4
0	1754	446.989578515871	3
0	1760	447.652509364294	2
0	1769	449.743133469993	3
0	1770	450.565908682719	2
0	1775	450.646301646609	1
0	1781	450.749528855002	2
0	1782	451.886824696851	1
0	1787	453.15226420418	0
0	1819	457.747805906999	1
0	1821	457.787898775078	2
0	1822	458.326632187833	1
0	1829	460.376787683428	0
0	1835	460.649058386428	1
0	1836	460.829126609417	0
0	1864	468.789531269953	1
0	1866	469.360169144921	0
0	1874	469.760695703274	1
0	1878	470.597274587321	0
0	1889	471.461047106794	1
0	1891	471.654661561561	2
0	1893	471.66811195415	3
0	1895	471.687158176956	4
0	1896	471.761314007819	3
0	1902	472.553685126113	4
0	1905	474.898665835538	3
0	1910	475.2340896667	2
0	1915	475.579749344676	1
0	1920	476.135366437889	0
0	1926	476.627614159027	1
0	1927	476.998789585203	0
0	1974	493.440880151959	1
0	1976	493.642745091949	0
0	1993	496.958386029385	1
0	1994	499.728101956575	0
0	2017	502.730719576108	1
0	2019	503.570954275864	2
0	2020	503.866931618859	1
0	2026	504.923207318303	0
0	2057	511.044498484493	1
0	2059	511.335605003586	2
0	2062	514.162576318332	3
0	2063	514.470005595319	2
0	2074	518.643927458481	3
0	2075	518.982010191879	2
0	2081	519.072329551003	3
0	2084	519.082800770138	4
0	2085	520.579095471687	3
0	2091	521.418440408772	2
0	2096	521.69414333305	1
0	2102	521.951893373821	2
0	2103	521.996256927882	1
0	2109	522.119693403422	2
0	2110	522.343472554509	1
0	2117	526.453511105739	0
0	2143	529.262514125552	1
0	2146	531.345865396043	2
0	2148	531.943543661806	3
0	2149	532.134666662646	2
0	2154	532.404305087849	1
0	2162	534.21108547483	0
0	2238	548.589623158329	1
0	2239	549.214094263058	0
0	2284	561.423452168641	1
0	2287	562.452943912315	0
0	2296	563.593742623222	1
0	2300	565.234424461549	0
0	2315	569.160772072388	1
0	2317	569.710998837535	0
0	2349	583.40520126776	1
0	2350	584.732172726065	0
0	2365	587.495040971455	1
0	2368	588.997771620483	2
0	2369	589.793961638354	1
0	2375	590.981764399513	0
0	2421	598.5925889852	1
0	2422	599.004908665322	0
0	2428	599.911707689367	1
0	2431	600.993213609352	0
0	2509	626.801976424191	1
0	2510	626.983772722016	0
0	2529	631.613270031333	1
0	2532	632.288968273583	2
0	2537	634.24805356474	1
0	2543	634.333456502714	2
0	2545	634.926365000587	1
0	2552	636.104751059506	2
0	2556	639.062039781938	1
0	2561	639.13845452456	0
0	2567	640.131975002064	1
0	2568	640.532786501408	0
0	2587	644.010860601728	1
0	2588	644.319351543719	0
0	2610	647.402061397275	1
0	2612	650.543329100647	2
0	2614	650.574569783486	3
0	2616	650.885906328857	2
0	2621	651.535128838772	1
0	2628	652.538609159681	2
0	2629	652.571847828306	1
0	2636	653.209591207443	0
0	2718	689.884413432502	1
0	2720	690.860629583507	2
0	2722	691.082111819646	3
0	2725	691.776547895296	2
0	2731	692.235476917372	1
0	2736	693.217268342567	0
0	2742	693.390320506326	1
0	2743	693.682520099363	0
0	2773	698.311822607474	1
0	2775	698.415354550272	0
0	2811	711.909252335893	1
0	2813	715.033137682569	2
0	2815	715.048366752548	3
0	2817	715.205278487109	4
0	2818	715.398256629066	3
0	2824	716.481113584982	2
0	2830	716.856260306204	1
0	2835	716.8650811095	0
0	2842	717.239779961073	1
0	2843	718.119441043067	0
0	2920	741.430889335083	1
0	2923	743.011169327992	0
0	2929	743.186443730417	1
0	2930	743.864299262994	0
0	2936	744.911431544272	1
0	2937	745.358589986978	0
0	2943	745.975972752199	1
0	2949	747.090876157341	2
0	2952	750.012728349559	1
0	2960	752.931269530726	0
0	2970	755.316747297593	1
0	2971	756.862544912392	0
0	2982	757.706219585107	1
0	2983	757.919847632402	0
0	3021	769.874900606821	1
0	3022	769.927891288451	0
0	3035	773.809246390127	1
0	3036	773.998724794441	0
0	3054	778.11509140607	1
0	3057	780.018384794118	0
0	3069	783.346909906896	1
0	3071	783.94968990788	2
0	3073	785.026569179406	3
0	3075	785.232989695549	4
0	3077	786.12928500468	5
0	3082	786.854396668228	4
0	3089	787.477917245372	3
0	3095	787.659741834512	2
0	3100	787.984635964313	1
0	3105	788.187978090196	0
0	3109	789.045628808951	1
0	3111	789.451501751707	2
0	3118	797.018522451102	1
0	3124	799.340008236654	0
0	3133	800.45891864074	1
0	3136	802.494539580601	0
0	3150	806.013348182048	1
0	3154	808.075883179319	0
0	3170	812.05652450208	1
0	3173	813.167854472424	0
0	3182	814.010722491147	1
0	3185	815.607161481384	0
0	3242	831.382357324617	1
0	3244	832.114227413885	2
0	3245	832.308429685744	1
0	3250	832.576794707506	0
0	3261	832.993386517285	1
0	3263	833.329067130786	2
0	3264	833.475035984597	1
0	3268	834.062439114354	2
0	3273	836.657750450055	1
0	3280	838.698041641111	0
0	3306	842.08763576671	1
0	3307	843.813815475312	0
0	3382	869.448343727263	1
0	3384	869.797878863541	2
0	3386	870.011404517333	3
0	3387	870.879901563454	2
0	3394	871.596110694891	3
0	3395	871.808411170309	2
0	3403	873.526130097181	3
0	3404	874.187590058535	2
0	3409	874.213309799482	1
0	3416	875.062503903712	0
0	3427	875.603500269426	1
0	3431	877.031220932317	0
0	3437	877.277706458311	1
0	3438	877.610714347881	0
0	3457	882.944727762438	1
0	3459	884.831177667404	2
0	3461	885.236206500466	1
0	3466	885.914204081593	0
0	3474	887.655242457889	1
0	3477	887.849641511102	0
0	3505	899.531520970633	1
0	3506	900.324991342347	0
0	3536	913.846408754759	1
0	3538	914.948742346406	2
0	3544	919.842053609632	3
0	3545	921.13755132355	2
0	3552	921.741110532677	1
0	3557	922.007578613724	0
0	3578	925.046840538746	1
0	3581	925.352974544837	0
0	3588	925.907390699158	1
0	3590	926.529055072922	2
0	3592	926.946452605132	1
0	3598	928.431097513878	2
0	3600	930.400709013046	1
0	3610	933.546346898148	2
0	3611	933.899933198772	1
0	3616	934.254955972708	0
0	3653	940.923320979821	1
0	3654	941.078405872337	0
0	3703	952.41500986732	1
0	3708	956.466335774628	0
0	3743	965.577755263854	1
0	3744	966.402006041214	0
0	3759	969.830948355949	1
0	3760	970.461752159266	0
0	3766	970.530456492757	1
0	3769	971.095840864195	2
0	3770	971.351393737048	1
0	3777	972.272041321895	0
0	3792	976.339331487586	1
0	3793	976.560040083829	0
0	3799	976.740116619274	1
0	3801	976.883779280437	2
0	3802	976.949383297352	1
0	3810	978.671789424219	2
0	3814	980.866479312073	3
0	3816	981.448983016714	4
0	3818	981.513484913199	5
0	3819	981.701120277603	4
0	3828	982.419077179162	3
0	3835	983.464500953717	2
0	3841	984.039196739114	3
0	3842	984.767848330208	2
0	3849	985.247138265354	1
0	3854	985.670345325551	0
0	3862	986.840511760595	1
0	3864	988.52327624521	2
0	3865	989.585854585967	1
0	3871	990.695216228289	0
0	3915	999.208556688648	1
0	3917	1000.009726712374	2
0	3918	1000.792392165512	1
0	3926	1003.951594360791	0
0	3932	1005.726399384984	1
0	3934	1006.45962148268	2
0	3937	1008.591652158662	1
0	3945	1009.643598727166	2
0	3947	1010.803824322649	1
0	3952	1010.891895492875	0
0	3969	1013.348853483927	1
0	3974	1018.853176505354	2
0	3975	1019.966955285251	1
0	3980	1020.86161714108	0
0	4008	1025.979532991013	1
0	4009	1026.123190870915	0
0	4017	1027.189643827954	1
0	4018	1027.223499850161	0
0	4024	1027.259521232619	1
0	4026	1027.512889124355	2
0	4027	1027.733906943557	1
0	4037	1030.247846620775	0
0	4055	1031.12097552769	1
0	4060	1033.30121110053	2
0	4061	1033.629102554114	1
0	4068	1035.050946935995	0
0	4081	1037.901461521871	1
0	4084	1042.376447015841	0
0	4144	1067.725177340949	1
0	4145	1070.18625908827	0
0	4152	1071.110474905284	1
0	4153	1071.55809986062	0
0	4167	1074.240530637292	1
0	4169	1074.51219487757	0
0	4203	1083.679125608173	1
0	4204	1085.383004717807	0
0	4227	1088.44749958101	1
0	4228	1089.611544903533	0
0	4243	1090.772531217786	1
0	4245	1091.373923885898	0
0	4306	1108.188743018645	1
0	4307	1108.552446228712	0
0	4337	1118.260061491251	1
0	4338	1119.948809474068	0
0	4361	1130.144770000871	1
0	4363	1130.310414810552	2
0	4364	1130.442714970905	1
0	4370	1131.728558474114	0
0	4383	1136.455380953716	1
0	4384	1137.373655271533	0
0	4422	1151.934764412389	1
0	4430	1154.321516618649	0
0	4436	1154.694579780141	1
0	4437	1154.97997074918	0
0	4470	1157.069257945693	1
0	4471	1157.453947856078	0
0	4491	1160.371070418253	1
0	4496	1162.723611708589	0
0	4505	1164.606074735674	1
0	4506	1165.268175383143	0
0	4541	1169.179284914427	1
0	4542	1169.811324832025	0
0	4556	1171.280813207972	1
0	4560	1171.738923101728	0
0	4566	1172.434029737426	1
0	4567	1173.248157510185	0
0	4578	1174.78150080457	1
0	4579	1176.298386462371	0
0	4597	1179.384203514734	1
0	4603	1182.453589736526	2
0	4605	1183.060132827011	1
0	4610	1183.426166426568	0
0	4640	1196.777108863429	1
0	4642	1197.910084373722	0
0	4670	1202.721467282589	1
0	4671	1203.375472303881	0
0	4685	1204.475645697002	1
0	4686	1205.037119099062	0
0	4702	1207.318462676006	1
0	4704	1208.552568260376	0
0	4729	1216.832461377016	1
0	4730	1217.094611985398	0
0	4753	1222.42638593684	1
0	4754	1222.712217413922	0
0	4772	1225.597269772813	1
0	4773	1227.102475701109	0
0	4800	1234.603837918055	1
0	4801	1235.571407750742	0
0	4813	1236.829816851544	1
0	4815	1239.41780857352	0
0	4822	1239.683996887529	1
0	4824	1240.17214133799	0
0	4855	1251.41254088451	1
0	4857	1252.741389535569	2
0	4858	1254.310627396676	1
0	4864	1255.554984933892	0
0	4909	1266.781328891799	1
0	4910	1267.126385216755	0
0	4995	1289.779671011834	1
0	4999	1290.632595884156	0
0	5036	1299.788712708317	1
0	5040	1301.43511500398	0
0	5048	1302.40534456087	1
0	5050	1303.141529947767	0
0	5126	1326.923609273088	1
0	5128	1328.074142187635	2
0	5129	1328.576374634183	1
0	5135	1328.650664317238	2
0	5136	1331.428513306002	1
0	5142	1331.460967769067	2
0	5143	1331.761172972179	1
0	5148	1335.727655064704	0
0	5168	1337.783268530275	1
0	5170	1338.915862444496	2
0	5172	1339.455624973674	1
0	5177	1340.481620202981	0
0	5204	1346.07974503785	1
0	5207	1346.879448259029	2
0	5208	1347.434270358577	1
0	5214	1347.548686858984	2
0	5215	1348.560231366826	1
0	5225	1350.267233481122	0
0	5238	1351.574267724209	1
0	5241	1354.752395819158	0
0	5247	1354.969630388118	1
0	5250	1356.18775693223	0
0	5258	1356.892786711842	1
0	5260	1357.76376129494	0
0	5267	1359.085057278109	1
0	5268	1359.414495925425	0
0	5280	1362.125348534298	1
0	5281	1363.734050712749	0
0	5304	1366.167644343443	1
0	5307	1369.203938934811	2
0	5308	1371.049293873498	1
0	5313	1371.299964415431	0
0	5326	1374.092977779547	1
0	5327	1375.30090538435	0
0	5333	1376.892252194034	1
0	5336	1377.332755853538	0
0	5382	1387.942020563595	1
0	5384	1389.61295290845	0
0	5431	1400.920800725223	1
0	5432	1401.144982019949	0
0	5442	1401.626056001912	1
0	5451	1403.296529927424	2
0	5453	1403.632944800042	3
0	5459	1406.395885735548	4
0	5460	1407.822344427653	3
0	5465	1407.960680037112	2
0	5471	1408.164243536196	3
0	5477	1410.048121286318	2
0	5486	1411.844491578607	3
0	5491	1412.478933011599	4
0	5493	1412.610563934084	5
0	5494	1412.957438447058	4
0	5500	1413.340807719968	5
0	5501	1413.624812159795	4
0	5508	1415.498642464312	3
0	5513	1416.238918055789	2
0	5519	1416.344797867034	1
0	5525	1416.710479674338	0
0	5547	1420.008580110317	1
0	5549	1421.017093174094	0
0	5601	1434.161047759966	1
0	5603	1434.557401289022	2
0	5608	1435.092261197992	1
0	5613	1435.161643409864	0
0	5626	1439.031827720928	1
0	5629	1439.401707714738	0
0	5647	1441.960607947092	1
0	5649	1444.094993550737	0
0	5658	1445.040826917554	1
0	5660	1446.046125141663	2
0	5662	1446.586786801306	1
0	5668	1446.733844083306	0
0	5691	1447.889502598797	1
0	5697	1450.937649366893	2
0	5699	1452.633937069441	3
0	5700	1453.219076592895	2
0	5705	1453.703334587834	1
0	5711	1453.934548132141	0
0	5725	1455.498279619503	1
0	5727	1456.11860512318	0
0	5747	1459.731005676817	1
0	5748	1459.808215396316	0
0	5768	1462.934045242816	1
0	5773	1464.790824024179	0
0	5803	1470.492543303797	1
0	5806	1471.651125364281	0
0	5819	1472.60718965312	1
0	5820	1474.456602371909	0
0	5839	1480.346765587741	1
0	5840	1480.828006136589	0
0	5851	1481.633814395796	1
0	5856	1484.760323918156	0
0	5862	1484.782575322704	1
0	5865	1485.522162066341	0
0	5878	1487.326924465779	1
0	5879	1487.411183606497	0
0	5889	1487.958330513939	1
0	5891	1488.800899516377	0
0	5921	1499.808813915317	1
0	5924	1500.256290093895	0
0	5930	1500.30776968763	1
0	5932	1500.79864753633	2
0	5934	1500.978079925129	3
0	5937	1503.14679559574	2
0	5944	1504.953700906735	1
0	5949	1504.973678831091	0
0	5983	1513.596767674361	1
0	5985	1514.241290525607	2
0	5988	1516.044530321859	1
0	5994	1516.066949606256	2
0	5995	1516.622511977195	1
0	6000	1516.941768916009	0
0	6013	1520.162603170735	1
0	6015	1520.196868685425	2
0	6018	1521.253856963434	3
0	6021	1522.280411730094	2
0	6026	1523.509486663874	1
0	6031	1523.638498650256	0
0	6039	1525.493609771844	1
0	6041	1526.3469903463	2
0	6044	1527.392868468808	3
0	6046	1527.934567533529	4
0	6050	1529.882089791793	3
0	6056	1530.344186977634	4
0	6058	1531.401092175851	3
0	6063	1531.713899825525	2
0	6072	1533.587491286855	3
0	6074	1534.198604946626	2
0	6082	1534.81686829639	1
0	6087	1535.925598394729	0
0	6100	1536.969239234731	1
0	6103	1537.787149204285	2
0	6104	1538.282230401469	1
0	6111	1538.695842552077	0
0	6132	1543.441984109357	1
0	6134	1544.122045082598	2
0	6138	1544.954683684228	1
0	6146	1548.220696650666	0
0	6159	1551.552625131023	1
0	6161	1553.215057194289	2
0	6164	1556.99539346415	1
0	6174	1558.566751795828	2
0	6177	1559.414629320095	1
0	6185	1560.301998678874	2
0	6189	1566.110094626652	1
0	6194	1566.587747250778	0
0	6223	1569.451503974288	1
0	6224	1569.547876818666	0
0	6240	1571.475293936429	1
0	6241	1571.825641927442	0
0	6269	1576.948204943764	1
0	6273	1577.376968847032	2
0	6276	1578.18979290453	1
0	6282	1578.600032206742	0
0	6327	1587.855571012118	1
0	6332	1589.367342319365	0
0	6338	1591.389053013717	1
0	6339	1591.423956068871	0
0	6377	1599.102558642438	1
0	6378	1599.367915161496	0
0	6393	1603.147751744387	1
0	6397	1603.435794881921	2
0	6399	1603.836209757884	3
0	6401	1604.365949696739	4
0	6402	1605.16446871071	3
0	6407	1607.215978354901	2
0	6417	1608.734268337094	1
0	6423	1609.877737304044	0
0	6435	1611.408647730123	1
0	6439	1614.59174333878	2
0	6441	1615.08538752243	3
0	6442	1615.806861375484	2
0	6448	1616.507979099806	3
0	6450	1618.129866268315	2
0	6455	1618.550387776241	1
0	6460	1618.733027803526	0
0	6466	1618.739593736579	1
0	6469	1619.261077634324	2
0	6470	1619.922691184626	1
0	6478	1621.266621446048	0
0	6489	1624.852009753182	1
0	6493	1625.895267566767	0
0	6514	1630.405988504495	1
0	6516	1631.184423192254	2
0	6517	1631.306547992457	1
0	6523	1632.187864700872	0
0	6550	1639.111209703919	1
0	6551	1640.31115655732	0
0	6608	1650.71911450928	1
0	6609	1651.737663331936	0
0	6615	1653.006177379968	1
0	6617	1653.903944719892	0
0	6626	1655.72586819959	1
0	6628	1657.893971347777	0
0	6650	1661.796901324351	1
0	6653	1663.3096570726	0
0	6670	1663.961767350591	1
0	6671	1664.368475533188	0
0	6677	1664.825520162702	1
0	6679	1666.994068165488	0
0	6692	1668.447302985245	1
0	6695	1668.780371204532	2
0	6700	1669.350381290469	1
0	6706	1669.419573212639	0
0	6725	1672.176326248145	1
0	6726	1672.228075431099	0
0	6735	1673.894940095453	1
0	6737	1674.792889444684	2
0	6738	1676.287019722626	1
0	6744	1677.827367388612	0
0	6753	1678.960680111871	1
0	6765	1683.816501671204	0
0	6802	1692.065397368777	1
0	6805	1695.639227997984	0
0	6816	1696.372202847429	1
0	6817	1697.48798413445	0
0	6868	1709.724083747292	1
0	6870	1710.421187613602	2
0	6871	1711.00539751702	1
0	6878	1713.275629001639	0
0	6895	1717.986213866486	1
0	6896	1718.71426881999	0
0	6949	1731.699576621862	1
0	6952	1733.589127446885	0
0	6960	1733.983973671449	1
0	6962	1734.101927881981	2
0	6964	1739.575966796467	3
0	6965	1740.003506349768	2
0	6971	1741.822754762447	1
0	6977	1742.261789644214	0
0	6983	1742.396174697987	1
0	6984	1742.404460597877	0
0	6997	1745.447135047512	1
0	6998	1745.880130201882	0
0	7004	1746.786359939685	1
0	7007	1748.594915342435	0
0	7022	1749.737365472067	1
0	7026	1751.649857976359	0
0	7060	1757.249655959777	1
0	7065	1759.493377303681	0
0	7071	1759.869561327519	1
0	7081	1763.555897997612	2
0	7082	1764.292286521725	1
0	7089	1765.832887810195	0
0	7100	1766.313438161218	1
0	7104	1767.941035337185	0
0	7110	1767.94293391932	1
0	7113	1768.652392533189	0
0	7162	1783.592455484954	1
0	7163	1783.866828390356	0
0	7169	1784.796060881233	1
0	7170	1784.850095651067	0
0	7177	1785.592270784592	1
0	7178	1785.735621428417	0
0	7191	1788.312726617389	1
0	7199	1791.956419261911	0
0	7212	1793.727744335248	1
0	7213	1793.895473224893	0
0	7219	1794.377145581319	1
0	7221	1794.381508986898	2
0	7223	1795.097568581013	1
0	7228	1795.592823915828	0
0	7267	1804.466265612081	1
0	7268	1805.736689995291	0
0	7282	1810.714685705452	1
0	7284	1812.080516024181	2
0	7286	1813.878066404201	3
0	7288	1814.211628625717	4
0	7289	1814.669034537721	3
0	7296	1815.262931458506	2
0	7303	1816.429003767254	1
0	7311	1816.858188110561	2
0	7313	1817.109758063702	3
0	7314	1817.164312658938	2
0	7322	1817.779448387844	3
0	7324	1817.891552929577	4
0	7326	1818.740499013827	3
0	7335	1821.218522660418	2
0	7339	1821.225669044256	3
0	7345	1822.298267776357	4
0	7346	1822.663121136982	3
0	7351	1824.159490796007	2
0	7356	1826.65248609352	1
0	7361	1826.998598005525	0
0	7368	1829.496952276664	1
0	7372	1830.119663766808	0
0	7384	1831.868993639262	1
0	7385	1831.905252766292	0
0	7394	1832.058153639269	1
0	7397	1832.906109236531	0
0	7403	1833.296109717843	1
0	7408	1836.242213409924	0
0	7422	1838.637916583234	1
0	7423	1838.977758699765	0
0	7442	1841.146349700013	1
0	7445	1841.997614003325	0
0	7465	1845.651239255121	1
0	7470	1847.16274077526	2
0	7471	1847.498229939615	1
0	7477	1847.950871837168	2
0	7481	1848.421041184864	1
0	7488	1850.924487746007	0
0	7505	1854.004994590765	1
0	7507	1855.326092423691	2
0	7510	1856.019470899192	1
0	7518	1856.904404017946	0
0	7541	1860.804971257102	1
0	7542	1861.109176412782	0
0	7611	1894.397967494287	1
0	7612	1894.983590568681	0
0	7619	1898.699655827888	1
0	7621	1900.051382997507	2
0	7622	1900.228960105802	1
0	7627	1900.518351400644	0
0	7698	1923.154924856182	1
0	7702	1924.40133300352	0
0	7717	1925.922881858212	1
0	7720	1929.256351925944	0
0	7772	1942.443270981394	1
0	7773	1942.975470818829	0
0	7780	1943.387255467534	1
0	7781	1944.80213436996	0
0	7803	1949.864917952598	1
0	7805	1949.923914539964	2
0	7806	1950.156811419309	1
0	7811	1950.694552283424	0
0	7887	1972.430009664394	1
0	7889	1972.763401960747	2
0	7890	1972.786782864905	1
0	7895	1973.204293221413	0
0	7919	1977.701941269831	1
0	7923	1979.838079828095	2
0	7924	1980.516533508393	1
0	7929	1980.77799691932	0
0	7936	1981.429136328899	1
0	7938	1981.733641632538	0
0	7957	1984.398596891806	1
0	7960	1984.459777711105	0
0	7971	1986.646286032583	1
0	7976	1987.302519586496	0
0	8002	1991.752230381613	1
0	8004	1991.915638724605	0
0	8026	1996.660992005826	1
0	8034	1999.276842632398	0
0	8049	2001.761079234025	1
0	8052	2002.149561588858	0
0	8061	2002.428947998499	1
0	8063	2003.130032329642	2
0	8067	2007.771228391817	1
0	8073	2008.350529830909	0
0	8079	2008.428317805434	1
0	8080	2008.488047310811	0
0	8153	2023.237377646396	1
0	8154	2024.112264832031	0
0	8177	2026.263728907249	1
0	8180	2029.092091063323	0
0	8197	2030.47178074537	1
0	8199	2031.354705421398	2
0	8201	2033.213173827821	1
0	8207	2033.361484886365	2
0	8209	2033.527351684009	3
0	8211	2034.093514487006	2
0	8216	2034.423826149397	1
0	8229	2037.468170927709	0
0	8237	2038.081726555582	1
0	8238	2039.074530187537	0
0	8299	2054.770765642216	1
0	8300	2054.915952129359	0
0	8339	2064.025510889422	1
0	8341	2064.112620349217	2
0	8345	2065.606390891451	1
0	8350	2065.915371400259	0
0	8364	2067.930914862843	1
0	8365	2068.425815292153	0
0	8401	2073.230665188655	1
0	8404	2074.557933245232	0
0	8462	2083.159789444057	1
0	8464	2085.865995406946	0
0	8491	2094.43143565618	1
0	8493	2094.550226659745	0
0	8554	2107.19136225101	1
0	8557	2108.35112390709	0
0	8664	2143.122157172785	1
0	8666	2144.000089951359	0
0	8735	2159.555280986914	1
0	8737	2160.187261400394	2
0	8738	2161.266755642002	1
0	8743	2161.480752489134	0
0	8756	2162.536278866606	1
0	8758	2162.852972485431	0
0	8804	2176.728599324331	1
0	8810	2178.652079416135	0
0	8831	2181.558441594852	1
0	8834	2182.586522354062	0
0	8840	2184.709788563864	1
0	8841	2184.886656290545	0
0	8853	2187.447381118824	1
0	8855	2190.001705264568	2
0	8857	2191.88119678638	3
0	8865	2194.628756415495	2
0	8871	2194.862578618357	3
0	8874	2195.86881035678	2
0	8879	2196.911143750484	1
0	8884	2197.042806441564	0
0	8901	2199.569693585598	1
0	8903	2199.778413584337	0
0	8917	2201.152551153545	1
0	8921	2202.667118465379	0
0	8954	2209.759963035758	1
0	8956	2209.885724217221	2
0	8957	2211.198552889375	1
0	8963	2211.265119361604	2
0	8964	2211.768515544743	1
0	8969	2211.893976408407	0
0	8975	2212.120388247478	1
0	8978	2212.461796247717	0
0	9020	2220.488175362739	1
0	9023	2222.005427429895	2
0	9025	2222.105297835953	3
0	9027	2222.929022179908	4
0	9031	2226.135924976498	5
0	9032	2227.9223666195	4
0	9039	2229.265055504811	3
0	9044	2230.967925241996	2
0	9049	2231.013741205883	1
0	9054	2231.445540937182	0
0	9062	2234.58370165424	1
0	9064	2234.585379258916	2
0	9066	2235.725815262156	1
0	9072	2235.961098429914	2
0	9077	2237.08020088498	3
0	9083	2238.091960642855	4
0	9085	2238.192083440354	5
0	9088	2238.527537703228	4
0	9093	2239.465769945946	3
0	9099	2240.881841857177	4
0	9100	2241.943800151958	3
0	9107	2242.257704618068	4
0	9108	2242.376440977319	3
0	9113	2242.905228006397	2
0	9120	2243.945458406739	1
0	9125	2244.116579520623	0
0	9131	2245.173441433877	1
0	9132	2246.216346992183	0
0	9138	2246.90024631809	1
0	9140	2247.761991726339	2
0	9141	2248.05963196464	1
0	9145	2248.508700494565	2
0	9151	2250.053276432832	1
0	9157	2250.37569419206	2
0	9160	2251.301496313685	1
0	9165	2252.341060092549	0
0	9169	2252.970292961126	1
0	9173	2253.558244187504	2
0	9176	2255.070173213682	1
0	9180	2256.566944924095	2
0	9185	2259.567841826416	1
0	9193	2261.186602422701	0
0	9200	2261.999481487316	1
0	9203	2263.129267985711	0
0	9246	2268.401968342181	1
0	9249	2268.77586923918	0
0	9262	2270.419686068187	1
0	9264	2270.909859293361	0
0	9278	2276.128112553226	1
0	9279	2277.845266639678	0
0	9285	2278.347973136842	1
0	9287	2280.020009133623	0
0	9295	2282.404827064212	1
0	9296	2282.564826411224	0
0	9319	2287.83303992683	1
0	9320	2287.852124179175	0
0	9327	2288.139573685698	1
0	9331	2290.022584294922	0
0	9348	2291.819934134234	1
0	9349	2291.826763267177	0
0	9369	2295.177547526183	1
0	9372	2298.00792897823	0
0	9383	2300.195155281314	1
0	9385	2300.829464737901	0
0	9404	2303.110241098848	1
0	9407	2304.30178794608	0
0	9435	2309.415343439266	1
0	9437	2310.176043979177	0
0	9478	2321.725670862496	1
0	9480	2323.711519114885	0
0	9515	2332.168126010462	1
0	9517	2332.89882704233	2
0	9523	2336.63530357734	3
0	9525	2336.752436700511	4
0	9528	2338.174724065795	5
0	9529	2339.439394823023	4
0	9535	2341.150453762031	3
0	9540	2341.567656752811	2
0	9547	2342.777049472215	1
0	9553	2345.737177254154	0
0	9591	2353.731362073718	1
0	9594	2354.035279056732	0
0	9627	2364.117484912992	1
0	9629	2364.547552517455	0
0	9644	2365.522992886247	1
0	9645	2365.999997827161	0
0	9671	2374.094167168152	1
0	9673	2374.623824921446	0
0	9691	2376.688976810277	1
0	9693	2378.060942461653	0
0	9715	2383.856475655157	1
0	9719	2390.641480697427	0
0	9745	2396.596655488106	1
0	9746	2398.301429569691	0
0	9789	2407.029577737433	1
0	9798	2409.288734684833	2
0	9799	2409.309241886063	1
0	9806	2410.414823540474	0
0	9819	2412.030210246321	1
0	9823	2413.87521760311	2
0	9824	2414.358570022595	1
0	9831	2415.093654203057	2
0	9832	2415.264397755083	1
0	9837	2415.644127953575	0
0	9881	2420.693445323089	1
0	9884	2422.651917673011	0
0	9901	2425.677672807703	1
0	9903	2426.408923629999	2
0	9904	2426.426168981874	1
0	9909	2427.289499010023	0
0	9932	2430.877789095069	1
0	9933	2430.899458960333	0
0	9954	2437.717577438005	1
0	9957	2439.98091996596	0
0	9971	2444.451534371752	1
0	9974	2445.991172852173	0
0	9980	2446.410543567579	1
0	9983	2448.224679856519	2
0	9986	2450.184974104562	3
0	9988	2451.151710117191	4
0	9991	2452.576644840254	3
0	9997	2452.641894287573	4
0	9998	2453.149964058512	3
0	10004	2454.929521898993	2
0	10009	2455.340395459013	1
0	10014	2455.370939023258	0
0	10022	2455.96215983309	1
0	10023	2457.422259356674	0
0	10043	2459.324140326029	1
0	10046	2460.306401158502	2
0	10048	2460.561504968787	3
0	10049	2461.370986728343	2
0	10055	2462.720400384196	1
0	10066	2465.063611818741	0
0	10079	2466.447519272651	1
0	10081	2466.710434096983	0
0	10105	2474.553118981147	1
0	10106	2474.789089317405	0
0	10124	2479.42937973532	1
0	10129	2480.521798484752	2
0	10131	2481.015503006452	1
0	10138	2481.729351879989	2
0	10139	2481.911284587137	1
0	10144	2481.954546455149	0
0	10177	2490.043015094978	1
0	10178	2490.06297738479	0
0	10209	2499.242354544604	1
0	10210	2499.634926683952	0
0	10228	2502.774830754418	1
0	10229	2503.013982500516	0
0	10236	2504.302622110762	1
0	10237	2504.488125369666	0
0	10245	2505.134235838133	1
0	10253	2509.182260524908	2
0	10254	2509.297754266781	1
0	10259	2509.317032213094	0
0	10277	2510.783767408966	1
0	10278	2512.586385659036	0
0	10292	2514.565184176319	1
0	10294	2516.581834422638	0
0	10306	2519.890864040205	1
0	10307	2520.519211047635	0
0	10334	2527.902266590932	1
0	10336	2527.950914222267	2
0	10339	2529.733581523232	1
0	10344	2530.101265479531	0
0	10386	2541.460911965814	1
0	10389	2545.404780355193	0
0	10395	2545.513964449674	1
0	10398	2547.71588533954	2
0	10400	2548.073806368423	3
0	10403	2548.886656711132	4
0	10406	2550.012395003221	3
0	10411	2550.29596784948	2
0	10417	2550.487823626667	3
0	10419	2551.298909250841	2
0	10424	2551.542144475721	1
0	10429	2551.656766331111	0
0	10451	2554.295598238096	1
0	10453	2554.985290299433	0
0	10467	2558.158028622896	1
0	10471	2561.031704256487	2
0	10472	2561.09527006809	1
0	10477	2561.221461010646	0
0	10481	2561.236747127737	1
0	10483	2563.004119445192	2
0	10485	2563.841067491688	3
0	10489	2564.307748154029	4
0	10495	2565.798242866492	3
0	10501	2566.313130327075	4
0	10502	2567.019186717111	3
0	10509	2568.90436979256	2
0	10514	2569.189758513619	1
0	10519	2569.259977409932	0
0	10527	2571.650506101516	1
0	10529	2573.216267353093	0
0	10548	2577.284941712112	1
0	10550	2577.47579932839	2
0	10551	2577.500529963316	1
0	10556	2578.109045517988	0
0	10562	2578.118864278824	1
0	10564	2578.269694927472	2
0	10566	2579.170977794003	3
0	10568	2579.449865830456	4
0	10579	2582.812043130672	5
0	10580	2583.200776659408	4
0	10586	2583.562580850636	5
0	10588	2585.264992825317	4
0	10593	2585.307599013392	3
0	10599	2585.729303963587	2
0	10605	2587.152009488233	1
0	10610	2587.426275764851	0
0	10637	2593.690174537264	1
0	10642	2596.475638445535	0
0	10657	2600.415116708041	1
0	10660	2602.913676400521	0
0	10669	2603.822226033473	1
0	10672	2604.249617806878	0
0	10683	2604.513056525977	1
0	10684	2604.581086839803	0
0	10693	2607.587673382261	1
0	10695	2607.972359078469	0
0	10721	2615.298924892522	1
0	10724	2616.64248596166	0
0	10743	2622.249723959187	1
0	10745	2622.737894680344	0
0	10774	2626.962162085529	1
0	10777	2627.616256532729	0
0	10781	2627.713966054837	1
0	10786	2629.599198180772	0
0	10797	2632.707264092736	1
0	10799	2633.697098521036	2
0	10801	2634.659659353111	1
0	10806	2634.809494233987	0
0	10827	2640.488358931856	1
0	10828	2640.788238845438	0
0	10836	2641.895930250796	1
0	10837	2642.238455003294	0
0	10863	2648.241681129609	1
0	10864	2648.905678039968	0
0	10873	2649.926871033598	1
0	10876	2650.724659950082	0
0	10899	2657.933967104442	1
0	10902	2660.290819345923	2
0	10904	2660.314603684903	3
0	10908	2662.321533789599	4
0	10909	2662.548113709963	3
0	10919	2664.241095025207	2
0	10924	2664.792327651226	1
0	10929	2665.351061356174	0
0	10970	2682.358660650749	1
0	10972	2683.503152651925	0
0	10997	2689.243929335366	1
0	10998	2689.441505739514	0
0	11028	2701.878134948195	1
0	11031	2703.251019246269	0
0	11038	2704.50109762807	1
0	11039	2704.729708777665	0
0	11048	2707.016255189532	1
0	11050	2707.030149471404	2
0	11052	2708.597568186211	1
0	11057	2708.888851932084	0
0	11081	2710.927993655194	1
0	11085	2713.925353748701	0
0	11104	2717.324736655789	1
0	11106	2717.548399255787	2
0	11107	2717.802342673274	1
0	11115	2719.665140522451	0
0	11124	2720.810800429224	1
0	11131	2724.361462538754	0
0	11144	2728.148329347027	1
0	11148	2729.165818383291	2
0	11155	2730.706555987423	1
0	11162	2732.60658841509	2
0	11167	2734.528897411578	3
0	11169	2734.530946994439	4
0	11174	2736.02491178722	3
0	11183	2738.511192398982	2
0	11189	2738.513914963054	3
0	11195	2741.541726209802	2
0	11200	2741.576746777079	1
0	11206	2741.719310957247	2
0	11209	2742.489600594103	3
0	11210	2742.529341047358	2
0	11215	2742.848696607657	1
0	11220	2743.829164176333	0
0	11224	2746.314193971433	1
0	11226	2746.834642348691	2
0	11229	2747.640236117583	1
0	11235	2748.456251064472	0
0	11266	2753.550565817546	1
0	11267	2753.654657268815	0
0	11276	2754.357765882214	1
0	11277	2754.373565462197	0
0	11304	2759.200006293626	1
0	11307	2759.793425404302	2
0	11308	2759.83863538181	1
0	11313	2760.209734363345	0
0	11324	2760.548206599324	1
0	11327	2760.941818244908	0
0	11343	2762.723335142753	1
0	11347	2762.955531693653	0
0	11366	2768.946147794196	1
0	11368	2769.109298061482	2
0	11369	2769.50607882852	1
0	11374	2770.135276250726	0
0	11395	2776.506070202172	1
0	11401	2778.949741432058	0
0	11407	2779.438303610799	1
0	11409	2779.46648505427	2
0	11411	2779.991803799099	1
0	11418	2781.476104008404	2
0	11419	2781.959162966689	1
0	11427	2782.883784553905	2
0	11428	2783.085555476805	1
0	11436	2785.58631889228	0
0	11442	2785.596562196919	1
0	11443	2786.392921140269	0
0	11449	2786.464120403358	1
0	11450	2787.075661814861	0
0	11467	2789.428470607829	1
0	11468	2789.681491663019	0
0	11585	2815.83995966538	1
0	11590	2816.862737695604	2
0	11593	2817.140545196348	3
0	11595	2818.791873914153	2
0	11601	2819.213767809552	1
0	11606	2819.405055093905	0
0	11612	2820.005240357246	1
0	11613	2820.27842188546	0
0	11625	2822.685933061514	1
0	11628	2823.345763436959	0
0	11673	2834.836384338933	1
0	11677	2837.286338617761	2
0	11684	2839.36268298374	1
0	11693	2840.52200942849	2
0	11694	2840.650489523955	1
0	11701	2841.61610806277	2
0	11702	2841.707161308679	1
0	11708	2842.400953349689	2
0	11710	2842.95428823591	3
0	11711	2842.965925000071	2
0	11717	2843.241260507593	3
0	11720	2846.109111880686	2
0	11725	2846.36106756848	1
0	11731	2847.221375084505	2
0	11737	2850.517060886935	1
0	11743	2850.944219609202	2
0	11744	2852.867421877998	1
0	11750	2854.006634351999	2
0	11753	2854.522416873822	1
0	11766	2857.551646005728	2
0	11767	2859.230415242761	1
0	11773	2859.659710607969	0
0	11800	2862.635627385285	1
0	11804	2863.48232230872	0
0	11810	2863.485332498897	1
0	11811	2863.568984474029	0
0	11817	2864.160404731985	1
0	11823	2866.881169415677	0
0	11853	2872.941577518728	1
0	11854	2873.325041208212	0
0	11867	2874.741159359754	1
0	11868	2875.050023718861	0
0	11881	2875.966858183804	1
0	11883	2876.603842504345	2
0	11884	2876.635595474881	1
0	11889	2877.040096428831	0
0	11904	2878.22303193977	1
0	11907	2878.950012778036	0
0	11913	2879.01025989238	1
0	11915	2879.629846743904	0
0	11951	2887.978675060561	1
0	11952	2888.11934096945	0
0	11963	2890.776835102029	1
0	11965	2891.001094176183	2
0	11966	2891.178541998531	1
0	11972	2892.370733890667	0
0	11987	2895.790856639412	1
0	11988	2896.704078180289	0
0	12030	2913.157697627645	1
0	12032	2913.571227434334	2
0	12034	2914.187711871569	3
0	12036	2914.326484932927	4
0	12039	2915.819463137165	3
0	12046	2916.321068833581	2
0	12052	2916.63633627636	1
0	12058	2916.747878687614	2
0	12060	2916.970038998515	3
0	12061	2917.033013095037	2
0	12066	2917.16703536758	1
0	12070	2917.355803043198	2
0	12072	2917.36742064826	3
0	12075	2917.502243617593	2
0	12079	2917.797756763557	3
0	12082	2920.844181658914	2
0	12086	2921.110778787918	3
0	12091	2923.97707122101	2
0	12096	2926.794040449335	1
0	12100	2927.20816859458	2
0	12104	2930.94442889797	3
0	12106	2933.294602225912	2
0	12111	2933.825868446012	1
0	12118	2935.005477864384	0
0	12124	2935.578745630502	1
0	12128	2936.404161429958	0
0	12147	2938.205599016337	1
0	12148	2938.79547408681	0
0	12160	2940.939741154276	1
0	12167	2943.455051376425	0
0	12187	2948.69262949941	1
0	12188	2951.116871548827	0
0	12200	2951.525143294655	1
0	12201	2951.775064001204	0
0	12223	2954.973971067522	1
0	12224	2955.351424428958	0
0	12247	2964.55596738173	1
0	12250	2965.395380710874	0
0	12266	2972.691695203311	1
0	12267	2973.128948783026	0
0	12273	2974.067500986402	1
0	12278	2975.038693764978	2
0	12279	2975.24463098461	1
0	12284	2978.697113788715	0
0	12321	2986.710764945496	1
0	12322	2987.822725758034	0
0	12351	2991.012941031067	1
0	12355	2991.81729846429	0
0	12387	2999.762950577312	1
0	12391	3002.079945622139	2
0	12393	3004.844852974469	3
0	12395	3006.003196625961	4
0	12396	3006.387739939943	3
0	12401	3006.72540316841	2
0	12406	3007.092180754853	1
0	12411	3007.175845336613	0
0	12422	3009.170038770741	1
0	12424	3010.380150120188	0
0	12428	3011.085041508333	1
0	12432	3012.647592523283	2
0	12435	3014.070738573468	1
0	12440	3014.084689232526	0
0	12457	3017.781290276226	1
0	12458	3019.071545718394	0
0	12470	3020.484646829717	1
0	12474	3021.934931821038	2
0	12475	3022.335269069601	1
0	12480	3022.509471345782	0
0	12484	3025.892672131156	1
0	12487	3029.237837589505	0
0	12502	3033.358058352856	1
0	12503	3034.476293079817	0
0	12510	3034.818751005394	1
0	12512	3035.489923648549	0
0	12542	3044.281646960818	1
0	12546	3045.68243994547	0
0	12568	3049.733735990728	1
0	12570	3049.777360360744	2
0	12571	3049.779179139211	1
0	12576	3050.431972087773	0
0	12597	3058.318346135208	1
0	12600	3059.053288842873	0
0	12632	3079.378182780565	1
0	12634	3080.364268319012	0
0	12640	3080.410504910946	1
0	12642	3080.770325346723	2
0	12644	3081.009616981051	3
0	12645	3081.302420940309	2
0	12652	3081.604915671929	1
0	12659	3082.329756227916	2
0	12660	3084.525602395254	1
0	12665	3084.600011499622	0
0	12671	3084.682633618854	1
0	12672	3086.924611470949	0
0	12720	3107.683497231236	1
0	12721	3107.696196824856	0
0	12728	3108.010864872608	1
0	12730	3109.832953270092	0
0	12736	3110.143655563998	1
0	12737	3110.5387788133	0
0	12754	3114.852426284876	1
0	12755	3116.373960279251	0
0	12771	3118.8187049775	1
0	12772	3119.56096602018	0
0	12791	3126.670095374416	1
0	12792	3127.002897472064	0
0	12808	3132.300525227355	1
0	12810	3132.407611971246	0
0	12841	3144.041699048707	1
0	12842	3144.727964782413	0
0	12872	3154.119284315976	1
0	12873	3154.392776424795	0
0	12884	3157.590805091645	1
0	12886	3157.699902289286	2
0	12888	3158.524488940111	3
0	12889	3158.842850241655	2
0	12895	3160.427878251531	3
0	12896	3160.912852956576	2
0	12901	3161.162157909698	1
0	12908	3161.902906272531	0
0	12975	3171.5824032199	1
0	12976	3172.039823491901	0
0	13018	3183.05220195922	1
0	13019	3183.590129308976	0
0	13027	3185.209225557699	1
0	13028	3185.966273028963	0
0	13052	3190.459158444198	1
0	13053	3193.578524403217	0
0	13110	3207.257726722624	1
0	13111	3208.15083846784	0
0	13121	3209.633209069196	1
0	13122	3210.431663464675	0
0	13131	3212.126081586421	1
0	13133	3214.519470181914	0
0	13144	3214.898503088919	1
0	13145	3216.020571507976	0
0	13172	3220.578597772229	1
0	13173	3221.771754294276	0
0	13194	3229.358802701525	1
0	13195	3229.598513502693	0
0	13219	3238.328511381767	1
0	13221	3239.059213995391	2
0	13222	3239.223990388044	1
0	13227	3239.841564279757	0
0	13236	3240.176936679631	1
0	13244	3241.31587958827	0
0	13289	3259.123245174799	1
0	13292	3259.51058939443	2
0	13294	3262.070541203318	3
0	13296	3262.757353559265	2
0	13307	3265.852047545091	3
0	13308	3266.986044278008	2
0	13314	3267.187202841094	3
0	13315	3267.409982621057	2
0	13320	3267.582351836319	1
0	13327	3268.037583734319	0
0	13384	3281.433491499596	1
0	13387	3281.949039801456	0
0	13394	3282.310977176261	1
0	13396	3283.064657595886	0
0	13407	3283.348205622502	1
0	13408	3284.071765249805	0
0	13416	3284.58052279648	1
0	13418	3285.018170922067	2
0	13424	3285.225953125233	1
0	13429	3285.239977439983	0
0	13479	3293.5083472338	1
0	13482	3295.856920923977	0
0	13496	3299.047274226301	1
0	13500	3299.935090792997	2
0	13501	3299.951186759986	1
0	13506	3301.306599466309	0
0	13535	3311.076217031005	1
0	13536	3311.392865090205	0
0	13542	3311.876639221271	1
0	13544	3312.339530573095	2
0	13547	3312.929466288969	1
0	13554	3315.635604740862	2
0	13555	3316.057539473159	1
0	13561	3316.10540547006	0
0	13579	3318.708371987341	1
0	13580	3319.781008957123	0
0	13598	3320.206270102784	1
0	13600	3322.185275178173	0
0	13640	3337.875906719641	1
0	13644	3340.528959164282	2
0	13645	3341.9273020926	1
0	13651	3343.320138049812	0
0	13673	3345.663042931327	1
0	13675	3346.108585179811	2
0	13676	3347.626260760447	1
0	13681	3347.836774174422	0
0	13687	3348.010921616139	1
0	13689	3348.308630644322	2
0	13694	3350.622699965566	3
0	13696	3351.048970503857	4
0	13697	3353.468730542447	3
0	13704	3355.255967076329	2
0	13709	3355.367040069118	1
0	13715	3357.457424264197	0
0	13721	3357.731789786598	1
0	13722	3357.805787082887	0
0	13728	3358.788592400553	1
0	13729	3358.844666983623	0
0	13754	3365.75477580221	1
0	13756	3366.251485528433	2
0	13759	3366.987221673532	1
0	13767	3368.058219361962	0
0	13783	3371.69195460283	1
0	13788	3372.808827187229	2
0	13790	3372.844390286681	3
0	13792	3373.97466318347	2
0	13797	3373.97745865295	1
0	13803	3374.904262294607	0
0	13831	3381.874609261971	1
0	13833	3382.389935482548	2
0	13834	3382.415718489913	1
0	13839	3382.428925595239	0
0	13861	3387.808863899129	1
0	13865	3390.040738620501	2
0	13867	3390.499594800276	1
0	13874	3391.354308823054	0
0	13894	3394.318175448423	1
0	13896	3394.876468977686	2
0	13898	3395.598650950621	1
0	13905	3397.112139776492	2
0	13906	3397.886034876212	1
0	13914	3399.268905427314	2
0	13916	3399.436198182052	3
0	13917	3399.881217438448	2
0	13925	3401.183548641811	1
0	13930	3401.189618396392	0
0	13947	3402.133748258792	1
0	13949	3402.876070570913	2
0	13950	3403.276412638555	1
0	13956	3404.182120204788	0
0	13963	3405.901556434114	1
0	13966	3407.379310351937	0
0	13987	3412.637996833234	1
0	13989	3412.712564481744	2
0	13991	3414.938709922333	1
0	13997	3415.715838912618	2
0	14000	3417.341758842884	3
0	14001	3418.324546396947	2
0	14006	3418.906377954265	1
0	14015	3421.144982004663	0
0	14028	3424.845582213209	1
0	14029	3425.959178932744	0
0	14048	3429.938705687918	1
0	14049	3430.044685537455	0
0	14062	3430.635970005008	1
0	14064	3432.087295427025	2
0	14068	3433.811362243482	1
0	14073	3435.023333914458	0
0	14094	3437.552333097705	1
0	14095	3438.043292256097	0
0	14124	3451.264912877128	1
0	14129	3453.735925606438	2
0	14133	3454.51603923734	3
0	14135	3454.595474871744	4
0	14137	3455.583878083753	5
0	14138	3457.215715083362	4
0	14145	3458.914256517044	3
0	14151	3459.085661666694	4
0	14154	3460.351438117117	3
0	14160	3460.515689671088	4
0	14162	3461.489400524462	3
0	14167	3461.531944768268	2
0	14172	3461.939381553793	1
0	14178	3462.627681025039	2
0	14185	3464.291344508632	3
0	14186	3464.927238825358	2
0	14196	3467.113961420444	1
0	14201	3468.542993713277	0
0	14207	3468.912073499037	1
0	14208	3470.133969915682	0
0	14226	3472.58639681764	1
0	14228	3472.932785864111	2
0	14229	3472.978480296763	1
0	14235	3473.692241276812	0
0	14273	3485.448748253493	1
0	14278	3486.936659614718	0
0	14295	3490.847981543215	1
0	14299	3491.710742190614	2
0	14300	3491.979552235906	1
0	14305	3492.122893920523	0
0	14316	3493.586183099748	1
0	14317	3494.241281768903	0
0	14349	3502.416531988792	1
0	14351	3502.618532719974	2
0	14352	3502.670364320869	1
0	14357	3502.939999099121	0
0	14386	3514.414866459698	1
0	14387	3514.726326983182	0
0	14391	3516.001092243333	1
0	14395	3520.726576746588	0
0	14414	3521.684123837703	1
0	14415	3523.094474977373	0
0	14431	3526.90724695185	1
0	14432	3527.121909084777	0
0	14446	3531.562720511232	1
0	14448	3532.50247649728	2
0	14449	3534.332638405362	1
0	14453	3534.680901454222	2
0	14458	3536.685328706356	1
0	14462	3538.007057272554	2
0	14469	3541.159774393162	3
0	14471	3542.274182258851	4
0	14475	3542.952644965615	5
0	14476	3543.011402510627	4
0	14482	3543.213349668286	5
0	14484	3543.474312517857	6
0	14485	3544.310640506896	5
0	14489	3547.586670607189	6
0	14492	3547.88677906218	5
0	14498	3548.096295209401	6
0	14500	3548.277541173007	7
0	14502	3549.266089969344	8
0	14503	3550.512351659651	7
0	14507	3550.598017607308	8
0	14509	3551.045311202888	9
0	14512	3552.3889996065	8
0	14518	3553.121529526892	9
0	14522	3557.132374583252	8
0	14527	3557.964004627265	7
0	14531	3559.450841754011	8
0	14535	3561.200349515147	9
0	14541	3562.20846865946	10
0	14543	3562.565625022868	9
0	14548	3562.887860400677	8
0	14553	3562.932376268407	7
0	14558	3563.244628908906	6
0	14563	3564.511132695178	5
0	14567	3565.614543154441	6
0	14573	3568.550493245795	5
0	14579	3568.879710007806	6
0	14580	3569.331194350211	5
0	14586	3571.545827540171	4
0	14592	3571.822546872446	3
0	14598	3571.883764941739	2
0	14605	3574.223876675845	1
0	14609	3574.934048204168	2
0	14617	3577.428653320819	3
0	14618	3578.330477529426	2
0	14625	3581.349216419038	3
0	14627	3583.932798492594	4
0	14628	3583.972784745143	3
0	14634	3586.178764557116	2
0	14639	3586.943203732073	1
0	14644	3588.874019247436	0
0	14653	3590.368020101381	1
0	14654	3590.76721011904	0
0	14665	3590.804375792857	1
0	14667	3591.744275312882	2
0	14669	3593.103816591289	1
0	14676	3593.735787902895	0
0	14692	3597.773607711823	1
0	14693	3598.3238717966	0
0	14714	3601.033911044222	1
0	14715	3601.093151777951	0
0	14731	3602.234953975725	1
0	14734	3604.757794179799	0
0	14753	3606.114866474935	1
0	14757	3608.10296020889	0
0	14798	3619.940969408856	1
0	14800	3620.465295340548	2
0	14806	3623.553897099776	3
0	14808	3624.910519317628	4
0	14809	3628.078920042363	3
0	14816	3628.27634786991	4
0	14817	3628.928179667565	3
0	14823	3629.024110001294	4
0	14824	3629.654692667623	3
0	14829	3629.944840431197	2
0	14839	3631.003630713411	1
0	14846	3632.965015067721	2
0	14850	3634.194101914305	1
0	14856	3635.485338524935	2
0	14857	3635.738784661917	1
0	14862	3636.978945584845	0
0	14899	3641.000511547595	1
0	14903	3641.722852085941	0
0	14909	3642.972795203945	1
0	14911	3646.181196582479	2
0	14913	3647.229576274602	3
0	14916	3649.794871637248	2
0	14922	3650.251396024734	3
0	14923	3650.519111852661	2
0	14928	3654.130597426074	1
0	14933	3654.611397305392	0
0	14939	3656.487110822465	1
0	14945	3659.494928627677	0
0	14958	3660.30834225201	1
0	14960	3661.738929934125	0
0	14966	3662.854965473445	1
0	14969	3664.403964433966	0
0	14993	3666.946357363855	1
0	14998	3669.124001388695	2
0	14999	3669.155796067684	1
0	15006	3669.327489631316	2
0	15007	3669.458819790515	1
0	15012	3669.603229046913	0
0	15037	3673.287076708536	1
0	15039	3673.699258888192	0
0	15059	3680.168720009902	1
0	15061	3680.926197937185	2
0	15065	3684.68514069154	3
0	15066	3685.1583534858	2
0	15073	3686.528567164875	1
0	15079	3687.762229039758	0
0	15098	3692.539990474928	1
0	15104	3694.301826661411	0
0	15110	3695.178253947262	1
0	15111	3695.225258528093	0
0	15120	3697.112233283057	1
0	15124	3698.069146879672	0
0	15135	3702.412877655815	1
0	15139	3703.581300825908	2
0	15140	3703.929881801215	1
0	15145	3704.101416996451	0
0	15156	3705.184761763102	1
0	15159	3705.408884263286	0
0	15174	3708.266567540486	1
0	15179	3709.40916800928	2
0	15181	3709.852736995989	3
0	15182	3711.142754380992	2
0	15187	3711.802702523409	1
0	15192	3712.218308787631	0
0	15198	3712.230126553869	1
0	15201	3712.512627570337	2
0	15204	3715.851135861613	1
0	15209	3716.72486235933	0
0	15242	3725.038031745967	1
0	15244	3726.293816240374	0
0	15293	3747.450474922392	1
0	15296	3747.984535061294	2
0	15299	3748.894041165518	1
0	15304	3749.492226127281	0
0	15319	3754.493555348615	1
0	15320	3755.129237877913	0
0	15359	3766.83687303198	1
0	15361	3767.021604860385	2
0	15363	3767.870755804692	3
0	15365	3768.655959464665	4
0	15366	3768.810525661885	3
0	15371	3769.028726350828	2
0	15378	3770.005224622895	3
0	15381	3771.346785424823	2
0	15391	3772.859816328036	3
0	15394	3772.950788991409	2
0	15400	3773.777284958373	3
0	15401	3773.955909222739	2
0	15409	3776.132597692388	1
0	15416	3776.893526448147	0
0	15440	3783.658604577764	1
0	15441	3784.388296399816	0
0	15461	3793.868238706398	1
0	15462	3793.9959778005	0
0	15475	3795.023029912598	1
0	15478	3796.46551022484	0
0	15487	3798.297679135222	1
0	15488	3798.52999812923	0
0	15494	3798.826125034424	1
0	15497	3800.133667021754	0
0	15510	3802.340783323318	1
0	15513	3803.057138977076	0
0	15540	3805.974458404726	1
0	15541	3807.134347578053	0
0	15554	3808.665532502687	1
0	15557	3810.832520556515	0
0	15592	3824.321232778971	1
0	15594	3825.424347526548	2
0	15595	3828.463209110332	1
0	15600	3828.864971024211	0
0	15606	3829.816265895338	1
0	15608	3831.153426500474	0
0	15614	3831.822018947149	1
0	15615	3832.449065881543	0
0	15663	3842.819607969317	1
0	15664	3843.21460324916	0
0	15686	3845.629996538897	1
0	15688	3846.972774964056	0
0	15745	3865.531528072848	1
0	15748	3865.813278196688	2
0	15749	3866.180155669391	1
0	15759	3867.134732629527	2
0	15760	3867.725284301673	1
0	15766	3869.130149341246	0
0	15785	3870.404007664556	1
0	15786	3870.663601620366	0
0	15836	3883.763368674511	1
0	15838	3884.199292115356	2
0	15839	3885.093938540871	1
0	15845	3886.208326729529	2
0	15846	3886.252456406672	1
0	15853	3887.699971438862	0
0	15891	3903.896665038166	1
0	15892	3904.635269481479	0
0	15972	3930.126814443896	1
0	15973	3930.236353049886	0
0	15986	3932.804424751295	1
0	15990	3933.355591588125	0
0	16018	3939.658536219161	1
0	16020	3939.887733623279	0
0	16027	3941.691269010249	1
0	16031	3942.167966467082	0
0	16080	3955.975266248575	1
0	16081	3957.403749034763	0
0	16095	3958.131337919012	1
0	16097	3958.664012310866	2
0	16098	3959.575435069719	1
0	16106	3960.436769018441	0
0	16145	3965.858732072932	1
0	16147	3966.354927300585	0
0	16179	3974.592305378812	1
0	16180	3974.908495398273	0
0	16209	3982.473065018552	1
0	16215	3983.178071316499	0
0	16222	3983.921253814355	1
0	16225	3984.483393212859	2
0	16228	3985.351488453902	1
0	16234	3986.112458568902	0
0	16289	3999.574311765601	1
0	16292	4000.16895767259	2
0	16293	4000.357239202298	1
0	16299	4001.029945181781	0
0	16311	4002.354947470436	1
0	16313	4002.970500069372	2
0	16314	4004.371852812881	1
0	16319	4005.051593401818	0
0	16325	4005.887495947015	1
0	16327	4007.083774008318	2
0	16330	4007.44606776312	3
0	16331	4007.620927111821	2
0	16337	4007.807264561917	3
0	16339	4007.853429171076	4
0	16341	4009.294526669152	3
0	16346	4009.420216813876	2
0	16354	4010.542196564138	1
0	16359	4011.162311283954	0
0	16391	4019.097038794215	1
0	16394	4021.237141881609	2
0	16395	4021.475212666345	1
0	16402	4023.245752002913	0
0	16458	4037.932496608288	1
0	16460	4038.08540310471	2
0	16462	4039.096178085599	3
0	16463	4039.3886395551	2
0	16470	4039.636298710514	1
0	16476	4040.283822344972	0
0	16504	4051.62128784787	1
0	16506	4054.12354630999	0
0	16521	4056.683656177826	1
0	16522	4057.383897312152	0
0	16536	4061.277442024368	1
0	16538	4062.032703527729	2
0	16539	4062.664242451233	1
0	16545	4063.738796498962	2
0	16548	4067.198057392062	1
0	16552	4067.259875109842	2
0	16554	4067.837186321267	3
0	16556	4068.04485590484	4
0	16561	4069.405901802587	3
0	16565	4069.495351589846	4
0	16571	4070.989228089844	5
0	16573	4071.04561445441	4
0	16580	4073.124366392746	5
0	16581	4073.563793372369	4
0	16587	4075.168958178284	5
0	16588	4075.434235306691	4
0	16593	4076.025882535465	3
0	16600	4079.763254010253	2
0	16605	4081.696939013928	1
0	16616	4084.034217716426	2
0	16618	4084.242911602079	3
0	16620	4084.692977484704	4
0	16625	4088.135305062054	3
0	16630	4088.811486994081	2
0	16636	4089.499332248383	3
0	16637	4089.508875736575	2
0	16643	4092.11526118877	1
0	16650	4092.56383038561	0
0	16676	4095.369964273087	1
0	16681	4097.93429106642	0
0	16720	4106.928674355697	1
0	16723	4108.005497307676	0
0	16732	4108.67524643995	1
0	16734	4109.228804240349	2
0	16736	4110.020982545511	3
0	16738	4110.589321344068	4
0	16741	4111.265570897229	3
0	16746	4111.680343052662	2
0	16751	4111.83107711199	1
0	16757	4112.480234183553	0
0	16767	4114.245376196836	1
0	16772	4116.816654067213	0
0	16795	4125.152131875262	1
0	16797	4125.832687365175	0
0	16806	4126.632725787923	1
0	16808	4127.335397499463	2
0	16810	4127.658908332736	3
0	16812	4127.895911367486	4
0	16816	4129.590135049887	5
0	16818	4130.256359929054	6
0	16820	4130.264817809332	7
0	16821	4131.265863947804	6
0	16826	4131.703012285968	5
0	16834	4132.313492527033	6
0	16835	4133.280925729349	5
0	16840	4133.6405371584	4
0	16846	4134.49064362574	3
0	16851	4134.722993549287	2
0	16865	4138.271726306545	3
0	16866	4138.69566811705	2
0	16872	4138.728757655508	1
0	16877	4139.546127149164	0
0	16883	4140.707965339345	1
0	16884	4140.873010429226	0
0	16892	4141.379448848899	1
0	16894	4141.767737194732	2
0	16896	4143.170285357895	1
0	16903	4144.6311298292	0
0	16960	4159.328269530179	1
0	16963	4160.167793926183	0
0	16974	4160.256024220324	1
0	16975	4160.689951153361	0
0	17035	4180.664599396252	1
0	17036	4182.613737413102	0
0	17043	4182.82330152644	1
0	17044	4184.563561061373	0
0	17050	4185.34141488893	1
0	17052	4185.668969439689	0
0	17115	4208.45498282526	1
0	17116	4209.098995390687	0
0	17131	4212.823472504083	1
0	17134	4213.981095651518	0
0	17152	4217.066351833776	1
0	17156	4217.820716841009	2
0	17161	4220.828922843247	1
0	17166	4221.419629957089	0
0	17200	4231.259255667895	1
0	17201	4231.855780979199	0
0	17224	4233.592682004368	1
0	17229	4236.758107649	0
0	17243	4240.256030708988	1
0	17246	4241.755076555478	0
0	17318	4275.254745511701	1
0	17319	4276.010973167644	0
0	17325	4276.116473737099	1
0	17326	4276.34786042004	0
0	17341	4279.155260807347	1
0	17343	4279.878081809988	2
0	17344	4280.098582088081	1
0	17353	4281.637198111968	0
0	17370	4282.251852619021	1
0	17375	4285.955815385403	2
0	17377	4288.7786110044	1
0	17382	4288.825729261536	0
0	17404	4291.228930493307	1
0	17407	4292.547511455858	0
0	17444	4302.088221713405	1
0	17448	4302.752976174346	2
0	17449	4303.057628924545	1
0	17455	4303.330354960552	0
0	17461	4303.911930526775	1
0	17462	4304.233661211998	0
0	17488	4307.007601773846	1
0	17489	4307.454438594665	0
0	17503	4312.285462688269	1
0	17505	4313.362896469733	0
0	17528	4318.102624767847	1
0	17529	4319.441063371646	0
0	17583	4335.7849538666	1
0	17585	4336.350734874409	2
0	17586	4337.056071152894	1
0	17592	4337.543203831758	2
0	17593	4338.49581916308	1
0	17598	4339.39679203318	0
0	17610	4341.783448257978	1
0	17614	4343.551303106261	0
0	17654	4349.717746730422	1
0	17657	4350.58910719585	0
0	17674	4352.275657249083	1
0	17678	4354.370242126615	2
0	17679	4355.421611122374	1
0	17684	4356.919234395883	0
0	17702	4361.111455980114	1
0	17704	4361.135110482104	2
0	17707	4362.949167835874	1
0	17713	4363.549950614739	2
0	17715	4364.794730792008	1
0	17721	4365.120900289012	2
0	17723	4365.741809375831	3
0	17725	4366.16982169342	4
0	17726	4366.913456124138	3
0	17734	4369.65765956164	2
0	17740	4372.425477538726	1
0	17747	4373.311803219442	2
0	17748	4374.062994597903	1
0	17754	4375.806240447542	0
0	17806	4392.244931403582	1
0	17808	4392.45025240842	0
0	17822	4395.108903527419	1
0	17823	4395.316617264188	0
0	17880	4405.187500671325	1
0	17883	4406.050031611665	2
0	17885	4406.547774410594	1
0	17891	4407.297710550805	0
0	17917	4418.894926929996	1
0	17918	4419.198166642803	0
0	17931	4419.781959776876	1
0	17934	4421.529345713092	0
0	17956	4430.175323616451	1
0	17958	4430.844170608643	2
0	17961	4435.834564567634	1
0	17970	4438.97967368279	0
0	18012	4447.564795302093	1
0	18013	4448.286642788193	0
0	18025	4450.984338348408	1
0	18027	4451.017645043462	2
0	18031	4452.547825388341	1
0	18036	4453.410112827886	0
0	18098	4473.045845744982	1
0	18099	4473.975748844204	0
0	18132	4483.477784675269	1
0	18136	4483.739491838245	0
0	18182	4493.668304788601	1
0	18184	4493.950203779793	2
0	18185	4494.142934894584	1
0	18191	4494.246458859036	2
0	18193	4494.604269076059	1
0	18198	4494.76996673366	0
0	18212	4497.031521603569	1
0	18213	4497.657570906512	0
0	18234	4502.310340910347	1
0	18235	4502.697906111377	0
0	18243	4503.493124933306	1
0	18244	4504.705304973424	0
0	18282	4516.083021844926	1
0	18285	4518.757407613339	0
0	18291	4519.166232271709	1
0	18293	4520.211884433723	0
0	18300	4520.632119017851	1
0	18304	4521.362867911817	2
0	18305	4521.964522341121	1
0	18311	4522.12714420131	0
0	18338	4526.378126425889	1
0	18340	4527.370154743919	2
0	18344	4527.786072246036	3
0	18346	4528.085388323232	4
0	18349	4529.824296371387	3
0	18354	4530.058088201108	2
0	18360	4530.069278526188	3
0	18362	4530.865495294039	2
0	18367	4531.004197273824	1
0	18375	4536.121171072409	0
0	18382	4538.020325168295	1
0	18383	4539.501472484794	0
0	18441	4554.576592563751	1
0	18442	4556.53994388255	0
0	18476	4567.240157415173	1
0	18479	4568.524855911872	0
0	18485	4568.688171123552	1
0	18488	4568.701894294464	2
0	18489	4570.00460773491	1
0	18494	4570.128461823775	0
0	18533	4588.444916232351	1
0	18535	4588.479642326086	2
0	18536	4589.075288053167	1
0	18542	4590.724194891564	0
0	18582	4598.518225926995	1
0	18584	4599.348538571097	2
0	18589	4601.683342782871	1
0	18595	4602.081592187503	0
0	18601	4602.577171874183	1
0	18602	4603.759195743814	0
0	18610	4603.825642993373	1
0	18612	4604.308287758863	2
0	18613	4605.218317884431	1
0	18626	4608.806572787951	0
0	18632	4609.137624581295	1
0	18633	4609.714651949948	0
0	18650	4611.147203609865	1
0	18653	4612.080768221404	0
0	18659	4612.398864055019	1
0	18664	4615.992346916724	0
0	18674	4616.961282308358	1
0	18675	4617.78460456557	0
0	18736	4634.236370855585	1
0	18737	4634.542455881475	0
0	18776	4643.929354903313	1
0	18779	4644.631466814763	2
0	18780	4645.526361252886	1
0	18786	4646.230466687034	0
0	18819	4655.056361207439	1
0	18822	4656.352792149276	0
0	18833	4656.660706533813	1
0	18837	4657.882079768012	2
0	18839	4658.411308168898	3
0	18840	4661.932021628094	2
0	18846	4662.298245258263	3
0	18848	4663.13948089073	4
0	18854	4665.879588577604	5
0	18856	4666.90811385683	6
0	18858	4667.650610560727	7
0	18859	4667.867073473871	6
0	18864	4667.890882825723	5
0	18869	4668.947802842295	4
0	18877	4669.385205590555	5
0	18881	4670.335944928949	4
0	18887	4670.497280788059	5
0	18892	4673.525685177505	4
0	18897	4673.564081587321	3
0	18903	4673.731994102366	4
0	18907	4675.416274270503	3
0	18912	4675.798203881754	2
0	18919	4675.903481445643	3
0	18921	4675.960949011199	4
0	18923	4675.996229950929	5
0	18926	4677.885884568085	4
0	18933	4679.036255686565	5
0	18934	4679.618925715814	4
0	18940	4679.767444044982	5
0	18943	4680.805174543312	6
0	18945	4680.846859688206	7
0	18946	4681.103549384394	6
0	18952	4681.137824799548	7
0	18955	4681.503474672657	6
0	18960	4681.793330235888	5
0	18966	4682.802532343543	4
0	18971	4682.947885883199	3
0	18979	4684.10169904366	4
0	18980	4684.525095404191	3
0	18985	4684.785529439616	2
0	18995	4686.293985013087	3
0	18996	4687.233793270725	2
0	19003	4688.228410378418	3
0	19004	4688.261950608222	2
0	19010	4689.225035858833	1
0	19016	4690.150809057016	0
0	19030	4691.24437530115	1
0	19031	4691.860969213113	0
0	19059	4692.910306854362	1
0	19061	4694.389284538887	2
0	19063	4694.755343033146	3
0	19064	4695.47256656161	2
0	19070	4696.031254805097	1
0	19076	4697.108715487183	0
0	19085	4697.551602983104	1
0	19087	4697.789108406363	2
0	19091	4698.461665981255	1
0	19098	4699.91928264131	2
0	19099	4700.634684987492	1
0	19105	4701.183878890871	0
0	19116	4701.593976120957	1
0	19118	4701.715656959846	2
0	19122	4703.097489160147	1
0	19128	4704.094095291284	0
0	19154	4709.107327363546	1
0	19156	4709.35612085162	2
0	19158	4710.947581364699	1
0	19167	4711.877077296215	0
0	19178	4713.096793039211	1
0	19181	4713.355848788769	2
0	19183	4714.388953756524	1
0	19189	4716.111587491976	0
0	19200	4716.31752719276	1
0	19202	4716.539080031275	0
0	19210	4716.793890929226	1
0	19211	4717.09019164252	0
0	19244	4730.52016572956	1
0	19248	4731.891950099	2
0	19249	4732.166611734045	1
0	19254	4732.393775418065	0
0	19268	4733.717351212042	1
0	19270	4734.92962507999	0
0	19277	4735.049457223775	1
0	19281	4738.94165347993	0
0	19298	4743.319988751585	1
0	19301	4743.995014876737	0
0	19313	4749.935115917533	1
0	19315	4750.946396802078	2
0	19318	4751.058862493834	1
0	19324	4751.142600574308	2
0	19326	4751.372469719586	1
0	19331	4751.403212174998	0
0	19341	4752.387283572345	1
0	19343	4752.51906010952	2
0	19345	4754.095153516718	1
0	19351	4754.907300852293	0
0	19357	4755.444570482472	1
0	19365	4758.360756505217	0
0	19390	4762.477064592045	1
0	19391	4762.789420028879	0
0	19400	4765.247224177733	1
0	19403	4766.056511434171	0
0	19415	4770.8436404368	1
0	19416	4770.909232011392	0
0	19426	4773.354338670653	1
0	19429	4774.340732629978	0
0	19438	4775.064311240327	1
0	19443	4775.922987017787	0
0	19456	4776.975035300494	1
0	19459	4779.088886381906	0
0	19468	4780.692535978588	1
0	19472	4780.891524013208	2
0	19474	4781.242149430803	3
0	19476	4781.639338198779	2
0	19481	4781.975940709109	1
0	19486	4782.44191225628	0
0	19505	4784.746411925735	1
0	19507	4785.189693031516	2
0	19509	4786.244090203968	3
0	19514	4786.86648785735	4
0	19516	4788.805023876568	3
0	19521	4788.828444803276	2
0	19526	4789.100161722651	1
0	19533	4789.872644801188	0
0	19537	4790.059141509631	1
0	19541	4792.685515286359	0
0	19547	4793.224621668379	1
0	19551	4795.291593988373	0
0	19562	4796.369019854221	1
0	19566	4797.753609261039	0
0	19570	4800.360663649527	1
0	19572	4800.365942725686	2
0	19576	4800.831898089431	3
0	19577	4800.905749262393	2
0	19585	4804.348921474781	1
0	19590	4804.766942080038	0
0	19596	4807.43518417871	1
0	19597	4807.675969189691	0
0	19601	4807.904237250259	1
0	19603	4808.26580988105	2
0	19606	4808.905136930798	1
0	19611	4810.828148043302	0
0	19615	4811.210688574936	1
0	19621	4816.509260714642	0
0	19670	4825.798561776653	1
0	19671	4825.897660026702	0
0	19682	4827.305498338767	1
0	19684	4827.473853364213	2
0	19686	4828.23208724077	3
0	19689	4828.991645833875	2
0	19697	4831.301966310271	1
0	19702	4831.610412079332	0
0	19706	4832.402860947644	1
0	19709	4833.201932589312	0
0	19733	4838.421462435297	1
0	19735	4838.706489508286	2
0	19737	4839.931464674899	3
0	19743	4841.537795094224	4
0	19744	4842.628487594285	3
0	19749	4842.721676910301	2
0	19756	4845.499356749635	1
0	19763	4847.025476334817	0
0	19770	4848.375342405305	1
0	19771	4848.6920665253	0
0	19782	4850.17099928523	1
0	19785	4850.784000861412	2
0	19786	4851.004688967089	1
0	19796	4853.164902429823	0
0	19807	4854.480540449706	1
0	19812	4856.46459766266	2
0	19813	4856.969013733159	1
0	19818	4857.154159134259	0
0	19914	4890.357383326571	1
0	19915	4891.165681901781	0
0	19930	4892.912103920976	1
0	19931	4894.151176422448	0
0	19991	4914.943091038632	1
0	19994	4915.546859393639	0
0	20000	4915.557145052653	1
0	20002	4916.226161209784	0
0	20014	4917.206070662806	1
0	20020	4920.34930264048	0
0	20056	4931.322520462976	1
0	20059	4931.917379942255	2
0	20060	4933.018000508083	1
0	20065	4933.209827952199	0
0	20105	4947.079728524829	1
0	20106	4947.133967375599	0
0	20114	4947.62980679172	1
0	20118	4948.89120381771	0
0	20124	4949.184363303098	1
0	20126	4949.81242741379	0
0	20133	4950.332251871034	1
0	20134	4950.741142137183	0
0	20147	4955.149452636795	1
0	20148	4955.161423249678	0
0	20154	4955.619760510404	1
0	20156	4955.724876017536	2
0	20157	4956.223231392527	1
0	20166	4959.840450803957	2
0	20169	4960.618360276541	1
0	20174	4961.650571168558	0
0	20196	4966.091792084542	1
0	20198	4967.123649931203	2
0	20200	4967.797123212005	3
0	20202	4968.793662884498	4
0	20203	4972.188076311227	3
0	20209	4972.247310704792	4
0	20211	4974.19425033604	3
0	20219	4974.775993597887	2
0	20224	4974.975693531762	1
0	20229	4975.491347823342	0
0	20275	4982.543438637947	1
0	20279	4983.847149183382	2
0	20280	4984.742393935205	1
0	20287	4985.835534474402	2
0	20288	4986.032616721959	1
0	20293	4986.751552882222	0
0	20307	4991.1421270455	1
0	20308	4991.814840698213	0
0	20328	4994.302114977775	1
0	20329	4995.701323004149	0
0	20333	4996.878962280745	1
0	20340	5002.003431137798	2
0	20342	5003.14977562477	3
0	20344	5004.720534721507	4
0	20345	5004.808872132314	3
0	20350	5005.296222642458	2
0	20355	5006.166570324237	1
0	20360	5007.591465583541	0
0	20364	5008.174059237267	1
0	20369	5010.015883113302	2
0	20370	5010.863148142372	1
0	20375	5011.886760876024	0
0	20395	5017.027367865768	1
0	20397	5017.148201506155	2
0	20399	5018.397023774949	1
0	20405	5018.854741968885	0
0	20428	5022.470037625935	1
0	20431	5022.827662845626	2
0	20433	5024.085084631419	3
0	20434	5024.510073426646	2
0	20439	5027.268265986824	1
0	20444	5027.897526260683	0
0	20450	5028.009802608331	1
0	20452	5028.039538238826	2
0	20453	5030.05209142622	1
0	20458	5030.910482122323	0
0	20464	5035.001423469588	1
0	20466	5035.634317601775	2
0	20468	5036.124520927507	3
0	20470	5036.790870077797	4
0	20473	5038.717112319713	3
0	20481	5041.138540988514	2
0	20486	5041.195656399719	1
0	20491	5042.190958708387	0
0	20537	5054.218110304295	1
0	20539	5055.881090052486	0
0	20557	5060.229767044578	1
0	20559	5062.393569118442	0
0	20565	5062.592066509729	1
0	20567	5062.972660378185	0
0	20579	5063.787897451293	1
0	20582	5064.765374571083	0
0	20639	5076.405036516182	1
0	20640	5076.653155933975	0
0	20658	5081.372298448465	1
0	20661	5082.455380346639	0
0	20686	5087.510321723001	1
0	20689	5090.039531528171	0
0	20695	5090.619922181146	1
0	20696	5090.79297035417	0
0	20702	5091.821361184385	1
0	20703	5091.995097983965	0
0	20712	5095.402809741828	1
0	20714	5096.673889508129	0
0	20720	5096.976666129274	1
0	20722	5097.335498535061	0
0	20743	5101.08925992291	1
0	20747	5103.121451404667	2
0	20751	5104.606486655914	3
0	20752	5105.135200774872	2
0	20758	5105.415973375675	1
0	20765	5106.12402713166	0
0	20776	5108.391024028389	1
0	20780	5108.80683706529	2
0	20783	5113.912818491533	1
0	20790	5114.796624554644	0
0	20822	5123.217239710958	1
0	20826	5124.360980867195	2
0	20828	5124.403254242968	3
0	20829	5124.88815488302	2
0	20836	5126.656476391589	3
0	20838	5126.872016470676	4
0	20840	5127.571220951227	5
0	20843	5127.850456801776	4
0	20849	5129.870442660694	3
0	20854	5130.981191792407	2
0	20859	5131.366155464087	1
0	20864	5131.368936965875	0
0	20870	5131.665353317785	1
0	20871	5131.674381719961	0
0	20878	5133.895583764126	1
0	20879	5134.608219592621	0
0	20885	5134.800523612914	1
0	20886	5134.883338260774	0
0	20890	5135.80406388276	1
0	20894	5137.047365031844	0
0	20958	5148.556926998177	1
0	20959	5149.673457189563	0
0	21002	5160.306067753204	1
0	21005	5162.556300272269	0
0	21019	5163.946150553711	1
0	21021	5164.006185793842	2
0	21022	5165.727931670081	1
0	21027	5165.824124025591	0
0	21042	5167.255140154956	1
0	21044	5167.278007223885	2
0	21048	5169.341205736932	1
0	21055	5170.171740437945	0
0	21071	5174.558105408494	1
0	21079	5179.492683576183	2
0	21085	5181.462495609562	3
0	21087	5182.037961891381	4
0	21089	5183.017696071383	5
0	21090	5183.069463537508	4
0	21102	5186.095150631835	5
0	21105	5186.909447581181	4
0	21111	5187.215567343482	5
0	21113	5188.187970930153	6
0	21116	5188.795521331973	5
0	21122	5190.671795052388	4
0	21127	5194.347573108308	3
0	21133	5195.838720859692	2
0	21138	5195.847804935617	1
0	21143	5196.296181750101	0
0	21149	5197.188453522223	1
0	21150	5197.53849520154	0
0	21176	5203.781461558745	1
0	21181	5205.016523557436	2
0	21183	5206.275430082481	3
0	21184	5207.478610299579	2
0	21189	5207.649340662882	1
0	21196	5208.749008445394	0
0	21223	5214.979620701449	1
0	21224	5215.122160592441	0
0	21246	5222.221114493054	1
0	21248	5222.251588093554	2
0	21253	5225.457214662672	3
0	21255	5226.963813762977	4
0	21256	5227.053213177878	3
0	21261	5227.136696359136	2
0	21267	5229.415726418183	3
0	21268	5229.675187809474	2
0	21274	5229.692486823282	3
0	21275	5229.757776263182	2
0	21282	5230.49961756967	1
0	21287	5230.837570649007	0
0	21299	5231.634427627663	1
0	21301	5231.787011780964	0
0	21305	5233.351163614645	1
0	21312	5235.500351486608	2
0	21313	5235.82954123798	1
0	21318	5236.446818745467	0
0	21326	5239.31852913336	1
0	21332	5240.443401549088	2
0	21333	5240.541098908046	1
0	21337	5241.120463421911	2
0	21343	5241.595776715876	1
0	21350	5242.358575289061	0
0	21358	5245.289008239892	1
0	21362	5247.352510982926	0
0	21370	5247.780166434069	1
0	21374	5248.836140979673	0
0	21387	5249.514668944174	1
0	21389	5250.289432826124	2
0	21393	5254.319460348189	1
0	21402	5255.760187611002	2
0	21404	5256.22059596157	3
0	21405	5257.34462407826	2
0	21410	5257.800554975604	1
0	21416	5257.825827375156	2
0	21420	5258.571867029695	3
0	21424	5258.83481150667	4
0	21425	5259.16206382924	3
0	21433	5260.146731867373	4
0	21434	5260.398434015939	3
0	21443	5261.914378358935	2
0	21453	5265.449141141905	1
0	21459	5265.731699358722	0
0	21477	5266.309032421024	1
0	21478	5266.380739206478	0
0	21498	5270.320775367712	1
0	21502	5272.006078515373	2
0	21505	5272.990096716235	1
0	21510	5274.090797908044	0
0	21514	5274.766904321474	1
0	21522	5276.467328041404	2
0	21523	5277.498164241688	1
0	21528	5277.539133061924	0
0	21560	5287.98352010267	1
0	21562	5288.061479517039	2
0	21563	5288.115933937263	1
0	21569	5288.757927276404	2
0	21572	5289.127954024086	1
0	21578	5289.522269055734	2
0	21579	5289.959776243253	1
0	21584	5290.614856140678	0
0	21595	5291.575718392338	1
0	21597	5291.745602937051	2
0	21600	5291.997856484612	3
0	21602	5292.421719728678	2
0	21608	5292.69111453606	3
0	21611	5292.807178177659	4
0	21615	5293.796384022393	3
0	21620	5294.218460441959	2
0	21626	5294.338203709862	3
0	21630	5295.585238117672	2
0	21638	5296.099509034785	3
0	21639	5298.011647751196	2
0	21645	5298.294330387239	1
0	21652	5300.105984128637	0
0	21664	5301.312424976303	1
0	21666	5301.649276772318	2
0	21668	5301.819523958536	3
0	21673	5302.265696129483	2
0	21679	5302.791829847189	3
0	21682	5302.949515413903	2
0	21687	5303.091866539508	1
0	21693	5303.674699463516	2
0	21696	5305.276806433547	1
0	21704	5307.027731603866	0
0	21720	5311.85376542819	1
0	21722	5313.665726326286	0
0	21756	5319.719417161153	1
0	21758	5320.487028952303	2
0	21759	5320.756271395315	1
0	21764	5320.86964793594	0
0	21777	5323.716227520388	1
0	21778	5324.550748602056	0
0	21787	5325.291761313041	1
0	21788	5325.728918278023	0
0	21820	5335.844583350494	1
0	21825	5338.252182658103	0
0	21870	5347.842139120118	1
0	21872	5348.214923779377	2
0	21873	5348.937364978478	1
0	21878	5348.982366256945	0
0	21907	5355.18886003246	1
0	21911	5358.68061563327	2
0	21915	5359.317475619619	1
0	21920	5360.325528131856	0
0	21932	5361.189667037538	1
0	21933	5361.544267970528	0
0	21961	5367.105848154875	1
0	21963	5367.123181673236	2
0	21965	5367.215424874461	3
0	21968	5371.791856330307	2
0	21975	5373.215077362171	1
0	21980	5373.312133463069	0
0	22002	5378.638302622101	1
0	22005	5380.491675768881	0
0	22030	5382.62568874387	1
0	22034	5383.671227714719	2
0	22036	5384.012825076659	3
0	22039	5387.807803776898	2
0	22046	5388.83442675618	3
0	22047	5391.055460624166	2
0	22052	5391.567308567142	1
0	22060	5392.368974436894	2
0	22062	5393.423003633508	1
0	22068	5394.812316129071	0
0	22082	5396.725410052196	1
0	22083	5396.858828960427	0
0	22114	5405.660110842701	1
0	22115	5406.652169914194	0
0	22134	5409.831159254932	1
0	22135	5410.328383922408	0
0	22148	5415.394647471299	1
0	22149	5415.448060297257	0
0	22155	5415.604852947113	1
0	22157	5417.153063485565	0
0	22164	5417.648357171079	1
0	22168	5418.073216980248	2
0	22169	5418.287585970156	1
0	22176	5419.555853129048	0
0	22182	5419.768283434141	1
0	22184	5420.648770899304	0
0	22192	5421.325480160924	1
0	22199	5423.902271295006	0
0	22212	5426.873605486183	1
0	22213	5427.387789109018	0
0	22221	5428.234687166326	1
0	22222	5429.209989886388	0
0	22255	5434.640147888374	1
0	22256	5435.117161086563	0
0	22286	5440.561608800543	1
0	22288	5440.871852979568	2
0	22290	5440.989918247482	3
0	22292	5441.353839635019	4
0	22295	5441.721104746525	3
0	22303	5443.438149512876	2
0	22309	5444.282424005218	1
0	22315	5444.672635665077	0
0	22376	5466.699177259398	1
0	22377	5467.884579372097	0
0	22384	5468.605310402178	1
0	22385	5469.300800617802	0
0	22404	5477.484749931638	1
0	22405	5479.557738240736	0
0	22415	5480.573868010521	1
0	22417	5482.023823636626	2
0	22419	5482.037063821028	3
0	22422	5482.668737130515	2
0	22428	5484.311675062532	1
0	22434	5484.843383406473	0
0	22449	5488.856337629647	1
0	22451	5489.168959035008	2
0	22452	5491.364856430334	1
0	22458	5493.902939586796	0
0	22482	5502.549500355967	1
0	22483	5502.651671276952	0
0	22563	5520.925904539317	1
0	22565	5521.931802926058	0
0	22571	5522.062495972018	1
0	22572	5522.458529563268	0
0	22580	5525.83233849505	1
0	22582	5526.666130635944	2
0	22583	5527.869425058399	1
0	22588	5528.229972916075	0
0	22649	5542.704360669711	1
0	22650	5543.956089479808	0
0	22725	5578.485967906449	1
0	22727	5580.165757578897	2
0	22730	5582.138085977298	1
0	22736	5584.876515603814	0
0	22789	5607.825294141501	1
0	22790	5608.520024294488	0
0	22809	5614.096508750504	1
0	22810	5615.27536646647	0
0	22816	5615.9606974297	1
0	22820	5618.63282346424	0
0	22852	5629.335520343113	1
0	22857	5631.446637416396	0
0	22876	5637.461036072482	1
0	22879	5639.042582187576	0
0	22885	5639.225643557768	1
0	22887	5640.014084784531	0
0	22915	5645.666410905808	1
0	22916	5645.875582720575	0
0	22933	5649.475573576451	1
0	22940	5651.326815802667	0
0	22989	5663.683890532432	1
0	22992	5664.130916891436	0
0	23037	5672.611963803952	1
0	23041	5673.62468852573	2
0	23045	5675.198856883359	1
0	23056	5677.019331656914	0
0	23062	5677.738037717459	1
0	23069	5679.741693138144	0
0	23092	5683.169543519372	1
0	23093	5683.895582105256	0
0	23120	5692.607205879057	1
0	23123	5693.523007620757	0
0	23142	5697.449816920869	1
0	23143	5698.256232589955	0
0	23170	5705.780297962607	1
0	23171	5706.314842431627	0
0	23177	5707.371444007154	1
0	23184	5711.361101783261	2
0	23185	5712.14779149677	1
0	23192	5712.445523488177	2
0	23195	5713.200190238647	3
0	23196	5713.267380087927	2
0	23203	5715.334813492224	3
0	23204	5717.785820615535	2
0	23209	5718.285931636218	1
0	23214	5718.300421328518	0
0	23236	5722.398413560832	1
0	23237	5722.407673268343	0
0	23243	5722.606515222926	1
0	23247	5723.073797440303	0
0	23292	5742.76328824465	1
0	23294	5743.40230791173	0
0	23333	5751.521551575801	1
0	23337	5752.471073926828	2
0	23338	5752.494647481376	1
0	23343	5752.826014631873	0
0	23351	5755.114530949192	1
0	23353	5755.287196911238	2
0	23354	5756.702928558061	1
0	23360	5757.463646747758	0
0	23404	5764.853747094916	1
0	23406	5765.887396177116	2
0	23408	5766.643165827193	3
0	23410	5766.995515392824	2
0	23415	5767.206715472992	1
0	23420	5767.503227446298	0
0	23428	5768.786329834927	1
0	23430	5769.058881364985	2
0	23433	5770.240342860936	1
0	23440	5771.290523981753	0
0	23523	5794.827490542106	1
0	23524	5795.007173460168	0
0	23547	5801.119629627298	1
0	23549	5802.293235319417	2
0	23551	5802.623756711412	3
0	23552	5802.867085419057	2
0	23558	5803.638263625703	3
0	23561	5804.838383042692	2
0	23566	5804.88996488679	1
0	23571	5804.906296809465	0
0	23609	5811.141699903297	1
0	23611	5811.937462205742	2
0	23615	5812.397750887183	3
0	23616	5812.521455948732	2
0	23627	5815.472153687002	3
0	23629	5815.974974436244	4
0	23632	5816.921079959632	3
0	23637	5817.877687584194	2
0	23642	5818.015504560853	1
0	23652	5820.315857770968	0
0	23682	5824.02613186169	1
0	23683	5824.052772137498	0
0	23697	5824.161189999827	1
0	23699	5824.244058059959	2
0	23701	5825.375446786624	3
0	23704	5827.661410171177	2
0	23709	5828.575678403023	1
0	23715	5829.351882074876	0
0	23721	5829.806296444572	1
0	23724	5832.86835503394	0
0	23756	5839.296708158988	1
0	23757	5839.479609999958	0
0	23777	5841.429300729982	1
0	23779	5841.580790568896	2
0	23780	5841.928158137987	1
0	23786	5842.469354116117	2
0	23787	5842.825895533679	1
0	23792	5843.815816440321	0
0	23826	5871.43017714606	1
0	23829	5872.448302015296	0
0	23838	5873.478183013575	1
0	23843	5875.067202367082	2
0	23846	5876.757939659333	1
0	23852	5876.952868636177	0
0	23873	5881.00221639258	1
0	23874	5881.720046526992	0
0	23960	5901.305190882897	1
0	23964	5902.811353012745	0
0	23976	5903.277179224033	1
0	23979	5903.58404218385	0
0	23987	5904.749542270853	1
0	23988	5905.282892721958	0
0	24095	5927.133875761756	1
0	24097	5927.755621004937	2
0	24100	5929.449412882366	1
0	24106	5930.884870298646	0
0	24140	5938.182955786267	1
0	24141	5938.490833416728	0
0	24195	5952.633018172078	1
0	24197	5952.739358529441	2
0	24204	5955.212773780192	1
0	24209	5955.410940664052	0
0	24215	5956.528368474904	1
0	24217	5957.000452732862	0
0	24254	5967.489829222921	1
0	24255	5967.593679494507	0
0	24268	5968.800436774494	1
0	24270	5969.953190047774	2
0	24272	5971.362263136753	1
0	24278	5972.2065462683	0
0	24303	5976.424923681404	1
0	24304	5977.456618115878	0
0	24314	5978.752200381305	1
0	24316	5979.273816549232	2
0	24317	5980.311609787154	1
0	24323	5981.647626462277	0
0	24363	5992.704748216647	1
0	24370	5995.488260879211	2
0	24373	5995.998412212203	3
0	24374	5996.374907596725	2
0	24379	5996.542829706267	1
0	24385	5997.091378903789	0
0	24396	5997.426201705662	1
0	24398	5997.673790351974	2
0	24401	5999.647216094751	1
0	24410	6000.428149640518	2
0	24412	6000.647566976245	3
0	24413	6002.050733638335	2
0	24419	6002.836676556443	1
0	24424	6002.860984719712	0
0	24449	6008.917497113022	1
0	24450	6009.007618136735	0
0	24475	6011.972836665149	1
0	24477	6012.279103198817	2
0	24479	6013.277945845865	1
0	24484	6013.389577631324	0
0	24515	6023.440491366761	1
0	24516	6023.450441570458	0
0	24552	6029.5418511247	1
0	24555	6030.028786756451	0
0	24562	6030.886458499283	1
0	24568	6031.147048221644	2
0	24569	6031.555945554397	1
0	24576	6032.224038496948	0
0	24582	6032.234886650276	1
0	24583	6032.349625615888	0
0	24598	6035.634655352315	1
0	24601	6035.910237595633	0
0	24607	6035.9184901511	1
0	24608	6036.120982506102	0
0	24643	6044.263531824331	1
0	24644	6044.417876357997	0
0	24658	6046.54509578841	1
0	24659	6047.433544112272	0
0	24696	6056.213366684913	1
0	24697	6056.436579413361	0
0	24720	6060.612633947218	1
0	24722	6061.515289333752	2
0	24723	6062.662728240315	1
0	24729	6062.883211811079	0
0	24743	6064.918033023006	1
0	24745	6065.534526885351	2
0	24746	6066.364130829922	1
0	24752	6069.981703922003	0
0	24913	6114.606873989851	1
0	24914	6114.905219968466	0
0	24952	6120.183898486169	1
0	24954	6120.376421373592	2
0	24955	6121.730048617803	1
0	24961	6121.80414875737	2
0	24963	6124.219827934286	1
[...]
5	118424	28541.0602523444	0.540208542144
5	118431	28542.912371861489	0.911733368521
5	118439	28543.500945993787	0.273492138789
5	118455	28550.791881653026	2.662249486614
5	118461	28551.072411829488	0.891105939543
5	118473	28553.959581301467	0.152393941229
5	118484	28554.345823139464	0.339369888243
5	118491	28556.262988622754	2.166091537049
5	118495	28556.401319383986	1.921694132732
5	118504	28559.177900688543	0.487098042369
5	118521	28563.700985165063	3.708852424156
5	118526	28565.449164533624	3.611597819242
5	118543	28568.107304748187	0.658197693218
5	118553	28569.763751757259	1.036244127141
5	118562	28571.081250756354	1.379783701515
5	118566	28571.807012820952	0.934622597082
5	118574	28573.030920972525	0.737006956406
5	118586	28576.355873758253	3.011210543506
5	118590	28576.856549124336	2.526423975301
5	118634	28588.159241791049	0.064712595773
5	118638	28588.463319398373	0.330777134244
5	118663	28595.271960773511	4.703687270404
5	118677	28597.496109119058	6.387114683591
5	118685	28598.806400816314	4.587380188678
5	118690	28599.266279127328	3.297763364847
5	118697	28601.451666330193	4.998617842523
5	118706	28602.924352217717	6.457143031984
5	118712	28603.895568562666	5.875107602402
5	118720	28606.046055016935	3.603624547289
5	118726	28606.140256494623	0.937805482528
5	118738	28608.179741094773	0.731676964159
5	118777	28619.003588526406	4.304391063149
5	118782	28619.384955671503	2.224491301115
5	118795	28622.134002956816	0.549237386525
5	118803	28624.668177460082	0.108797290581
5	118814	28625.669232640892	0.768159710214
5	118819	28625.91482461016	0.409641626258
5	118829	28626.268625560021	0.240925304469
5	118846	28627.682850704736	0.324220282716
5	118858	28629.82615975396	1.817074458333
5	118869	28631.97470490289	0.055398471267
5	118886	28639.631679056082	0.266190455385
5	118896	28644.627270086772	2.260959080133
5	118913	28651.678959711193	2.993599579914
5	118922	28654.695711569362	4.36264329709
5	118932	28656.605596988891	4.407180482956
5	118938	28657.986867984031	2.063945410665
5	118942	28659.67439163225	3.336642666097
5	118957	28663.320606095216	1.225057583182
5	118965	28665.128769701035	1.120565835472
5	118994	28675.561710442546	2.77610838797
5	119000	28676.342125939794	1.320962384711
5	119011	28679.014806022712	1.666701346664
5	119018	28679.590876916556	0.239957194283
5	119031	28683.144644484741	0.549995640801
5	119035	28683.408075580597	0.592428561067
5	119043	28684.852835787757	0.151880426657
5	119051	28686.727046231069	0.104239418657
5	119065	28688.670911015218	1.86256858971
5	119071	28688.977599633	0.540779748899
5	119095	28696.248731536611	2.777384678217
5	119104	28698.497048288871	2.313864816056
5	119122	28707.358512728313	7.763275565263
5	119129	28707.94764323994	1.274824667669
5	119156	28723.678535008841	4.29915123869
5	119164	28724.58347160436	2.539747489478
5	119173	28725.028107298191	0.524097054015
5	119178	28725.301899229774	0.644188176305
5	119193	28727.392052521702	1.648203004379
5	119201	28727.986626126265	1.142995732056
5	119205	28728.507783299336	0.972402502925
5	119216	28731.523439629298	2.892497978375
5	119225	28732.665611434544	2.768570621868
5	119235	28733.95938603094	1.915702445587
5	119246	28737.764843924719	4.504787448423
5	119253	28738.071102306982	4.624121542782
5	119261	28742.90170170274	6.667332875435
5	119267	28743.508208744098	2.749264359207
5	119304	28748.503104488317	1.66872035126
5	119308	28748.828208459978	0.816523913105
5	119323	28755.890881934125	0.539874093221
5	119334	28757.677406482755	0.165553520688
5	119358	28768.774281453044	0.914237122668
5	119380	28779.136846319082	4.486356084753
5	119387	28780.213228764253	4.575151120347
5	119392	28780.717318226952	1.567256281023
5	119421	28788.753723815238	0.263526914212
5	119437	28795.370315072011	3.316595588483
5	119444	28795.949141742908	0.224987441628
5	119456	28801.200752282971	1.046197159955
5	119475	28805.170639417293	2.21746556889
5	119481	28806.075151052468	1.244377198658
5	119492	28808.288579702796	0.507059379522
5	119504	28812.741627067641	0.681306747358
5	119522	28817.905841711505	0.674175455338
5	119539	28823.689809745027	0.282568642634
5	119555	28829.566773518344	1.655599988571
5	119569	28833.361719335389	2.80086028549
5	119574	28834.606025976481	2.549309064905
5	119591	28837.362811337907	2.299561851828
5	119596	28837.781091371387	2.679173939823
5	119604	28841.539994166536	0.104175231352
5	119613	28843.237443823596	1.088911496728
5	119649	28859.231813184264	0.591813167833
5	119662	28861.229567024408	0.159939852322
5	119670	28865.80172547573	0.106307801489
5	119681	28876.802619284654	1.188687230991
5	119687	28878.722330028051	1.998054942902
5	119697	28881.278095247768	1.1089129587
5	119704	28882.074335991017	1.326046996558
5	119716	28884.990124954731	0.087718158468
5	119723	28886.309292280102	0.557913727859
5	119736	28893.939740732332	3.895526759986
5	119749	28901.619595867744	1.541793990815
5	119779	28911.820000642188	0.777156687292
5	119794	28919.28955266745	0.34942067528
5	119813	28926.241217856377	0.034386854898
5	119825	28933.206666719247	0.355352841724
5	119831	28934.764674901618	1.804684696809
5	119848	28939.18976697908	0.402032698818
5	119853	28940.143349598642	1.206853924295
5	119862	28944.850102814215	1.089998778297
5	119869	28945.748969120454	0.091685371327
5	119876	28946.853583041569	0.280124507358
5	119886	28950.508104639167	1.351782020768
5	119897	28954.039223763356	1.297213078763
5	119927	28964.012498610771	8.899536879476
5	119934	28967.192327494861	10.811079632397
5	119940	28969.160890566532	12.134490334217
5	119945	28969.522640082973	9.785590660401
5	119952	28972.890270095767	12.586958906333
5	119957	28973.27261520374	11.986071240937
5	119962	28973.954071519488	12.479535721971
5	119972	28976.111136064133	12.613998203391
5	119978	28977.731257685207	2.57195212442
5	120000	28985.85573451903	4.789025822498
5	120007	28986.256337839801	4.882497768394
5	120012	28986.608479797567	4.765049465497
5	120019	28987.039179861501	4.318705087496
5	120025	28987.598914851568	2.814546658808
5	120032	28988.025305319263	1.970704399957
5	120044	28991.925357461835	4.928541389556
5	120052	28993.887198003469	5.532420754626
5	120059	28994.441179010248	2.469763763168
5	120068	28998.487254525525	4.223150512441
5	120073	28998.964856900425	3.696094755777
5	120100	29006.525978460511	5.677682461119
5	120113	29009.008020624719	5.588877098965
5	120118	29009.217548525424	5.165108089312
5	120123	29009.267052355769	4.653026920669
5	120128	29009.775755406117	4.123856542098
5	120133	29009.929925949811	2.681469005622
5	120140	29010.924482372689	2.745341234741
5	120145	29012.966514546297	2.820161539634
5	120179	29020.491829260495	0.930448588885
5	120185	29021.437141599345	1.360783560318
5	120200	29023.967740977981	0.664552173807
5	120205	29025.601811089468	2.165012580507
5	120226	29031.339914523192	3.536706045741
5	120236	29032.919815621485	4.474461234975
5	120243	29033.97389439312	4.407004458292
5	120250	29034.126783401798	2.139023054828
5	120255	29034.874616921202	0.831542899285
5	120266	29037.264263736307	0.148716666869
5	120287	29043.720040085468	1.276673795729
5	120303	29048.588711501857	2.334402735391
5	120310	29049.148101478772	0.707624691197
5	120314	29049.433246760453	0.366222599955
5	120328	29055.843958577235	0.159884845066
5	120350	29061.648016209118	0.698265558807
5	120358	29064.982973502273	1.299623502991
5	120381	29069.778950291322	1.876361404132
5	120386	29070.255783735015	1.761911227589
5	120394	29072.716949852964	3.171972529663
5	120405	29074.467970331545	1.395278464116
5	120417	29077.550639450914	0.607940029637
5	120421	29077.933949259368	0.782672977525
5	120431	29090.082308923944	2.255967960278
5	120470	29104.524756442968	5.259154699962
5	120479	29106.69381478083	6.029665684929
5	120484	29106.921440818238	0.246423942033
5	120506	29111.385494287169	4.111081637088
5	120513	29112.149609634788	1.115872905336
5	120535	29116.014515593046	2.717882040347
5	120540	29116.038158460035	2.394163387839
5	120584	29125.369267444599	0.724650776082
5	120597	29126.98150904404	1.534900887185
5	120621	29132.316144486573	2.141198365542
5	120629	29133.022726217562	2.382169664852
5	120635	29133.848975796818	2.028090787708
5	120640	29134.020430558052	1.690030381184
5	120675	29144.424310497522	4.195951223097
5	120682	29146.025458978826	4.218112857343
5	120687	29146.573324802974	3.54586430049
5	120701	29147.505861698436	0.871254845412
5	120745	29159.966518518074	0.830694264129
5	120754	29161.680814265612	0.570014162879
5	120770	29163.993197985954	0.565342388526
5	120781	29166.819464007132	0.818935909542
5	120786	29167.638343258821	1.321354772242
5	120804	29172.706273025172	0.885101711461
5	120827	29182.718460488672	2.743129137278
5	120835	29183.844215693589	2.161783084863
5	120842	29185.636868073629	3.019806323983
5	120847	29185.918056028077	2.030357253242
5	120859	29188.863608678076	1.900241816677
5	120878	29194.098536271552	1.078447608987
5	120888	29198.734460454241	5.232508426429
5	120895	29201.056826361603	6.744393832122
5	120900	29201.323581438449	5.896074583709
5	120922	29203.818392354826	0.059829748102
5	120930	29206.01168621314	1.688777169269
5	120942	29206.745073424558	0.135775269658
5	120946	29206.981760257734	0.3320802363
5	120957	29210.659465066693	0.534265568263
5	120964	29211.418680125165	0.318616616712
5	120978	29217.910144935114	1.219464621912
5	120983	29218.053992838562	0.9109848373
5	121002	29221.123723014967	1.72977080545
5	121012	29222.844581929778	3.292014908405
5	121022	29226.219401651122	5.795910433141
5	121032	29228.534258486761	6.101815295151
5	121037	29231.844195062398	4.55755879884
5	121042	29231.881375463298	3.55547949549
5	121064	29234.458726520442	1.473028093957
5	121071	29234.91111922541	0.275173561596
5	121093	29238.122528360827	2.496780997316
5	121098	29238.507324286074	2.293497534366
5	121103	29238.963884033002	2.030369875335
5	121115	29240.806228544524	0.810197105138
5	121129	29244.145520471848	3.523026836341
5	121141	29248.911336145831	7.819005668889
5	121146	29249.429631054676	6.452977113402
5	121153	29251.908370925265	7.167011649678
5	121159	29252.212330186192	4.728089853999
5	121185	29257.646154158158	4.972456603992
5	121193	29258.44250585719	1.159183301681
5	121205	29260.61076978079	1.990908101681
5	121229	29264.33854587206	1.064437940333
5	121239	29272.279525933653	0.46891926123
5	121255	29279.559113406003	1.366493105458
5	121266	29281.980747186146	1.936009584778
5	121270	29282.252827012489	1.635526719517
5	121288	29285.516111172136	2.02636441485
5	121298	29290.003521726384	6.274448200206
5	121313	29292.885741045172	2.416479920947
5	121350	29301.211288826389	5.233450135911
5	121355	29301.258948660107	4.633886460879
5	121374	29306.165883116356	4.624939508093
5	121379	29307.045945900452	3.814258440877
5	121384	29308.313106883324	2.502373136678
5	121400	29310.461893406473	1.523753512661
5	121422	29317.706714436162	7.0754685649
5	121427	29317.717500955035	3.26782282959
5	121461	29326.513185658046	2.963606867904
5	121467	29327.775566507328	2.025340812551
5	121488	29337.475528934412	9.469736743053
5	121497	29338.611097033752	4.267160713522
5	121524	29345.948555492049	1.067898290945
5	121549	29353.784885635024	3.266137277921
5	121571	29361.723911258185	4.214146735694
5	121576	29362.076577785578	1.93611745081
5	121596	29369.270262070767	2.648084599109
5	121603	29371.044847946378	3.267400950361
5	121616	29373.97147591194	0.038923782366
5	121625	29376.16517199241	2.20540855656
5	121630	29376.172593778257	1.511871565464
5	121661	29381.142420202815	3.018644122804
5	121666	29381.756585979804	3.062433924219
5	121671	29382.046543837445	2.866213386655
5	121678	29383.702806254108	4.071168323925
5	121693	29389.303407148904	0.385271274777
5	121700	29390.817418386086	0.709564107983
5	121713	29393.334424587406	1.527986751985
5	121720	29394.237306140542	1.016721874234
5	121727	29396.303219302832	2.169350053641
5	121750	29398.523383524738	1.290897065309
5	121755	29399.426664993498	1.068006584431
5	121772	29406.256179619134	2.016174636034
5	121788	29413.334339941032	0.9417356335
5	121805	29416.231103581191	2.186025634228
5	121820	29418.322676885101	0.135255741401
5	121829	29420.935834265888	0.439946900856
5	121853	29440.448894162488	5.589118706967
5	121863	29441.506016312236	1.93878983906
5	121869	29443.093856451909	2.414862862887
5	121874	29443.520181188613	2.787721045376
5	121892	29447.58614758584	2.538768653192
5	121926	29454.787061573911	0.730803329268
5	121930	29455.201505792485	1.016595581042
5	121954	29458.013217238932	1.20142589832
5	121969	29461.836500216037	0.945234203984
5	121973	29463.393226901799	2.442955736189
5	122012	29480.095760178485	12.301578159362
5	122017	29480.726319236297	12.326215299475
5	122026	29483.838424454603	10.460957253571
5	122033	29485.230195666313	11.07109863645
5	122047	29489.115900423942	13.638283887785
5	122052	29489.822604283227	10.327785073594
5	122060	29490.450850883344	8.673890883858
5	122065	29490.853260739675	5.673905177972
5	122074	29491.297732076687	2.866665796514
5	122081	29492.603425108242	3.987550463077
5	122096	29495.660708860943	2.589257848317
5	122128	29499.031285150271	1.334113533584
5	122147	29502.499761567976	2.667707852137
5	122167	29503.825422105458	0.612842548654
5	122179	29505.376108353719	1.694059586681
5	122185	29506.459546933512	1.314672844491
5	122202	29512.998268353577	1.770985124761
5	122214	29515.556950891545	1.33741063464
5	122220	29515.774761917898	0.509566267408
5	122258	29521.468592555961	0.582068318355
5	122265	29521.807587546387	0.528112205427
5	122269	29522.625149544385	1.140094869082
5	122287	29528.701324221939	0.461315602767
5	122296	29530.239191085149	0.649686962858
5	122316	29538.251908909721	0.267028158783
5	122374	29556.225372153188	1.074090243712
5	122382	29558.751933454062	3.306284884869
5	122426	29571.751605393441	2.945174638812
5	122441	29577.623572239175	7.680744872493
5	122453	29582.390995496215	12.395341849292
5	122459	29582.825605719639	11.28157071734
5	122464	29583.441371225146	11.488529247425
5	122472	29584.441680008827	12.103225841333
5	122477	29585.146977025735	7.902978385846
5	122483	29586.075601477578	7.090025701274
5	122492	29587.389188079826	7.954621948525
5	122497	29587.474896721984	7.881276494382
5	122506	29590.146614742683	4.006585887803
5	122511	29590.913260894811	2.032216903071
5	122558	29599.63492922167	2.571164603184
5	122570	29603.194086474982	1.480680854317
5	122597	29614.469881868918	6.989016595705
5	122602	29614.542393638272	2.915409371051
5	122607	29614.562838158355	1.119558325197
5	122625	29618.361784567125	3.7693253724
5	122630	29618.795759312969	2.254571885987
5	122647	29624.174733040293	7.347374510757
5	122653	29624.764360509725	5.402200048501
5	122681	29628.917355555474	2.338826881586
5	122688	29631.464292162719	4.791852152751
5	122695	29631.702892448163	3.573977131837
5	122701	29633.064045861014	1.477306952349
5	122724	29636.383116187721	2.270147289325
5	122737	29640.803111396434	2.94054267331
5	122765	29652.102119447511	7.698949142446
5	122772	29652.717810111013	3.213118909498
5	122795	29655.098070161255	1.650165400488
5	122807	29657.033240770441	1.645805124723
5	122818	29661.78644138949	0.764055477258
5	122822	29662.45049301557	1.051837435394
5	122831	29673.449137916669	0.074299463735
5	122840	29679.468201904385	0.284667294705
5	122859	29684.307020754512	1.090111707747
5	122868	29686.476314360438	2.964308449416
5	122875	29687.215099840111	1.807761116374
5	122890	29690.703421300726	0.632484275598
5	122894	29691.447647121219	1.038381679593
5	122902	29694.892266295304	3.351233238696
5	122930	29701.85311849329	1.092712772159
5	122940	29704.791213725595	0.193230504344
5	122945	29706.018024089694	1.238266685915
5	122958	29708.535917356251	2.164987883243
5	122963	29708.952643329816	2.381419353567
5	122967	29708.963871962192	2.321550109337
5	122974	29710.609075534458	1.145613148443
5	122993	29716.402020987794	1.731867106325
5	123005	29719.721576106109	1.803291299627
5	123024	29726.489761118734	1.073108650273
5	123031	29727.357822909201	0.38140254708
5	123041	29731.662391390358	2.289740980595
5	123059	29739.023584849412	6.990198154187
5	123068	29739.919719198274	7.62003385634
5	123078	29741.755783721664	9.398843815986
5	123085	29743.398474183289	9.545770164878
5	123090	29743.683545303283	5.289413645988
5	123103	29746.327792667047	5.299914619402
5	123111	29748.958409864001	5.604462892736
5	123118	29750.359284925728	4.313112788728
5	123123	29750.732765785932	3.134374521207
5	123139	29753.082139432691	2.212699405164
5	123144	29753.389369051859	0.495367177064
5	123157	29756.451021417547	2.752347778556
5	123195	29766.615676591904	0.065687068816
5	123213	29770.226508881375	0.894314031061
5	123233	29776.817254077422	6.590228960354
5	123238	29778.155860906014	3.091247829964
5	123257	29779.291966115327	0.444630661822
5	123262	29779.92479340542	0.758684329127
5	123287	29788.014627842119	7.065034763833
5	123294	29788.901936475453	6.967854953368
5	123304	29789.398917499688	3.334559853394
5	123309	29789.462154732256	0.855387158415
5	123322	29792.359329802025	3.32543514868
5	123328	29792.440801169708	0.862232342701
5	123358	29804.64928971498	3.070652910925
5	123377	29806.716432276804	1.11653148699
5	123385	29808.24915711099	2.254914441756
5	123393	29810.111818409803	3.834878069773
5	123399	29810.825334013489	3.181362214228
5	123405	29811.917983060712	3.06408993094
5	123420	29816.846740843481	0.900539585215
5	123425	29817.955650654374	1.230972384068
5	123434	29821.250453517459	0.191789285236
5	123442	29824.396609179738	2.191690904712
5	123466	29837.903538136318	2.409457824307
5	123478	29839.32896368161	0.823892076425
5	123487	29841.09082004084	2.124962577284
5	123492	29841.348043162237	1.960610621665
5	123526	29852.440764159285	4.175700866109
5	123535	29853.534745462128	5.056542310744
5	123541	29854.090530045391	4.850936820308
5	123546	29854.424593149335	2.506727912962
5	123551	29854.579684481993	2.278902088612
5	123556	29854.604473677893	1.341298388228
5	123579	29859.859402249228	0.128247261478
5	123588	29860.536338701905	0.646480384521
5	123595	29864.748684343901	0.145628196401
5	123603	29866.591077099187	0.410084149213
5	123611	29869.110158309061	0.396113364018
5	123618	29870.307770888988	0.397093558919
5	123626	29871.556738469836	0.542494783988
5	123642	29872.883928667544	0.001491586463
5	123651	29875.781332699209	0.820973597428
5	123675	29881.521714214477	2.259118146161
5	123693	29883.492242527104	0.855357688658
5	123705	29885.576992094213	0.638571627485
5	123723	29890.829689084829	1.517171685018
5	123728	29890.982307681555	0.528078673098
5	123737	29892.91036191702	0.693359843772
5	123745	29893.967710054868	0.097315547316
5	123759	29895.818524936612	0.354842366109
5	123787	29911.779222853119	5.87836335984
5	123797	29913.709983836401	7.781209712152
5	123804	29914.611176162334	8.509844356021
5	123811	29915.066056262892	5.83228686809
5	123818	29916.633592723957	4.399331325354
5	123824	29916.725242165354	3.105936721957
5	123847	29918.930288966913	1.457363808068
5	123855	29920.30287537561	2.127621245077
5	123861	29920.772721920291	1.058387996426
5	123891	29926.346981390631	2.132902070257
5	123911	29930.07534993316	1.582853374246
5	123926	29941.165669840069	1.107981222236
5	123933	29941.229543683008	0.014233881584
5	123941	29942.813792678521	0.071564201528
5	123952	29948.613443809582	0.56935270845
5	123960	29951.915986493571	0.233114346077
5	123976	29957.229568476126	1.818615059382
5	123996	29962.171775696778	2.544390945354
5	124009	29964.458043521719	1.853331749053
5	124026	29968.823743654505	1.628200418988
5	124030	29969.315720459919	1.576446438476
5	124042	29972.509391145882	0.639595102039
5	124059	29976.287505406195	3.621590556153
5	124076	29981.744259589076	2.40332568592
5	124092	29984.412013517754	0.940814100782
5	124115	29990.207885636242	5.40480460875
5	124120	29990.235758694642	4.175629821792
5	124128	29992.372999514525	5.031752027543
5	124133	29992.863429981152	5.520211565992
5	124146	29996.316777348764	7.506960818977
5	124151	29996.888072843352	6.370782349987
5	124157	29998.006840632814	5.05371603842

