version 2
run Second-n3-19-20191016-14:53:20-8804
attr configname Second-n3
attr datetime 20191016-14:53:20
attr experiment Second-n3
attr inifile omnetpp.ini
attr iterationvars ""
attr iterationvarsf ""
attr measurement ""
attr network org.omnetpp.queueing.Pizza
attr processid 8804
attr repetition 19
attr replication ""
attr resultdir results
attr runnumber 19
attr seedset 19
param **.PS.maxInventoriedPS 3
param **.U1.interArrivalTime exponential(3s)
param **.U2.interArrivalTime exponential(5s)
param **.PS.serviceTimeForInventoryU1 exponential(1.0s)
param **.PS.serviceTimeForInventoryU2 exponential(1.2s)
param **.PS.serviceTimeDirectU1 exponential(1.4s)
param **.PS.serviceTimeDirectU2 exponential(1.4s)
param **.PS.probabilityProducing 0.7
param **.CS.serviceTimeU1 exponential(1.1s)
param **.CS.serviceTimeU2 exponential(1.4s)

vector 0 Pizza.EntryQueueU1 queueLength:vector ETV
attr interpolationmode sample-hold
attr title "queue length, vector"
vector 1 Pizza.CS queueLength:vector ETV
attr interpolationmode sample-hold
attr title "queue length, vector"
vector 2 Pizza.EntryQueueU2 queueLength:vector ETV
attr interpolationmode sample-hold
attr title "queue length, vector"
vector 3 Pizza.sink lifeTime:vector ETV
attr interpolationmode none
attr title "lifetime of arrived jobs, vector"
attr unit s
vector 4 Pizza.sink lifeTimeU2:vector ETV
attr interpolationmode none
attr title "lifetime of arrived jobs, vector"
attr unit s
0	0	0	0
0	19	4.604882837312	1
0	21	5.334627953654	2
0	24	8.673019194465	1
0	29	8.731497529496	0
0	57	13.288610720826	1
0	59	14.472872058135	0
0	73	17.059756833073	1
0	78	18.073865262797	2
0	80	18.274807441876	3
0	82	18.779862647211	2
0	87	18.875154209308	1
0	92	19.343156428823	0
0	114	23.365271205599	1
0	116	23.682577973954	2
0	117	23.788448355569	1
0	125	26.742537888001	0
0	153	39.186984041176	1
0	156	39.66764497921	2
0	157	41.952114941776	1
0	163	42.769212492045	0
0	213	56.023943422818	1
0	219	57.434047289654	2
0	220	61.747842718383	1
0	227	63.142751094243	0
0	234	66.387482003494	1
0	235	66.625748052621	0
0	264	70.022002006293	1
0	265	70.836774998224	0
0	313	89.78419928694	1
0	314	89.947969000063	0
0	368	110.061720487796	1
0	370	110.96382492175	0
0	385	113.352415959346	1
0	387	113.527485016179	2
0	392	116.557065352479	1
0	397	116.672474542395	0
0	415	119.771624009188	1
0	427	122.054191185311	0
0	434	122.625090166447	1
0	435	122.980034098471	0
0	448	124.041712479087	1
0	449	124.083601386507	0
0	468	125.777755570195	1
0	473	127.151994361509	2
0	474	128.671292396146	1
0	480	128.89129394982	0
0	498	130.451765382368	1
0	499	131.34374684576	0
0	505	131.407202633728	1
0	506	132.485835238424	0
0	518	135.667478829675	1
0	519	137.109336661783	0
0	525	137.615578616649	1
0	526	138.327930424814	0
0	542	138.881171999702	1
0	543	139.803883154047	0
0	587	144.875690795357	1
0	593	146.639992716685	2
0	594	146.771584660218	1
0	601	147.821918517954	2
0	603	148.442836235493	1
0	608	149.256408726711	0
0	616	150.064333847769	1
0	617	150.135599303854	0
0	623	150.874519375726	1
0	625	151.051019474459	2
0	627	152.128936179828	1
0	633	152.31758578944	2
0	636	153.124319292131	1
0	642	153.879420395507	2
0	643	153.940375899266	1
0	649	154.658319849715	0
0	659	156.283234470622	1
0	660	156.458070760077	0
0	679	159.952353414816	1
0	680	160.907341269619	0
0	725	173.100648744811	1
0	726	173.10932773496	0
0	782	188.541960604127	1
0	783	188.846648484099	0
0	806	196.468696035107	1
0	807	197.530131293327	0
0	822	202.321655258095	1
0	824	202.820642711878	2
0	829	206.613841727338	3
0	830	207.994766199293	2
0	836	208.731546578079	1
0	841	209.746314978682	0
0	868	222.156831482417	1
0	871	222.169121416493	2
0	872	224.49365536262	1
0	877	224.722851934307	0
0	885	226.896927114015	1
0	886	227.257097867918	0
0	893	228.574426492563	1
0	894	229.243045022182	0
0	913	233.650932454451	1
0	916	234.219255336808	0
0	944	237.642332372367	1
0	946	238.115418376574	0
0	952	239.693914145139	1
0	953	240.132018304223	0
0	959	240.214745411858	1
0	961	241.149840142675	2
0	962	243.048982029202	1
0	968	244.108850406533	2
0	969	245.208574333836	1
0	975	246.512821829245	2
0	976	246.63964159479	1
0	982	249.315814234872	2
0	983	250.748147816472	1
0	993	253.979757061323	0
0	1005	254.64440168559	1
0	1007	254.874457338124	2
0	1009	255.535315116737	1
0	1014	255.707141076906	0
0	1020	258.289879649483	1
0	1022	258.677255744665	2
0	1025	260.435336457156	1
0	1032	261.478546922844	0
0	1065	267.652519757154	1
0	1066	267.941928596578	0
0	1074	271.092531478976	1
0	1075	271.451236392576	0
0	1082	272.461261035091	1
0	1083	272.552948164455	0
0	1105	281.057528958624	1
0	1107	281.565948876787	2
0	1109	282.065771151887	3
0	1110	282.835839355268	2
0	1115	282.992226505524	1
0	1120	283.259295200062	0
0	1137	287.587739033212	1
0	1140	291.759944837879	0
0	1224	323.103587744191	1
0	1225	324.040133594363	0
0	1244	326.96577146284	1
0	1245	327.102534443056	0
0	1259	328.151568637846	1
0	1262	331.079729237905	0
0	1274	332.231499081361	1
0	1281	334.549688550178	2
0	1283	334.708721844171	3
0	1284	337.17290832216	2
0	1291	337.65304238737	3
0	1294	339.851397839916	2
0	1299	340.333081386523	1
0	1305	340.432204151297	2
0	1306	340.919904277458	1
0	1314	343.976793352198	0
0	1318	344.6189368302	1
0	1324	346.953234078501	0
0	1330	347.764173701831	1
0	1331	348.032990241601	0
0	1337	349.103088357992	1
0	1338	349.156182543118	0
0	1358	353.790282955482	1
0	1360	354.523563061579	2
0	1362	354.615323686652	3
0	1363	354.996282890761	2
0	1368	355.329483340481	1
0	1373	355.694245878644	0
0	1410	364.193635248119	1
0	1411	364.540191759448	0
0	1449	373.356259233186	1
0	1451	375.00511141851	0
0	1458	375.571171195814	1
0	1464	377.235392393177	2
0	1467	378.723268972915	1
0	1472	379.475357076925	0
0	1483	380.011976271349	1
0	1490	385.200282815975	0
0	1503	386.481027587164	1
0	1504	388.435454239522	0
0	1583	410.670714484504	1
0	1584	410.778120225085	0
0	1591	411.692019335822	1
0	1593	413.336836470677	0
0	1600	413.765737212426	1
0	1601	416.855396575326	0
0	1608	420.51562895076	1
0	1609	420.675553873334	0
0	1623	424.710081469525	1
0	1624	424.744423485123	0
0	1647	428.056738521359	1
0	1648	428.288677876227	0
0	1662	431.360249924794	1
0	1663	431.698563681071	0
0	1764	462.292851344994	1
0	1765	464.023941298206	0
0	1792	469.956097195981	1
0	1795	470.38606380049	0
0	1812	473.866615555373	1
0	1814	474.862902485816	0
0	1826	475.680247341887	1
0	1827	475.723133341348	0
0	1855	479.100496636541	1
0	1857	479.776824851652	2
0	1860	484.527154744082	1
0	1865	484.801525271341	0
0	1886	491.005180738098	1
0	1888	491.016846650765	2
0	1892	494.818731181653	3
0	1893	496.523216422018	2
0	1901	498.542010463475	1
0	1906	498.758229227263	0
0	1923	504.950175666173	1
0	1924	505.847338088531	0
0	1957	510.070319225897	1
0	1960	510.93293720531	0
0	2008	524.073257601805	1
0	2010	524.168405671542	2
0	2011	526.581724784035	1
0	2016	527.088541286887	0
0	2033	530.818197822966	1
0	2035	530.85546078488	2
0	2036	532.137714975153	1
0	2043	533.140130072036	2
0	2045	533.425754886911	3
0	2046	533.987650174685	2
0	2051	535.11111228889	1
0	2058	536.060555878595	0
0	2116	544.885883821452	1
0	2117	545.395693099715	0
0	2142	550.590576450129	1
0	2144	551.258457393417	0
0	2204	580.479540900993	1
0	2206	580.811410594567	2
0	2207	581.086634598727	1
0	2213	581.168167091442	2
0	2214	581.889975960065	1
0	2221	584.321317264767	0
0	2233	585.579980860378	1
0	2236	585.901934170184	0
0	2258	593.240767514922	1
0	2263	595.66421985409	0
0	2371	623.461114319115	1
0	2372	623.47522525544	0
0	2386	629.818753872724	1
0	2391	631.428345098727	0
0	2397	632.712081426925	1
0	2398	632.857738187938	0
0	2406	635.530761864936	1
0	2408	635.734986574741	2
0	2412	637.784616438122	3
0	2416	638.613972231462	4
0	2417	639.303267066972	3
0	2423	639.513144196724	2
0	2432	640.593450916748	1
0	2437	641.280167321586	0
0	2465	644.335218932925	1
0	2466	644.751218198783	0
0	2487	647.451267649201	1
0	2489	647.559267636105	2
0	2490	648.453888789492	1
0	2496	649.547168732005	0
0	2510	653.925889432845	1
0	2512	654.032247786393	2
0	2513	654.303454497939	1
0	2519	654.365156452014	2
0	2521	654.635996724261	3
0	2522	654.865519866574	2
0	2528	655.975613178883	3
0	2529	656.074930443457	2
0	2534	656.57366059067	1
0	2540	659.393271942405	0
0	2554	662.567444663155	1
0	2555	665.44530343236	0
0	2566	667.657915520119	1
0	2571	668.621313613104	0
0	2585	669.831201399895	1
0	2586	669.847643198179	0
0	2610	679.202748996985	1
0	2611	679.590918157952	0
0	2635	689.670901929946	1
0	2636	689.741412948811	0
0	2674	701.231685629897	1
0	2675	703.879708802319	0
0	2739	721.90591068691	1
0	2740	722.043444571254	0
0	2750	724.540815297721	1
0	2753	724.749268731574	0
0	2769	725.704676203835	1
0	2773	727.519365240203	0
0	2785	728.792497709577	1
0	2786	729.841298426486	0
0	2839	746.751502770594	1
0	2844	749.801549607173	0
0	2861	753.677677986771	1
0	2862	757.705380233483	0
0	2874	760.538386327034	1
0	2877	760.873475775948	0
0	2890	762.582776288864	1
0	2892	762.723680526093	2
0	2893	763.836567594895	1
0	2899	764.271885889682	0
0	2912	768.614412686819	1
0	2914	768.826674596417	2
0	2915	768.956003679031	1
0	2920	769.179368334301	0
0	2945	773.997223647974	1
0	2950	779.041938374539	0
0	2975	785.467557297889	1
0	2977	785.875759577462	2
0	2983	788.03313788947	3
0	2987	790.203705210394	4
0	2989	790.919129849493	5
0	2990	792.953726000394	4
0	2995	793.156975331789	3
0	3000	794.100959341189	2
0	3005	794.209333519346	1
0	3012	795.343310262162	0
0	3040	800.950525382957	1
0	3042	802.523146217285	2
0	3044	802.643031688582	3
0	3046	803.352867010426	2
0	3051	804.292220298378	1
0	3055	804.824633215765	2
0	3059	806.263916773729	1
0	3065	806.545748065819	0
0	3071	807.034154445285	1
0	3073	807.490814110429	0
0	3116	819.348687978501	1
0	3117	820.405461012819	0
0	3149	826.384390067064	1
0	3150	826.619477354929	0
0	3156	826.970569733193	1
0	3157	827.193716291649	0
0	3172	828.804261250565	1
0	3174	830.788258626686	0
0	3197	838.428729932423	1
0	3200	839.004737981431	2
0	3201	839.07343612446	1
0	3208	839.777922142754	2
0	3210	841.140841218079	3
0	3212	841.269639749473	4
0	3213	841.450371175957	3
0	3219	842.217073020751	2
0	3224	842.338121233201	1
0	3231	843.592530476956	0
0	3277	857.559576185694	1
0	3280	858.674716582411	0
0	3289	861.056406149744	1
0	3292	863.011077161665	0
0	3304	864.055807655753	1
0	3309	867.208349953169	2
0	3310	868.891371149404	1
0	3315	869.009143312806	0
0	3338	872.091373714511	1
0	3339	873.015426642817	0
0	3371	879.834101218989	1
0	3373	880.95317540554	2
0	3374	881.152535027399	1
0	3379	881.287631474459	0
0	3405	887.734068204453	1
0	3406	888.071145233009	0
0	3559	929.278921701497	1
0	3565	931.447986049824	0
0	3571	931.833065964484	1
0	3574	933.112546506202	2
0	3575	933.677960796795	1
0	3580	934.740591044617	0
0	3593	938.667082790585	1
0	3594	941.442231588796	0
0	3602	941.860624908518	1
0	3603	941.86204001866	0
0	3623	950.357315897159	1
0	3627	950.82838942151	2
0	3628	951.278905715809	1
0	3633	951.552851334256	0
0	3648	955.588281762347	1
0	3649	955.630202994674	0
0	3655	955.772439053353	1
0	3657	956.368804273305	2
0	3658	956.783781233906	1
0	3665	958.735606983697	2
0	3666	958.871638208666	1
0	3673	959.540398640557	0
0	3677	961.490333998019	1
0	3681	962.330320942063	0
0	3693	964.091852861679	1
0	3697	965.119545958186	0
0	3703	965.288656264623	1
0	3705	966.486966310739	0
0	3717	966.626615154563	1
0	3719	967.498506123138	0
0	3744	972.081598489107	1
0	3745	972.324371436609	0
0	3773	982.443300656522	1
0	3778	983.332351329368	2
0	3779	983.671237153721	1
0	3785	984.729527951632	2
0	3786	984.820172140627	1
0	3791	984.868531982866	0
0	3795	985.080380212379	1
0	3797	985.813357742615	2
0	3800	990.510086155134	1
0	3810	994.412471389371	0
0	3822	995.049201857331	1
0	3824	995.645992547404	2
0	3826	996.206891451351	3
0	3828	997.286585573432	4
0	3829	998.358343979275	3
0	3835	999.415250747503	4
0	3837	1000.365826798328	5
0	3838	1000.56951887578	4
0	3846	1002.813134353487	5
0	3849	1004.259399926303	4
0	3853	1004.635238171074	5
0	3855	1005.934497206274	6
0	3859	1006.328180410362	7
0	3862	1007.082121231619	6
0	3867	1007.948725281844	5
0	3875	1011.655515993052	6
0	3880	1014.692342734198	7
0	3881	1015.383989213417	6
0	3887	1015.477185644743	7
0	3888	1015.951292941187	6
0	3893	1016.248969779311	5
0	3900	1017.401779546834	4
0	3907	1017.853201979075	5
0	3908	1018.122657849941	4
0	3913	1018.958356824174	3
0	3919	1019.185159059586	2
0	3925	1019.528708459142	1
0	3933	1020.11253742342	2
0	3936	1021.141001127143	1
0	3941	1021.91200129615	0
0	3960	1029.894615347539	1
0	3962	1030.102398138757	0
0	3986	1035.312002202044	1
0	3988	1035.855103403128	2
0	3991	1036.674616581589	1
0	3996	1037.381023789494	0
0	4014	1038.923210327125	1
0	4015	1039.305506456903	0
0	4022	1039.47093560439	1
0	4025	1039.982480568289	2
0	4027	1040.659326950353	1
0	4036	1041.980396761146	2
0	4045	1044.151174790195	1
0	4051	1044.284832647742	2
0	4052	1045.239284446159	1
0	4057	1045.894094395022	0
0	4076	1050.437412385336	1
0	4078	1051.185258134345	0
0	4084	1052.422513460382	1
0	4092	1053.627463325451	0
0	4122	1060.720506988058	1
0	4124	1061.805269216993	0
0	4138	1065.119714428427	1
0	4139	1065.258641279777	0
0	4161	1067.924489214638	1
0	4164	1068.264414950743	2
0	4166	1069.028641927436	3
0	4167	1070.206468285694	2
0	4173	1070.637851082112	1
0	4179	1070.762875494751	0
0	4191	1071.682581878364	1
0	4192	1072.067447520432	0
0	4205	1073.881908966596	1
0	4206	1074.606954970546	0
0	4210	1076.203868258111	1
0	4212	1077.290539647486	2
0	4214	1078.309006632956	3
0	4218	1079.448965152966	4
0	4220	1080.634230902851	5
0	4223	1082.12388033018	4
0	4227	1082.205498709303	5
0	4230	1083.464900594867	4
0	4238	1085.585070396093	3
0	4244	1086.317952827063	2
0	4250	1088.635780064478	3
0	4251	1089.415403254514	2
0	4257	1089.937031685961	3
0	4258	1090.142919844476	2
0	4270	1095.319229997148	1
0	4277	1099.036141858795	0
0	4281	1100.481341764338	1
0	4285	1102.633425477992	2
0	4286	1102.946810216652	1
0	4291	1104.085867899787	0
0	4295	1104.410569346827	1
0	4298	1104.997385738791	0
0	4314	1108.16176710445	1
0	4319	1108.423658948378	2
0	4321	1109.021883352307	1
0	4327	1109.617030737186	0
0	4339	1110.611563306145	1
0	4342	1112.757417084782	0
0	4371	1119.558644146365	1
0	4372	1121.598108112084	0
0	4382	1123.491013020764	1
0	4383	1124.742674097058	0
0	4426	1137.659376662175	1
0	4427	1137.996407224327	0
0	4433	1138.283196781447	1
0	4435	1139.559824641533	2
0	4436	1139.771673968146	1
0	4442	1139.943150227437	2
0	4447	1141.730653468716	1
0	4452	1142.186795182072	0
0	4458	1142.203109134252	1
0	4459	1143.220798528347	0
0	4465	1143.426140283647	1
0	4469	1143.867231549057	2
0	4470	1144.119079014881	1
0	4476	1145.097278889317	0
0	4494	1148.577840111267	1
0	4495	1148.664385171048	0
0	4502	1148.863802214788	1
0	4505	1150.703031750682	2
0	4507	1150.776956004521	3
0	4508	1151.504797478455	2
0	4514	1152.314685411868	3
0	4518	1153.880548579332	4
0	4521	1155.058138506561	3
0	4527	1155.875529611982	2
0	4534	1158.19784810589	1
0	4540	1158.457562131741	0
0	4552	1160.596280020798	1
0	4554	1161.186779417031	0
0	4573	1162.240761675827	1
0	4577	1163.871151625398	0
0	4592	1165.961051630552	1
0	4593	1166.217378522712	0
0	4600	1166.381039222427	1
0	4604	1168.890168226985	0
0	4681	1188.852630688735	1
0	4682	1190.379459571361	0
0	4746	1207.153517584382	1
0	4748	1210.176107238281	0
0	4817	1227.487582484711	1
0	4819	1228.565617836761	0
0	4833	1231.28932211529	1
0	4834	1231.509980294782	0
0	4893	1248.678411580882	1
0	4897	1250.9730624021	2
0	4900	1251.141348038111	1
0	4905	1251.462920993868	0
0	4914	1251.716262670659	1
0	4917	1252.9019932892	0
0	4928	1256.232266622824	1
0	4930	1256.571224335592	2
0	4932	1256.702855936811	3
0	4937	1258.167282835838	4
0	4941	1259.253003033399	5
0	4943	1260.769410244488	4
0	4949	1261.187459668191	5
0	4951	1261.517566763254	4
0	4956	1262.185877149674	3
0	4963	1264.2109923983	4
0	4965	1264.302741303798	5
0	4966	1264.348729159201	4
0	4971	1264.440053287344	3
0	4979	1265.004880454661	2
0	4987	1267.602736513748	3
0	4988	1268.644787309077	2
0	4996	1269.508123007009	1
0	5004	1271.369089798012	2
0	5007	1273.099150771941	3
0	5009	1273.845503184761	4
0	5011	1274.857206381934	5
0	5012	1275.32801012455	4
0	5017	1275.776490052353	3
0	5025	1278.26261990124	4
0	5026	1278.741655582858	3
0	5032	1284.009730433325	2
0	5037	1284.3919662728	1
0	5042	1284.83621818288	0
0	5048	1285.731867829117	1
0	5050	1286.607336187335	0
0	5068	1289.860294210802	1
0	5069	1290.036504488728	0
0	5095	1294.293592383179	1
0	5103	1296.369011592109	0
0	5118	1301.46658301134	1
0	5121	1303.001182500742	0
0	5206	1327.701623579095	1
0	5209	1330.826869448878	0
0	5220	1331.376713179649	1
0	5221	1331.90428371217	0
0	5238	1335.239331771159	1
0	5245	1337.376196209914	2
0	5246	1338.279915428267	1
0	5251	1338.411136251737	0
0	5269	1340.889588878269	1
0	5271	1341.6620889898	2
0	5273	1343.363086479072	3
0	5277	1344.734047359519	4
0	5279	1344.948599399679	5
0	5280	1347.086342133525	4
0	5285	1347.41943850905	3
0	5293	1348.297670063185	2
0	5299	1348.446460824112	3
0	5300	1348.797213792342	2
0	5306	1348.93856189824	1
0	5311	1349.199706127717	0
0	5324	1351.657660995761	1
0	5331	1357.314271612259	2
0	5333	1357.61910978254	3
0	5337	1360.360464094234	4
0	5338	1360.517504542439	3
0	5343	1361.241662902281	2
0	5356	1363.879615082992	3
0	5357	1364.918313415019	2
0	5363	1367.030508977489	1
0	5369	1367.669620102944	0
0	5380	1368.927402870279	1
0	5382	1369.846342957335	0
0	5395	1371.096389743414	1
0	5397	1372.020942777826	2
0	5399	1372.383376993674	3
0	5401	1372.602750927952	4
0	5402	1372.993311750951	3
0	5411	1374.9390592304	2
0	5420	1376.024009442925	3
0	5422	1376.962268850725	4
0	5427	1379.638127049381	5
0	5429	1379.7778036865	6
0	5431	1380.937812291172	7
0	5432	1381.279470793892	6
0	5437	1382.116148622651	5
0	5444	1383.398438889074	4
0	5449	1383.877560910316	3
0	5455	1384.517285265313	2
0	5461	1384.534235159642	3
0	5462	1384.627937049938	2
0	5470	1385.616301299365	3
0	5471	1386.656288327995	2
0	5476	1386.682284548827	1
0	5489	1387.872690310138	0
0	5496	1388.176070149693	1
0	5497	1388.693474147014	0
0	5516	1389.63689419702	1
0	5517	1389.786456541287	0
0	5546	1401.26130422567	1
0	5547	1401.680512424993	0
0	5574	1409.213244120909	1
0	5577	1410.148285851706	0
0	5584	1411.261818543954	1
0	5585	1411.61214000789	0
0	5614	1418.339322370554	1
0	5615	1419.327519768612	0
0	5624	1420.571392818398	1
0	5625	1420.636424877435	0
0	5648	1424.177152185804	1
0	5649	1425.094713131879	0
0	5672	1428.667288874534	1
0	5674	1430.225851792442	2
0	5678	1430.537138406818	3
0	5687	1435.132799583275	4
0	5689	1435.744277645145	5
0	5690	1435.856233259676	4
0	5695	1436.357749729937	3
0	5700	1436.73957725603	2
0	5705	1436.871452505439	1
0	5709	1437.094655626918	2
0	5712	1438.20440201702	1
0	5720	1440.457484804137	0
0	5732	1441.282868671121	1
0	5733	1441.779196094332	0
0	5761	1445.355263582885	1
0	5762	1445.789859294349	0
0	5787	1449.429200617021	1
0	5790	1451.013710411207	0
0	5819	1463.098605496314	1
0	5822	1463.536746567208	0
0	5841	1468.483190231945	1
0	5842	1470.762140699725	0
0	5881	1478.680641496572	1
0	5882	1478.703494783575	0
0	5915	1486.648181027223	1
0	5916	1487.19391767347	0
0	5962	1500.349113742811	1
0	5963	1500.684178237863	0
0	6007	1512.422547509167	1
0	6009	1513.869065054502	0
0	6016	1514.694431013813	1
0	6017	1516.308109699548	0
0	6045	1539.398452009942	1
0	6047	1539.75574101068	2
0	6052	1541.985034535379	1
0	6058	1542.236067850545	0
0	6085	1547.96242915297	1
0	6087	1550.44159274099	0
0	6110	1559.55282707162	1
0	6111	1559.754809595585	0
0	6126	1564.874946829467	1
0	6127	1565.352787735527	0
0	6185	1582.761607777691	1
0	6187	1583.04210468055	0
0	6193	1583.671580010739	1
0	6194	1583.858530938875	0
0	6214	1585.816037823967	1
0	6215	1586.976714745239	0
0	6223	1587.393206598995	1
0	6226	1588.49204033988	0
0	6232	1588.647545503774	1
0	6233	1589.061759111225	0
0	6239	1589.104761705047	1
0	6241	1589.426804431733	2
0	6244	1590.503738236741	3
0	6246	1590.605384095076	4
0	6247	1590.694578504757	3
0	6253	1592.082378149791	2
0	6258	1592.811844468367	1
0	6267	1593.964804828273	0
0	6278	1595.02845122869	1
0	6279	1595.14102873909	0
0	6300	1599.399147393583	1
0	6301	1600.064002062286	0
0	6305	1600.25094553722	1
0	6314	1603.733925595886	0
0	6321	1604.380739416324	1
0	6322	1604.561689775685	0
0	6337	1607.616012490899	1
0	6338	1612.808706268069	0
0	6345	1614.629661067405	1
0	6346	1614.801245606885	0
0	6363	1619.063026794528	1
0	6366	1622.463691171703	0
0	6393	1627.993905413958	1
0	6397	1629.981376508848	2
0	6398	1632.1772678	1
0	6403	1632.368413275432	0
0	6437	1641.296399287764	1
0	6439	1641.931126838309	2
0	6443	1642.256216456826	3
0	6444	1642.297612304796	2
0	6450	1642.573822051971	3
0	6453	1642.72924566693	2
0	6458	1643.773922050659	1
0	6464	1644.816886452202	2
0	6466	1646.242543955664	1
0	6473	1647.852817107066	0
0	6486	1649.791556460227	1
0	6487	1650.295278285084	0
0	6544	1661.08924739232	1
0	6547	1661.95806699024	0
0	6553	1662.383188741651	1
0	6555	1663.907018998091	0
0	6561	1664.019787794666	1
0	6563	1665.735660254595	0
0	6603	1681.028144489018	1
0	6604	1681.128053032764	0
0	6620	1682.777845464439	1
0	6622	1683.262685437396	2
0	6623	1683.759710543403	1
0	6628	1683.9970555165	0
0	6632	1684.071880875077	1
0	6639	1685.739449061844	2
0	6641	1687.943773848909	1
0	6648	1688.86114017799	2
0	6651	1689.740811727406	1
0	6657	1689.797261199136	2
0	6663	1690.55576374407	3
0	6664	1691.39876393454	2
0	6669	1691.901450882622	1
0	6675	1692.055733055306	2
0	6676	1692.324207702348	1
0	6683	1692.506232478798	2
0	6685	1693.185951686503	1
0	6690	1693.791866100398	0
0	6708	1697.291915759019	1
0	6711	1698.010507452324	2
0	6715	1699.407902864482	1
0	6721	1700.150418326026	2
0	6723	1701.401885655742	1
0	6730	1703.070076312405	0
0	6748	1705.068341450528	1
0	6750	1705.432921175406	2
0	6751	1705.947685269284	1
0	6756	1706.391401737896	0
0	6811	1714.110953763034	1
0	6813	1714.195976825489	2
0	6814	1714.911612520801	1
0	6819	1715.538531193031	0
0	6860	1721.719528712078	1
0	6861	1721.931284286914	0
0	6890	1726.9914562518	1
0	6892	1728.998180966466	2
0	6893	1729.120857763725	1
0	6899	1731.110761181568	0
0	6916	1738.586094739605	1
0	6917	1738.81361523042	0
0	6932	1742.375608614228	1
0	6934	1743.109387678415	0
0	6983	1750.595334675489	1
0	6984	1751.334347751636	0
0	7009	1759.578698232517	1
0	7010	1760.017927870986	0
0	7024	1762.21943101748	1
0	7027	1764.321285565947	0
0	7048	1769.053742103882	1
0	7050	1769.321163959805	2
0	7051	1769.698386371991	1
0	7056	1770.062626311631	0
0	7087	1776.855936527988	1
0	7093	1777.752139254187	2
0	7095	1778.422882265777	3
0	7097	1778.979447415352	4
0	7103	1780.708287731163	5
0	7107	1782.147780322282	4
0	7112	1782.511705434407	3
0	7117	1782.670398242763	2
0	7123	1783.102857173224	3
0	7127	1783.390451984048	2
0	7132	1783.530591255878	1
0	7137	1783.632658264634	0
0	7151	1784.028826223534	1
0	7157	1787.268656862918	0
0	7174	1788.93325793867	1
0	7179	1789.619368027311	2
0	7180	1789.944208240134	1
0	7185	1790.104738199383	0
0	7199	1792.929621470374	1
0	7203	1794.73084358674	2
0	7204	1794.964550733726	1
0	7209	1796.260882913959	0
0	7227	1801.911769817233	1
0	7229	1802.062857197598	2
0	7230	1803.158956206487	1
0	7235	1803.700035933477	0
0	7245	1805.37368004711	1
0	7249	1805.955581949083	0
0	7292	1826.113258023739	1
0	7294	1826.745301992276	0
0	7323	1831.14986852031	1
0	7324	1832.16718633258	0
0	7356	1840.08924808102	1
0	7358	1842.668313735659	2
0	7359	1843.365058334353	1
0	7365	1844.80998348168	0
0	7383	1849.756000718241	1
0	7385	1850.435015058968	0
0	7391	1852.156600789736	1
0	7394	1854.718437430821	0
0	7414	1858.358466420163	1
0	7415	1859.655675769893	0
0	7421	1860.066920675474	1
0	7424	1860.083514731439	0
0	7452	1869.05704437249	1
0	7456	1870.800011638767	0
0	7516	1884.29849354132	1
0	7518	1884.333522575907	2
0	7520	1884.397930761512	3
0	7521	1884.479177674347	2
0	7526	1886.537138279865	1
0	7530	1886.590245741717	2
0	7536	1888.563153429738	1
0	7542	1888.741992767516	2
0	7544	1891.129153121341	1
0	7549	1891.370987186489	0
0	7553	1892.736206725999	1
0	7556	1894.00014032452	0
0	7560	1894.689610353593	1
0	7564	1896.427985409237	2
0	7566	1898.573623408998	3
0	7568	1899.459141765344	4
0	7571	1901.39466935801	3
0	7575	1903.358329256763	4
0	7578	1904.0285284294	3
0	7584	1906.317676393392	2
0	7590	1906.714087683344	1
0	7595	1906.861966667084	0
0	7599	1906.935917805703	1
0	7603	1908.53353524785	0
0	7613	1909.193495549008	1
0	7618	1909.720626747245	0
0	7635	1913.206218879483	1
0	7636	1913.385863076436	0
0	7687	1930.320326125201	1
0	7691	1932.651970660917	2
0	7693	1935.632981978984	3
0	7695	1936.21322309375	4
0	7697	1938.051033927988	5
0	7699	1938.098640729358	6
0	7700	1938.64241367714	5
0	7706	1939.561930354301	4
0	7712	1940.459232139919	3
0	7718	1941.287405144613	4
0	7719	1942.870837743843	3
0	7724	1943.770292442785	2
0	7729	1944.203936081959	1
0	7734	1945.796093105727	0
0	7740	1946.888595043239	1
0	7742	1947.321729382062	2
0	7743	1947.55961839781	1
0	7752	1949.856632710279	0
0	7760	1953.36217902038	1
0	7761	1953.374242638081	0
0	7774	1956.492819348733	1
0	7778	1958.93190868627	0
0	7784	1959.332141298702	1
0	7788	1959.848843657818	2
0	7789	1959.883120098922	1
0	7794	1960.012206146643	0
0	7803	1961.695540580109	1
0	7804	1961.876405105445	0
0	7833	1968.413342559573	1
0	7835	1968.723168227822	2
0	7836	1968.770675755318	1
0	7842	1969.043913737204	0
0	7871	1973.330829446769	1
0	7872	1975.231448598642	0
0	7878	1976.391336112793	1
0	7879	1976.543768489152	0
0	7886	1977.447215645849	1
0	7891	1978.435766312545	2
0	7892	1979.286311109663	1
0	7898	1979.921538354982	2
0	7899	1980.106953129733	1
0	7905	1981.044446958917	0
0	7914	1982.275288037061	1
0	7915	1982.317827886048	0
0	7935	1983.791725307026	1
0	7937	1983.84838843271	2
0	7942	1985.50980545242	1
0	7947	1987.246379569811	0
0	7955	1987.936445829611	1
0	7959	1988.293648234779	2
0	7962	1988.699021573597	3
0	7964	1988.829558136482	4
0	7965	1989.452871676832	3
0	7971	1989.716146118808	4
0	7973	1991.593238026445	3
0	7979	1992.097534869475	4
0	7985	1993.801446474918	3
0	7991	1994.875842216707	2
0	7996	1995.826151616339	1
0	8001	1996.000144305476	0
0	8066	2017.228201643828	1
0	8071	2019.153040826387	0
0	8077	2019.295664492744	1
0	8078	2019.548670841737	0
0	8099	2021.819163535154	1
0	8104	2022.799057728601	0
0	8132	2025.959628762548	1
0	8137	2028.496927869672	2
0	8140	2029.184201650362	1
0	8146	2030.065192943412	0
0	8152	2030.072660385659	1
0	8153	2030.325861233417	0
0	8190	2036.97670598868	1
0	8196	2039.829623757196	2
0	8197	2041.264609902576	1
0	8206	2042.909674346745	0
0	8225	2044.564670427143	1
0	8235	2047.816221254191	0
0	8257	2052.105049952085	1
0	8259	2052.38218103258	2
0	8261	2054.520931625778	3
0	8265	2055.511727101034	4
0	8266	2055.701699680343	3
0	8271	2055.704834947611	2
0	8277	2056.83273064891	3
0	8281	2060.96773893042	4
0	8282	2061.122999095833	3
0	8288	2063.327009008347	2
0	8296	2065.791729913516	1
0	8303	2066.22304146734	0
0	8330	2071.206672953577	1
0	8336	2073.648755011888	2
0	8338	2073.843042613216	3
0	8340	2075.190114144662	4
0	8341	2075.976923946054	3
0	8347	2075.998143229423	4
0	8349	2077.345153168503	3
0	8354	2077.364873209856	2
0	8359	2077.777294477366	1
0	8365	2080.80516805169	0
0	8375	2081.351304771928	1
0	8385	2085.679204034306	0
0	8391	2086.022132070999	1
0	8392	2086.081469451324	0
0	8398	2086.312841074489	1
0	8399	2086.51605510286	0
0	8510	2115.197784521008	1
0	8511	2116.11014120378	0
0	8517	2116.111622196392	1
0	8519	2117.641607913164	0
0	8536	2120.45212897538	1
0	8539	2123.497658449224	0
0	8598	2133.404413369419	1
0	8600	2133.692147436771	2
0	8602	2134.749752862758	3
0	8604	2135.267759124975	2
0	8610	2135.677602375712	1
0	8616	2136.307851066574	2
0	8618	2136.977578224914	1
0	8624	2137.438882642422	2
0	8626	2137.778596849953	1
0	8631	2137.822924965411	0
0	8641	2141.268153726468	1
0	8643	2141.326268056688	2
0	8645	2142.6781482359	3
0	8647	2144.433852978018	4
0	8648	2145.621216969317	3
0	8653	2145.814304476574	2
0	8658	2145.82183260983	1
0	8664	2146.710345055868	2
0	8668	2148.474669932464	3
0	8669	2148.667904521142	2
0	8674	2149.088631868904	1
0	8679	2150.625863464952	0
0	8692	2158.874498968688	1
0	8697	2161.134120463018	0
0	8703	2162.038403122507	1
0	8706	2162.137715453698	0
0	8725	2167.802390505666	1
0	8728	2168.789370685414	0
0	8788	2186.346960147301	1
0	8789	2186.451814907708	0
0	8806	2187.95046549737	1
0	8808	2188.636489248182	2
0	8809	2189.213630518299	1
0	8816	2190.519660410176	2
0	8817	2190.707357594438	1
0	8823	2191.341021219618	2
0	8827	2193.00788344858	3
0	8828	2194.38423504311	2
0	8834	2195.1015674619	1
0	8840	2195.791707473954	0
0	8846	2197.485174252715	1
0	8849	2198.760625524215	0
0	8863	2203.586853406094	1
0	8864	2205.418898930989	0
0	8893	2219.412693233823	1
0	8894	2220.459084265087	0
0	8916	2225.686912278495	1
0	8917	2225.789005497534	0
0	8933	2228.889191216049	1
0	8934	2228.916676660084	0
0	8990	2246.190822201642	1
0	8991	2246.214363697311	0
0	9004	2246.968037908331	1
0	9006	2247.480826663356	2
0	9007	2247.695667217676	1
0	9012	2249.139613355959	0
0	9018	2250.208487105947	1
0	9019	2250.231065204153	0
0	9023	2250.625182406137	1
0	9028	2251.1052058584	2
0	9029	2251.881269431477	1
0	9037	2253.359066246485	0
0	9074	2266.888397972794	1
0	9076	2267.791693953607	0
0	9083	2268.307161865836	1
0	9086	2269.482696795225	0
0	9102	2275.506386889876	1
0	9104	2275.690881955957	2
0	9105	2275.992126374638	1
0	9113	2277.235884588499	0
0	9138	2282.528542236573	1
0	9142	2283.873291568687	2
0	9144	2283.98028374307	3
0	9145	2285.065045074053	2
0	9150	2285.410655224621	1
0	9157	2286.062517528435	2
0	9160	2287.718619656986	3
0	9165	2288.340600464843	4
0	9167	2288.941006817933	5
0	9168	2289.378387670715	4
0	9180	2291.96181416762	3
0	9185	2291.970358552124	2
0	9193	2294.752706197681	3
0	9194	2295.547716397746	2
0	9200	2296.513373791538	3
0	9203	2297.201257717251	4
0	9204	2297.362953058413	3
0	9210	2297.95648004637	2
0	9218	2298.683412557998	1
0	9224	2299.400022435555	0
0	9241	2301.494156702139	1
0	9244	2303.338773128401	0
0	9260	2304.801749365093	1
0	9266	2308.166733228412	2
0	9268	2309.566091885011	3
0	9269	2309.71045874546	2
0	9275	2311.264153928456	1
0	9281	2313.041798541719	0
0	9287	2313.626868717088	1
0	9289	2313.663544469938	2
0	9290	2313.739183883881	1
0	9297	2314.675890064463	2
0	9300	2316.144193432195	3
0	9301	2316.460295914872	2
0	9306	2316.750360748573	1
0	9311	2317.310519690328	0
0	9323	2319.86805610488	1
0	9327	2320.593498260101	2
0	9328	2320.666567386626	1
0	9335	2321.863364662374	0
0	9389	2333.103997675151	1
0	9390	2333.190141114551	0
0	9413	2351.198996600416	1
0	9414	2351.368901380726	0
0	9447	2361.056868751796	1
0	9448	2361.180041219796	0
0	9497	2375.04838781513	1
0	9501	2376.234201336007	2
0	9502	2376.293061849052	1
0	9508	2377.177965370624	0
0	9520	2392.725806906552	1
0	9524	2393.759493984449	2
0	9525	2394.388078790881	1
0	9531	2394.893546080561	2
0	9532	2394.977509274985	1
0	9540	2396.534775622809	2
0	9541	2396.630142198036	1
0	9548	2398.667188037307	0
0	9562	2400.54330321481	1
0	9564	2401.624068863935	0
0	9587	2408.251904558398	1
0	9589	2409.032385877889	2
0	9591	2409.272515798305	3
0	9592	2409.724588595125	2
0	9597	2410.020230771032	1
0	9602	2410.582801822734	0
0	9618	2414.468852786106	1
0	9624	2418.750716869255	2
0	9625	2419.471108835884	1
0	9631	2420.091001868407	2
0	9634	2421.319960034742	1
0	9640	2421.33741118826	2
0	9641	2421.422311817311	1
0	9645	2421.701807277107	2
0	9649	2422.349957069705	3
0	9653	2424.650478720904	2
0	9663	2427.058987303691	1
0	9668	2427.581701746785	0
0	9690	2430.568157228015	1
0	9693	2431.552911719183	0
0	9704	2435.067180831196	1
0	9705	2435.30269453737	0
0	9714	2436.129757545342	1
0	9720	2437.827965084205	0
0	9746	2443.702915594089	1
0	9752	2448.056790222628	2
0	9753	2448.979526302136	1
0	9758	2449.65626022282	0
0	9773	2452.289206521064	1
0	9775	2452.771934579099	2
0	9778	2453.469362677918	1
0	9784	2453.52790962204	2
0	9785	2454.89449366721	1
0	9793	2455.664689736671	2
0	9795	2456.243176440966	3
0	9799	2460.292951283479	4
0	9800	2460.583368715874	3
0	9806	2460.844028119901	4
0	9808	2461.932025894652	3
0	9815	2462.525650476279	4
0	9818	2463.16476601207	3
0	9823	2463.396228897871	2
0	9831	2464.79353721181	3
0	9833	2464.847638180523	4
0	9835	2465.968870803283	3
0	9840	2466.263603840519	2
0	9845	2467.41304082522	1
0	9849	2467.766729363884	2
0	9851	2467.864583908039	3
0	9854	2469.87498960075	2
0	9862	2472.811169436072	1
0	9867	2473.318054332883	0
0	9896	2479.434064947769	1
0	9898	2482.59522057962	2
0	9899	2483.459069957131	1
0	9907	2483.79681573097	0
0	9915	2485.119689217916	1
0	9917	2485.445024953753	2
0	9918	2486.756411592282	1
0	9925	2487.728528293148	0
0	9969	2496.679526556191	1
0	9974	2498.398884399536	0
0	9980	2498.745232765801	1
0	9981	2498.857563826383	0
0	9988	2499.255704925257	1
0	9989	2499.299742837822	0
0	10002	2501.360409750711	1
0	10004	2501.94875746229	0
0	10019	2503.797449693823	1
0	10021	2503.797647018695	2
0	10023	2504.111807820606	3
0	10026	2507.392153238013	2
0	10033	2508.055611442722	3
0	10034	2509.840637868346	2
0	10042	2510.408368739412	1
0	10047	2511.187331846304	0
0	10060	2518.690559412107	1
0	10065	2524.188016730695	0
0	10074	2525.702385254063	1
0	10075	2526.827811799252	0
0	10086	2530.275967422338	1
0	10087	2530.480017069077	0
0	10095	2531.033065715817	1
0	10096	2531.54814209186	0
0	10107	2532.548493557872	1
0	10109	2532.654360462661	2
0	10110	2532.892471082455	1
0	10118	2533.762685252343	2
0	10119	2533.763090975948	1
0	10124	2533.891316377576	0
0	10128	2533.997305549781	1
0	10132	2536.226095196489	0
0	10146	2538.50386582292	1
0	10147	2540.060636089318	0
0	10161	2542.70548955206	1
0	10162	2543.174072647279	0
0	10175	2543.749784408647	1
0	10178	2545.110167643804	0
0	10189	2546.155435236513	1
0	10191	2546.549976988149	0
0	10218	2549.588486513953	1
0	10220	2551.074193323997	2
0	10224	2553.126177596303	3
0	10226	2553.224619735309	4
0	10230	2556.749155479394	5
0	10231	2557.028041281589	4
0	10240	2559.948750757239	3
0	10245	2562.531891852664	2
0	10250	2562.686680720927	1
0	10256	2562.892847073011	2
0	10257	2563.200503597978	1
0	10261	2564.079526190439	2
0	10265	2568.815182325202	3
0	10267	2570.410611646168	4
0	10273	2572.96369724038	5
0	10274	2573.310551685765	4
0	10279	2573.430917831534	3
0	10284	2574.995058242237	2
0	10289	2578.890894785185	1
0	10293	2580.075327815316	2
0	10297	2583.324069520736	1
0	10302	2583.46440633694	0
0	10308	2584.829659132679	1
0	10314	2585.254633912003	2
0	10316	2585.503355669937	1
0	10321	2585.726636651782	0
0	10333	2587.032340116869	1
0	10336	2588.090299535919	2
0	10337	2588.596429275434	1
0	10342	2588.730135287771	0
0	10373	2591.905345313961	1
0	10374	2592.1320819296	0
0	10383	2593.270367911316	1
0	10386	2595.657108543985	0
0	10420	2604.986267039102	1
0	10421	2605.133617809488	0
0	10446	2609.265863435482	1
0	10448	2609.44219000375	2
0	10451	2610.773430484063	3
0	10454	2612.948465977087	2
0	10460	2613.159015073561	3
0	10461	2613.618298550435	2
0	10466	2613.673763478582	1
0	10472	2614.295969251562	0
0	10517	2622.043620099002	1
0	10519	2623.358231983236	2
0	10520	2623.784517358905	1
0	10527	2626.102972298568	0
0	10548	2632.213137838831	1
0	10549	2633.413714898411	0
0	10583	2639.159875948077	1
0	10586	2640.838005166508	0
0	10601	2645.007503439489	1
0	10606	2648.653278066046	0
0	10620	2650.639646427079	1
0	10623	2654.724292393353	0
0	10629	2655.466154918107	1
0	10631	2656.165583191289	0
0	10637	2656.187432968282	1
0	10638	2656.46291218823	0
0	10646	2656.860658913255	1
0	10650	2658.910962799493	0
0	10666	2662.542357628999	1
0	10670	2664.356546311143	0
0	10685	2667.870059506908	1
0	10690	2668.781723668414	0
0	10697	2669.560856008779	1
0	10698	2671.599103155407	0
0	10705	2673.745833926903	1
0	10706	2675.105315180162	0
0	10717	2676.145549386675	1
0	10729	2682.557524451468	0
0	10747	2688.021562066734	1
0	10748	2691.429690751762	0
0	10763	2693.139317390881	1
0	10766	2693.882901657558	0
0	10777	2694.554871178699	1
0	10783	2697.670071116717	0
0	10794	2702.255390363092	1
0	10795	2702.745687579966	0
0	10812	2703.256473012249	1
0	10815	2703.844930902563	2
0	10818	2705.166861778426	3
0	10820	2706.377444080333	2
0	10825	2706.593387547053	1
0	10833	2707.676493160916	0
0	10859	2711.323633628105	1
0	10862	2711.498589172891	0
0	10873	2711.667402036381	1
0	10874	2711.720568923367	0
0	10878	2712.615027069513	1
0	10884	2713.931312001919	2
0	10885	2714.474283988996	1
0	10889	2714.597759322884	2
0	10894	2716.251419675656	1
0	10903	2717.152767478024	0
0	10909	2717.164781339094	1
0	10912	2719.225411085882	0
0	10951	2724.675804839133	1
0	10952	2725.474215410827	0
0	10991	2740.907068250606	1
0	10993	2740.91329124858	2
0	10994	2742.431010542901	1
0	11000	2743.460637182018	0
0	11006	2743.594299773177	1
0	11008	2744.629734550064	0
0	11040	2757.510835674999	1
0	11041	2757.631963976927	0
0	11047	2758.327353802567	1
0	11050	2758.586055545142	0
0	11056	2758.941819921273	1
0	11060	2760.61429778857	2
0	11062	2760.94039464587	3
0	11068	2763.392884242164	2
0	11074	2763.873510268735	3
0	11075	2764.511187942996	2
0	11080	2764.761135192302	1
0	11090	2769.082655469686	2
0	11094	2770.303730609263	3
0	11096	2770.61578538834	4
0	11097	2770.816050272287	3
0	11102	2772.238968515179	2
0	11107	2773.205291600757	1
0	11118	2775.231220486129	0
0	11144	2777.050768941667	1
0	11147	2778.296504700308	0
0	11158	2779.550902741023	1
0	11161	2781.499267748391	0
0	11167	2781.721856716495	1
0	11168	2781.842319513791	0
0	11174	2783.08812196215	1
0	11176	2783.518256124449	2
0	11178	2784.009338315477	1
0	11183	2784.428847129553	0
0	11209	2787.586553207742	1
0	11210	2787.59211882608	0
0	11228	2789.91678897701	1
0	11231	2790.740907503239	2
0	11232	2791.120298236937	1
0	11238	2791.377137665849	2
0	11245	2794.21227748562	3
0	11246	2796.726007997801	2
0	11251	2797.03454231857	1
0	11256	2797.098374642356	0
0	11299	2808.589321424412	1
0	11301	2809.167060741143	2
0	11305	2811.493217882317	3
0	11306	2813.237758092663	2
0	11313	2813.781671732114	1
0	11318	2814.392127064373	0
0	11344	2818.219487401098	1
0	11346	2820.885665224944	2
0	11349	2822.187973265362	1
0	11355	2822.975857551675	2
0	11358	2823.653821042617	1
0	11365	2824.161697254431	0
0	11371	2824.361115622733	1
0	11374	2825.397097308401	2
0	11375	2825.533355489415	1
0	11380	2827.209944817367	0
0	11392	2829.250020712158	1
0	11395	2833.301141984103	0
0	11415	2836.854888599028	1
0	11417	2837.666641257915	2
0	11419	2838.119147631755	3
0	11425	2840.066654760739	4
0	11426	2841.226380893081	3
0	11432	2843.02264032168	2
0	11437	2843.91223389469	1
0	11446	2845.543079644458	0
0	11460	2847.093418585304	1
0	11464	2849.579897393274	2
0	11466	2853.337300360093	3
0	11467	2853.386003667511	2
0	11472	2853.611700724308	1
0	11480	2855.300009972749	0
0	11503	2861.940267645465	1
0	11506	2862.20458867335	2
0	11511	2862.767002362066	3
0	11513	2862.903865882457	4
0	11514	2862.954268044112	3
0	11521	2863.360574213496	2
0	11526	2863.643691105332	1
0	11531	2863.690626052158	0
0	11539	2865.136099422664	1
0	11542	2866.932758394522	2
0	11544	2867.095188057689	1
0	11553	2867.822426183122	0
0	11559	2867.872122225312	1
0	11569	2870.810569166951	2
0	11571	2871.418094081951	3
0	11572	2871.825705616398	2
0	11581	2873.943275765734	1
0	11586	2874.18351510876	0
0	11592	2874.563686175511	1
0	11595	2876.401495058389	2
0	11596	2877.555664562702	1
0	11602	2878.400314352176	0
0	11620	2880.653950811845	1
0	11621	2880.875463384851	0
0	11635	2885.053811688429	1
0	11638	2885.832669746647	0
0	11646	2886.161109204457	1
0	11647	2887.093862052431	0
0	11661	2888.923666209252	1
0	11664	2889.171332630089	0
0	11679	2892.192678494382	1
0	11681	2892.583657695473	2
0	11683	2893.897891739989	3
0	11684	2894.674927123557	2
0	11690	2894.959959584053	1
0	11695	2896.780163138657	0
0	11731	2903.082916568759	1
0	11733	2906.053575416884	2
0	11736	2906.464590791137	1
0	11744	2907.017123773665	0
0	11752	2907.596093891343	1
0	11757	2908.659590070361	0
0	11769	2909.619383285562	1
0	11770	2909.661987768889	0
0	11783	2911.467127403603	1
0	11784	2911.699324536267	0
0	11795	2914.264741813483	1
0	11796	2914.563182868467	0
0	11823	2918.492437493693	1
0	11824	2918.600314205628	0
0	11831	2919.757104027438	1
0	11832	2921.807259534747	0
0	11838	2921.881780438852	1
0	11839	2922.282996641248	0
0	11892	2937.262820364923	1
0	11893	2938.452030466673	0
0	11901	2938.600241141667	1
0	11903	2938.699997043662	2
0	11906	2940.382739322089	1
0	11911	2940.418841550686	0
0	11917	2940.889188239177	1
0	11921	2942.874012364659	2
0	11922	2942.927789404829	1
0	11929	2946.514080694201	0
0	11974	2959.695562769376	1
0	11976	2961.6716236407	0
0	11982	2961.874955125891	1
0	11983	2962.851656195759	0
0	11998	2967.312585574891	1
0	12000	2967.358002948676	2
0	12002	2968.0624396393	3
0	12005	2968.689305926409	2
0	12011	2968.971927291029	1
0	12016	2969.250971333792	0
0	12022	2969.502169034059	1
0	12023	2971.248750819417	0
0	12027	2971.943923083837	1
0	12030	2973.665703669837	0
0	12059	2983.715403803462	1
0	12062	2984.6778322604	2
0	12063	2985.918050761034	1
0	12071	2987.405715103339	0
0	12077	2987.415571351893	1
0	12084	2989.698488083717	0
0	12122	2996.341307075035	1
0	12124	2996.415980554996	2
0	12129	2997.32106173285	3
0	12130	2998.981500703635	2
0	12135	2999.067892304589	1
0	12141	2999.746561732075	0
0	12155	3002.541289194277	1
0	12156	3004.095977843901	0
0	12228	3027.516114174903	1
0	12231	3028.259574126993	2
0	12232	3029.301108493913	1
0	12237	3029.601991597526	0
0	12259	3032.246510990878	1
0	12260	3032.548096005552	0
0	12266	3033.46272800564	1
0	12268	3035.406597095941	0
0	12356	3059.971121623514	1
0	12357	3060.354820912583	0
0	12384	3069.304193607634	1
0	12385	3069.797591667496	0
0	12391	3069.97031596351	1
0	12393	3071.185323741122	0
0	12423	3075.119784128708	1
0	12424	3076.955370387568	0
0	12456	3084.427581785069	1
0	12458	3084.957676651818	0
0	12480	3090.45572771066	1
0	12481	3090.750845508898	0
0	12503	3103.450937175785	1
0	12504	3103.9658386514	0
0	12515	3107.856956816017	1
0	12518	3108.373732980914	0
0	12522	3109.143490175099	1
0	12525	3109.811395822791	0
0	12587	3125.774865794472	1
0	12588	3127.541487743268	0
0	12617	3131.993300935584	1
0	12620	3133.233897917574	2
0	12622	3133.252901673931	3
0	12625	3134.044751758851	2
0	12630	3134.05703502101	1
0	12638	3137.722763400954	0
0	12650	3139.141067716602	1
0	12652	3139.420136987364	0
0	12658	3140.453397494906	1
0	12662	3142.032477104882	0
0	12710	3153.192677345075	1
0	12712	3153.346781958567	2
0	12717	3156.460385494227	1
0	12724	3157.225065331969	2
0	12726	3157.787139230571	3
0	12728	3158.72278978241	4
0	12729	3160.759026466463	3
0	12734	3161.405664925411	2
0	12740	3161.430801714819	3
0	12742	3161.64721012673	2
0	12747	3162.487102567921	1
0	12753	3163.359165021759	2
0	12754	3163.489955476165	1
0	12758	3165.076755201028	2
0	12760	3166.32006495165	3
0	12763	3166.71808191512	2
0	12767	3167.768343589993	3
0	12770	3167.817671661002	2
0	12775	3169.73753852955	1
0	12783	3170.639922201305	2
0	12785	3170.959571014924	3
0	12787	3171.594720943388	2
0	12791	3171.876960330192	3
0	12795	3175.72298024497	2
0	12801	3176.151811142363	1
0	12806	3177.024558042618	0
0	12833	3181.01033114596	1
0	12834	3181.010649015163	0
0	12862	3196.158496099842	1
0	12866	3196.532377585864	2
0	12867	3196.836913013125	1
0	12872	3196.892887237451	0
0	12881	3198.190423394533	1
0	12883	3199.090813834239	2
0	12887	3202.009387641532	1
0	12892	3202.277613066757	0
0	12923	3207.994005300464	1
0	12926	3209.981379135796	0
0	12932	3210.93263791752	1
0	12933	3211.780724770233	0
0	12939	3212.113565811048	1
0	12941	3212.467130938179	0
0	12948	3212.609857941976	1
0	12951	3213.30304335801	2
0	12954	3214.499438509203	1
0	12960	3214.529312716949	2
0	12964	3215.201378082025	1
0	12973	3215.833446267637	2
0	12976	3218.276368513198	1
0	12982	3220.061784101948	2
0	12983	3222.011260178882	1
0	12988	3222.333420884308	0
0	13002	3225.240416390156	1
0	13004	3227.203706926214	2
0	13005	3227.407416524374	1
0	13011	3228.192181935043	0
0	13023	3230.320710342037	1
0	13024	3234.099619482252	0
0	13038	3235.190033557906	1
0	13039	3235.714443049157	0
0	13081	3243.942269475665	1
0	13082	3244.552172078486	0
0	13115	3249.118797207057	1
0	13116	3249.134006417645	0
0	13129	3250.631000917665	1
0	13131	3251.661867358181	0
0	13146	3254.087665993722	1
0	13149	3255.197739679128	0
0	13165	3258.365263779768	1
0	13166	3258.472164223442	0
0	13170	3258.79737964822	1
0	13172	3260.081602002673	2
0	13176	3261.874142683285	3
0	13180	3262.135710809328	4
0	13181	3262.613243563134	3
0	13186	3263.74784451329	2
0	13192	3264.3444654496	3
0	13194	3264.359566771556	4
0	13197	3264.941057120851	3
0	13203	3265.8366868739	2
0	13212	3267.912748262224	3
0	13215	3270.906637710258	2
0	13220	3271.381929668372	1
0	13225	3271.774741055796	0
0	13231	3272.379357470435	1
0	13232	3272.38856906877	0
0	13236	3272.739567482712	1
0	13241	3273.072516615849	2
0	13249	3275.052588836041	1
0	13256	3275.97476513266	0
0	13268	3277.459178943558	1
0	13270	3278.471034990665	2
0	13271	3279.489044452898	1
0	13277	3279.802499450326	0
0	13299	3285.147521169993	1
0	13303	3285.460505484347	2
0	13305	3286.04586475936	3
0	13309	3286.625989626179	4
0	13310	3287.206455854081	3
0	13319	3288.303054173587	2
0	13325	3288.565431693195	1
0	13336	3290.35234180924	0
0	13348	3291.661204224025	1
0	13350	3292.570721192447	0
0	13382	3301.608196535809	1
0	13385	3303.792955334306	0
0	13397	3306.119775621364	1
0	13405	3310.37638580591	0
0	13421	3310.636843054742	1
0	13425	3315.753773925236	0
0	13448	3321.540511868648	1
0	13451	3321.866117519612	0
0	13468	3326.811666655405	1
0	13469	3327.001267112767	0
0	13476	3327.833142065896	1
0	13477	3328.240157252441	0
0	13483	3328.442564379483	1
0	13485	3328.595185724045	0
0	13501	3331.918139568648	1
0	13502	3333.239847902623	0
0	13508	3333.744318937975	1
0	13511	3334.500881349469	2
0	13512	3335.022422192926	1
0	13517	3335.772772682223	0
0	13561	3342.638535026208	1
0	13563	3343.457324212534	0
0	13597	3353.236137383978	1
0	13598	3353.899037950494	0
0	13605	3355.234396614489	1
0	13606	3355.65176608694	0
0	13615	3356.284895974928	1
0	13619	3357.010970494216	0
0	13651	3360.811516214085	1
0	13655	3363.495581490373	2
0	13658	3364.235448039272	3
0	13660	3365.09473656304	2
0	13665	3365.27004091723	1
0	13671	3366.502289390385	0
0	13681	3368.689057712882	1
0	13682	3369.531121261616	0
0	13696	3370.509120131149	1
0	13699	3373.424574252559	2
0	13704	3378.769008663284	1
0	13710	3379.561077737488	0
0	13731	3382.422247175768	1
0	13733	3383.17631977215	0
0	13753	3386.509037486311	1
0	13754	3387.520661671702	0
0	13771	3392.986335590996	1
0	13773	3394.6994625748	0
0	13790	3399.763430631296	1
0	13791	3399.972672512324	0
0	13812	3403.988434584481	1
0	13813	3404.060639955508	0
0	13828	3408.276504902007	1
0	13831	3409.093770681245	0
0	13891	3430.094188189337	1
0	13892	3430.358543808913	0
0	13908	3436.182776418509	1
0	13909	3436.315483936451	0
0	13924	3439.826501526315	1
0	13925	3439.831530308954	0
0	13963	3445.910386859719	1
0	13965	3446.614558900373	2
0	13967	3447.426791297314	3
0	13969	3447.673599173562	4
0	13972	3451.597605357165	3
0	13978	3452.187611840118	2
0	13987	3456.212905524915	1
0	13993	3456.641987977398	0
0	14032	3463.18334337946	1
0	14036	3465.521205261833	2
0	14037	3466.714088380239	1
0	14042	3466.98913630896	0
0	14051	3467.312547948251	1
0	14053	3469.119926931498	2
0	14055	3469.74981626884	3
0	14059	3471.023170414049	4
0	14062	3472.778704230316	3
0	14068	3472.779949510523	4
0	14070	3473.553562776785	5
0	14073	3473.670935853232	4
0	14081	3474.502588187082	3
0	14087	3475.341472431125	2
0	14093	3476.291213237437	3
0	14094	3476.908701546063	2
0	14100	3476.974255296446	1
0	14107	3478.78659213284	0
0	14115	3480.464841003592	1
0	14118	3480.811980804844	2
0	14119	3481.950409205554	1
0	14125	3483.301931581325	0
0	14142	3484.533570275506	1
0	14143	3485.279589540564	0
0	14165	3495.611355302053	1
0	14167	3495.960501684442	2
0	14171	3496.752595146992	3
0	14174	3497.749006125421	2
0	14180	3497.888368537727	1
0	14186	3498.332626257936	0
0	14193	3498.482576001805	1
0	14196	3500.869622966679	0
0	14216	3504.799635731643	1
0	14220	3505.576123743729	0
0	14232	3507.161743265163	1
0	14233	3507.529802189024	0
0	14249	3510.400197274447	1
0	14251	3511.468702410208	0
0	14257	3511.477411927678	1
0	14259	3512.010819479424	0
0	14290	3515.999484128882	1
0	14292	3516.909573689639	2
0	14294	3517.384068781098	3
0	14295	3517.45267854884	2
0	14300	3517.514073749273	1
0	14305	3518.172609557424	0
0	14316	3519.949771993699	1
0	14317	3520.013885982189	0
0	14333	3520.795866548444	1
0	14335	3523.106077520143	2
0	14337	3523.590039888081	3
0	14339	3525.307612362915	4
0	14344	3525.910834761643	3
0	14349	3526.498757265641	2
0	14356	3526.817270919324	3
0	14358	3527.199401454213	4
0	14364	3528.494673780812	3
0	14372	3530.977050012668	4
0	14373	3532.905415054996	3
0	14378	3532.96557945116	2
0	14383	3533.195890333096	1
0	14388	3533.814227005712	0
0	14392	3536.57396688785	1
0	14394	3536.687002282753	2
0	14398	3538.406414909637	3
0	14404	3539.726450241327	4
0	14405	3539.790325975591	3
0	14411	3540.693603662822	4
0	14412	3541.428439062292	3
0	14416	3543.015414426745	4
0	14419	3544.202478960766	3
0	14424	3545.460601274034	2
0	14429	3546.401632603122	1
0	14436	3548.011713603161	0
0	14442	3549.129503618304	1
0	14444	3550.268629273894	0
0	14450	3550.356796116077	1
0	14451	3550.629565009906	0
0	14455	3551.303130293225	1
0	14461	3552.819537065373	2
0	14463	3553.532285138223	3
0	14465	3553.733785777746	4
0	14467	3553.838308634424	5
0	14471	3554.204044424168	4
0	14478	3555.444910621496	5
0	14479	3555.495552452266	4
0	14486	3559.640261037731	3
0	14495	3565.042747164049	2
0	14500	3566.279453099465	1
0	14507	3567.038864354877	2
0	14510	3567.654867156644	3
0	14511	3567.82690070786	2
0	14516	3568.029533424748	1
0	14522	3568.344416980928	2
0	14524	3569.495035530209	3
0	14525	3569.903865065149	2
0	14530	3570.637539712604	1
0	14536	3572.560514944087	0
0	14548	3573.157765004565	1
0	14550	3573.199869000731	2
0	14553	3574.387957121869	1
0	14558	3576.317509445395	0
0	14571	3579.439127565434	1
0	14574	3580.271580805795	0
0	14593	3586.10342050481	1
0	14594	3587.336304144105	0
0	14613	3590.749781339316	1
0	14615	3591.722130565744	2
0	14619	3592.719042019788	1
0	14624	3592.75760140906	0
0	14635	3594.717890741722	1
0	14637	3595.261005937133	0
0	14648	3599.349098008084	1
0	14653	3601.86493947218	0
0	14659	3601.880091452405	1
0	14660	3601.950461548708	0
0	14688	3607.646944239196	1
0	14691	3608.529753425618	0
0	14697	3608.697275807637	1
0	14698	3609.109419638723	0
0	14719	3612.975144161528	1
0	14720	3613.183225917083	0
0	14761	3618.365159199538	1
0	14763	3618.884135357794	2
0	14764	3618.978574272248	1
0	14773	3620.762122480774	2
0	14775	3621.724605686483	3
0	14779	3622.798248949184	4
0	14780	3623.562995301442	3
0	14786	3624.483110676319	2
0	14793	3625.489550199009	1
0	14800	3626.634860959916	0
0	14818	3627.991737064431	1
0	14819	3628.293113833312	0
0	14823	3628.347591049443	1
0	14827	3629.067862018648	2
0	14829	3629.390224612008	3
0	14834	3630.958859817046	2
0	14840	3631.394411165079	3
0	14843	3633.069967830375	2
0	14850	3634.743628999113	1
0	14855	3635.085991453805	0
0	14881	3639.655798150445	1
0	14885	3640.635399343714	2
0	14886	3641.593499913617	1
0	14892	3642.485200110964	2
0	14893	3643.700981332976	1
0	14900	3644.099575193946	0
0	14911	3646.688490332193	1
0	14917	3649.707395750161	2
0	14918	3650.628687484225	1
0	14923	3650.91976212306	0
0	14932	3652.695442261609	1
0	14935	3654.487119057135	0
0	14942	3655.825524020211	1
0	14944	3656.202027267332	2
0	14947	3658.313417418868	3
0	14949	3659.834620068833	2
0	14957	3660.857172856914	1
0	14962	3661.493198334751	0
0	14978	3666.007365620073	1
0	14979	3666.441768573088	0
0	14995	3669.281761872146	1
0	14996	3669.829332165665	0
0	15049	3681.876166006403	1
0	15050	3682.288252613392	0
0	15075	3690.404814645889	1
0	15078	3690.730722574806	0
0	15144	3707.002994413537	1
0	15145	3707.65176577151	0
0	15226	3728.673558051174	1
0	15230	3730.189551575315	0
0	15242	3732.094442215523	1
0	15243	3732.459035906903	0
0	15249	3733.225493835525	1
0	15250	3733.747961680413	0
0	15279	3740.642378004839	1
0	15281	3740.959211655998	2
0	15282	3741.083298601644	1
0	15288	3743.16359026669	0
0	15301	3746.242811427746	1
0	15304	3746.885809181115	0
0	15329	3756.880457664549	1
0	15330	3757.294941478943	0
0	15336	3757.405242372311	1
0	15337	3757.543736440041	0
0	15444	3793.993518127887	1
0	15446	3794.68677555096	2
0	15449	3795.420170960929	1
0	15454	3795.868956517321	0
0	15460	3796.185851349605	1
0	15463	3798.237294292907	0
0	15469	3798.322621797116	1
0	15471	3798.898100827275	0
0	15526	3819.809722785044	1
0	15529	3823.562801665165	2
0	15533	3824.346190101053	3
0	15534	3824.537898986925	2
0	15542	3827.170983822473	1
0	15548	3827.333580900889	0
0	15560	3830.204890309639	1
0	15563	3832.5987649248	2
0	15564	3835.04676985885	1
0	15570	3837.479797124352	0
0	15597	3839.12048154198	1
0	15598	3839.81111896395	0
0	15614	3843.30133394892	1
0	15615	3843.420480267337	0
0	15669	3855.843068575434	1
0	15673	3859.16556004774	0
0	15680	3860.729172691335	1
0	15681	3861.230050249288	0
0	15726	3874.019557369389	1
0	15730	3875.856983328145	2
0	15731	3876.192381370922	1
0	15738	3876.835161477695	2
0	15739	3877.674979834841	1
0	15748	3878.474909652378	0
0	15773	3883.518756163426	1
0	15774	3884.131837059209	0
0	15803	3895.559369262043	1
0	15804	3897.888856784007	0
0	15810	3898.200312562507	1
0	15811	3898.471017158751	0
0	15843	3904.064107460977	1
0	15845	3905.105196623616	2
0	15848	3906.101146761976	3
0	15849	3906.626022973095	2
0	15854	3907.498694077768	1
0	15861	3908.824531958566	2
0	15862	3908.950080233177	1
0	15869	3909.496227982641	2
0	15870	3909.60746068731	1
0	15877	3910.763826597004	2
0	15878	3910.947926631326	1
0	15883	3911.194441894142	0
0	15909	3918.764986378546	1
0	15915	3921.187900334824	2
0	15918	3921.933309696917	1
0	15924	3922.392582051377	2
0	15928	3923.955358004175	1
0	15933	3925.145602827891	0
0	15939	3926.061960209064	1
0	15944	3927.932624728974	0
0	15962	3930.773573205277	1
0	15965	3931.525555464206	2
0	15966	3931.754094920657	1
0	15971	3932.015990138141	0
0	15996	3939.733566172762	1
0	16000	3940.446746293231	2
0	16004	3943.503261561703	1
0	16009	3944.059189470713	0
0	16020	3945.242372768776	1
0	16025	3948.551670262203	0
0	16034	3949.846837163491	1
0	16037	3950.804993466011	0
0	16051	3951.543355092757	1
0	16053	3951.957744018135	2
0	16059	3952.901876601707	1
0	16064	3953.273327492022	0
0	16068	3954.850451552835	1
0	16072	3955.201790735925	0
0	16099	3960.679797255931	1
0	16102	3961.990670585529	0
0	16114	3964.457452659641	1
0	16118	3965.470446453916	2
0	16123	3966.898255775482	3
0	16127	3968.637163127089	2
0	16133	3968.681838688428	3
0	16135	3969.099106917734	2
0	16140	3970.075588944188	1
0	16147	3970.539710363787	2
0	16148	3971.936900026466	1
0	16153	3971.970435814609	0
0	16165	3972.566275762639	1
0	16168	3974.120884450245	2
0	16169	3974.772798382048	1
0	16176	3976.06351053791	0
0	16189	3977.822634341753	1
0	16191	3978.873227491244	0
0	16224	3983.189606906552	1
0	16228	3985.657752692745	2
0	16235	3987.727668717918	1
0	16241	3989.236518674553	0
0	16265	3996.755735058077	1
0	16267	3996.856249027281	2
0	16269	3997.204918010595	3
0	16270	3997.669891991769	2
0	16275	3998.321629094141	1
0	16284	3998.844184620874	0
0	16291	4000.16509808671	1
0	16292	4000.381636608149	0
0	16362	4020.248691417057	1
0	16363	4020.58538256939	0
0	16386	4026.617982161235	1
0	16387	4028.368655501807	0
0	16423	4034.710928919828	1
0	16426	4035.505891808312	0
0	16453	4041.774420121926	1
0	16457	4044.604245642556	2
0	16458	4044.965268223151	1
0	16469	4045.910590567358	2
0	16471	4046.12009178346	3
0	16472	4046.659479514673	2
0	16477	4047.148284649232	1
0	16484	4047.887267403994	0
0	16557	4069.170256162349	1
0	16558	4069.337547485632	0
0	16587	4075.10532294781	1
0	16589	4075.464102362811	2
0	16592	4075.818646840691	3
0	16593	4075.954952519056	2
0	16601	4077.423604710082	1
0	16607	4077.699185888612	2
0	16609	4078.068433519407	1
0	16616	4079.12231366806	2
0	16617	4079.162696853092	1
0	16624	4080.212965854473	0
0	16630	4081.107387917579	1
0	16632	4081.318842765382	2
0	16634	4081.580779482419	3
0	16637	4082.533471612872	4
0	16638	4082.995826580729	3
0	16643	4083.390431070863	2
0	16648	4084.566996333965	1
0	16653	4085.410066066708	0
0	16664	4087.01058001824	1
0	16666	4087.917333877031	0
0	16753	4118.473710303116	1
0	16754	4119.155323568782	0
0	16792	4130.342303779224	1
0	16795	4130.493790496163	0
0	16807	4131.363014309251	1
0	16809	4131.939930960393	0
0	16888	4153.739108861117	1
0	16890	4153.909327588263	2
0	16891	4157.037825702225	1
0	16896	4157.187698197982	0
0	16920	4168.868595124283	1
0	16921	4169.133491014138	0
0	16953	4177.192086672196	1
0	16955	4177.742946212193	2
0	16957	4178.553098153201	3
0	16960	4179.840698588368	2
0	16966	4180.182109948688	3
0	16968	4180.994485199827	2
0	16974	4181.733367021568	3
0	16976	4183.122912823843	2
0	16982	4183.368253430347	3
0	16983	4183.455069155427	2
0	16988	4184.595505971963	1
0	16993	4186.052318459875	0
0	17011	4189.610785317713	1
0	17016	4190.410854158682	0
0	17036	4194.118854451263	1
0	17037	4194.566209391753	0
0	17050	4196.870597301996	1
0	17052	4197.436974167529	2
0	17055	4199.435104136261	1
0	17061	4199.65634630076	2
0	17063	4200.876400500854	1
0	17069	4201.099460092907	2
0	17070	4201.445854283689	1
0	17077	4202.472717177787	0
0	17103	4208.792710558472	1
0	17107	4209.779111301993	2
0	17109	4209.860301225535	3
0	17111	4210.375106882046	4
0	17112	4211.772752488915	3
0	17120	4215.690511226668	4
0	17122	4215.99402208565	5
0	17124	4216.014133484147	6
0	17125	4216.496012179651	5
0	17130	4216.697020733862	4
0	17136	4217.517621634894	5
0	17137	4217.87695654229	4
0	17142	4218.065106086542	3
0	17148	4219.016265976656	4
0	17150	4219.375683137002	5
0	17151	4221.216246029495	4
0	17157	4223.707605978584	5
0	17160	4225.033911588534	6
0	17161	4225.818806935127	5
0	17168	4226.712759359736	6
0	17170	4228.125682920996	5
0	17175	4228.24031439714	4
0	17180	4228.343378596007	3
0	17187	4229.832489757449	2
0	17191	4230.044897497266	3
0	17193	4230.21645927661	4
0	17198	4231.911984182711	5
0	17203	4233.84849165139	6
0	17206	4234.06481000971	7
0	17207	4234.179030619588	6
0	17212	4235.396859010221	5
0	17217	4235.885326723783	4
0	17222	4237.011730230593	3
0	17233	4238.587132666083	4
0	17234	4238.617212797973	3
0	17240	4240.060666870241	4
0	17241	4240.080131338032	3
0	17245	4240.821023729512	4
0	17249	4242.955983964561	5
0	17252	4247.780309766568	4
0	17256	4248.305265535958	5
0	17260	4252.00336361417	4
0	17268	4253.061578255531	3
0	17275	4253.869573138106	4
0	17276	4254.602543542014	3
0	17284	4255.421632323911	2
0	17290	4257.029388757703	1
0	17295	4257.953455248264	0
0	17358	4273.446549615584	1
0	17361	4275.106416697694	0
0	17367	4275.386662971079	1
0	17369	4276.195999544487	0
0	17378	4277.574497484195	1
0	17384	4278.923543955071	2
0	17387	4281.208520596461	1
0	17392	4281.385724259543	0
0	17404	4281.963367577631	1
0	17407	4282.765657479754	0
0	17419	4283.595302364246	1
0	17426	4286.820967918879	0
0	17437	4287.94703806428	1
0	17439	4288.372656121185	2
0	17443	4288.939867076371	3
0	17445	4290.222008738958	2
0	17450	4290.543325646622	1
0	17457	4291.187558596034	2
0	17459	4292.719396032885	1
0	17464	4292.794636709353	0
0	17476	4294.398588337646	1
0	17479	4295.831717252463	0
0	17493	4296.502489024923	1
0	17501	4299.548148497318	0
0	17514	4300.39429385766	1
0	17515	4300.563638603853	0
0	17530	4302.443910515941	1
0	17535	4303.75916400455	2
0	17536	4304.225930392747	1
0	17541	4304.236926918412	0
0	17548	4306.946254967393	1
0	17549	4307.315232464419	0
0	17563	4309.973173927206	1
0	17565	4310.603043252903	2
0	17566	4311.190223809456	1
0	17577	4312.22939336388	0
0	17583	4312.283670530812	1
0	17585	4313.527041123336	0
0	17599	4315.984707481523	1
0	17602	4316.375693596651	2
0	17605	4320.271869270378	1
0	17612	4320.681440547566	0
0	17618	4320.952293380075	1
0	17619	4321.503024054267	0
0	17626	4321.637780312285	1
0	17627	4321.978902723977	0
0	17639	4322.839474794629	1
0	17642	4325.282425184762	0
0	17658	4326.063291127145	1
0	17659	4326.240544013603	0
0	17672	4328.043479894396	1
0	17673	4328.125648910723	0
0	17689	4330.394741092177	1
0	17691	4330.67831656543	2
0	17693	4331.032345295065	1
0	17701	4332.066704934409	0
0	17727	4345.470482584962	1
0	17731	4348.316710834978	0
0	17751	4353.789690640192	1
0	17752	4356.140766685837	0
0	17830	4374.987207106401	1
0	17833	4376.001967984503	2
0	17834	4376.134466797231	1
0	17841	4376.761956846963	0
0	17866	4381.422039585171	1
0	17870	4384.653615331346	2
0	17874	4386.922189270296	3
0	17877	4387.960310631539	2
0	17882	4388.119485082675	1
0	17887	4388.300911958357	0
0	17903	4390.663809422953	1
0	17905	4390.970844895806	2
0	17914	4394.604000023352	3
0	17917	4397.951526165948	2
0	17924	4400.524189186746	3
0	17925	4401.345121430224	2
0	17931	4401.441548541997	3
0	17932	4401.771753286013	2
0	17941	4403.312375748615	1
0	17946	4404.014266028942	0
0	17963	4409.597271608823	1
0	17966	4411.574062586506	0
0	17979	4413.805056352469	1
0	17980	4414.373374477666	0
0	17986	4414.626453244269	1
0	17987	4415.153740312712	0
0	18000	4417.412818291355	1
0	18002	4417.735608662142	2
0	18003	4417.75562330683	1
0	18010	4418.669804891468	0
0	18014	4419.281888294163	1
0	18017	4419.786112380884	0
0	18047	4431.03191185944	1
0	18051	4431.721605779392	0
0	18086	4437.407145043503	1
0	18088	4437.475623847426	2
0	18090	4437.540279193145	3
0	18092	4439.604739927575	2
0	18097	4440.124077472565	1
0	18105	4440.551283783783	0
0	18112	4440.757070619759	1
0	18114	4441.480845394405	0
0	18198	4459.923290084313	1
0	18199	4461.939105413411	0
0	18239	4476.876841667656	1
0	18240	4478.348112305485	0
0	18257	4484.172385930319	1
0	18260	4486.795499278274	0
0	18275	4488.338076763371	1
0	18279	4491.00639251565	2
0	18281	4491.480412497615	3
0	18283	4493.12484252981	4
0	18284	4493.498819589431	3
0	18289	4494.052544051138	2
0	18295	4495.923052418075	3
0	18296	4496.324750594528	2
0	18301	4496.359529941843	1
0	18306	4497.986301089141	0
0	18328	4500.99309371407	1
0	18331	4501.624342162178	0
0	18344	4504.290116164898	1
0	18345	4504.895565317497	0
0	18352	4506.107083045239	1
0	18353	4506.367400838458	0
0	18386	4514.265606384566	1
0	18387	4515.222784666673	0
0	18403	4520.63220061897	1
0	18404	4522.881187688966	0
0	18424	4525.462727511205	1
0	18425	4525.709212839902	0
0	18431	4525.831939054962	1
0	18432	4525.982000508037	0
0	18450	4527.893710173149	1
0	18453	4529.35905343688	0
0	18459	4529.484984353625	1
0	18461	4529.749741905652	2
0	18462	4530.278026665772	1
0	18467	4531.08065644372	0
0	18473	4531.571352594768	1
0	18477	4533.988453660276	0
0	18508	4542.213981403059	1
0	18509	4542.425470691799	0
0	18575	4567.643303441497	1
0	18576	4568.375203625801	0
0	18583	4569.342785495383	1
0	18584	4569.526227675898	0
0	18600	4574.419832194705	1
0	18601	4575.461205578758	0
0	18630	4578.185728938573	1
0	18633	4578.907951405242	0
0	18642	4582.180790129747	1
0	18643	4582.976800536911	0
0	18655	4585.96019917883	1
0	18657	4586.577846291859	2
0	18660	4587.411837026065	1
0	18666	4588.180600156882	0
0	18705	4600.213835316774	1
0	18706	4600.882268461217	0
0	18712	4601.334002772963	1
0	18714	4601.598745658315	2
0	18716	4602.460989937176	3
0	18720	4603.490800175481	4
0	18721	4604.042033213252	3
0	18728	4606.415963190076	2
0	18734	4607.666616368417	3
0	18736	4609.730031744206	4
0	18737	4609.73413438074	3
0	18741	4610.00838621003	4
0	18743	4610.817360028325	5
0	18746	4611.6252644899	4
0	18752	4613.88131484652	5
0	18756	4615.950944756217	4
0	18763	4617.472760430556	3
0	18767	4618.504607186482	4
0	18770	4620.693545614893	3
0	18774	4620.884935217579	4
0	18777	4622.378936977093	3
0	18783	4623.4469297591	4
0	18784	4624.17919805799	3
0	18790	4625.55902702604	4
0	18791	4625.77304165133	3
0	18795	4626.265792912899	4
0	18798	4626.766430707073	3
0	18802	4627.682096783441	4
0	18807	4628.515958880435	3
0	18811	4629.265316024915	4
0	18817	4630.86695596465	3
0	18822	4631.429256486897	2
0	18827	4632.294081213218	1
0	18832	4632.973369426011	0
0	18839	4634.750445561267	1
0	18840	4636.055609422698	0
0	18852	4637.333343108161	1
0	18853	4637.404376719481	0
0	18867	4640.265271588508	1
0	18869	4640.298588163162	2
0	18871	4640.970229178396	3
0	18875	4641.636270964152	4
0	18876	4644.520883201943	3
0	18882	4644.539666488221	4
0	18883	4644.817745785967	3
0	18890	4645.203681008455	4
0	18891	4645.378585347066	3
0	18899	4647.445624547525	4
0	18900	4649.124643202363	3
0	18905	4649.648287950758	2
0	18912	4650.281402827856	1
0	18917	4650.384284261195	0
0	19010	4672.468515866171	1
0	19014	4673.139659650078	2
0	19015	4673.974177742773	1
0	19021	4674.823020098494	0
0	19060	4686.666326222804	1
0	19062	4687.846760240078	2
0	19064	4687.936894854935	3
0	19065	4688.642683329933	2
0	19070	4688.87512364752	1
0	19077	4691.228465609999	2
0	19078	4691.354906168486	1
0	19083	4691.421759786685	0
0	19089	4692.085854178533	1
0	19096	4693.520890517233	2
0	19099	4693.750792652908	1
0	19105	4694.605436876666	2
0	19106	4694.795776801178	1
0	19112	4695.30698622108	0
0	19118	4696.718638941142	1
0	19120	4697.096118364286	0
0	19126	4697.187893828252	1
0	19129	4699.817827991325	0
0	19143	4701.630690480501	1
0	19146	4703.180750172768	0
0	19163	4705.852634761557	1
0	19168	4707.736221100755	0
0	19174	4708.267536998212	1
0	19177	4708.729491059402	2
0	19180	4709.44792688997	1
0	19185	4709.690352217154	0
0	19207	4711.941870593017	1
0	19214	4715.077181498066	0
0	19222	4715.876817496695	1
0	19224	4715.880521243757	2
0	19226	4716.303980207441	1
0	19234	4718.673907365343	0
0	19251	4720.716667202825	1
0	19252	4720.731316837515	0
0	19258	4721.089581268953	1
0	19260	4721.520238742951	2
0	19263	4723.413345404492	3
0	19264	4724.001722055209	2
0	19273	4724.611948022114	1
0	19280	4725.684022424244	2
0	19281	4726.071207589685	1
0	19287	4726.342483924782	0
0	19299	4728.614015775534	1
0	19303	4729.201059184927	0
0	19316	4729.969951008111	1
0	19317	4730.20665844334	0
0	19341	4733.808911721664	1
0	19347	4734.822374803123	2
0	19351	4737.938491119365	3
0	19354	4739.280224268127	2
0	19359	4740.70586738455	1
0	19364	4742.304862659788	0
0	19385	4746.237290704681	1
0	19387	4746.503057239576	2
0	19389	4747.017202673409	3
0	19392	4747.863159984959	2
0	19398	4750.330328170058	3
0	19400	4750.41075609972	4
0	19407	4751.605077733403	5
0	19408	4751.868010781158	4
0	19415	4753.168142390925	3
0	19423	4754.414031672686	2
0	19430	4754.856076547277	3
0	19433	4755.874362464129	2
0	19441	4757.507400954603	1
0	19447	4757.887202633324	2
0	19448	4758.354602927771	1
0	19453	4758.618541623057	0
0	19459	4758.712708598398	1
0	19460	4759.118781818235	0
0	19464	4760.155263749785	1
0	19468	4760.884816600369	0
0	19480	4762.866752975862	1
0	19483	4763.399936538148	0
0	19498	4765.160693541426	1
0	19499	4766.935777957339	0
0	19519	4768.409117595606	1
0	19520	4770.451433095721	0
0	19531	4771.071433025285	1
0	19535	4772.582924651361	0
0	19568	4779.472233488437	1
0	19569	4780.797239608838	0
0	19600	4785.532129757058	1
0	19602	4785.839580004598	2
0	19603	4786.060043895263	1
0	19609	4787.045712313498	0
0	19615	4787.268139156809	1
0	19616	4787.528578036149	0
0	19684	4811.175898522459	1
0	19685	4811.411246701447	0
0	19693	4813.723810301257	1
0	19694	4813.927473510945	0
0	19706	4814.220780163158	1
0	19708	4814.579211074073	2
0	19709	4816.257655604093	1
0	19715	4816.748352261063	2
0	19717	4817.272073967823	3
0	19718	4817.279921573036	2
0	19723	4817.596547548815	1
0	19728	4817.875196893784	0
0	19734	4818.13354286496	1
0	19735	4818.583569016816	0
0	19767	4830.967707837687	1
0	19769	4831.127691778175	2
0	19770	4831.501077901097	1
0	19778	4832.298399968225	0
0	19785	4833.129120760894	1
0	19786	4833.46919816909	0
0	19792	4834.639693899775	1
0	19793	4834.942977863357	0
0	19829	4847.80707270452	1
0	19831	4848.173602118441	2
0	19832	4849.439167397624	1
0	19843	4853.671470371445	0
0	19902	4863.989512296387	1
0	19903	4864.029605699263	0
0	19949	4872.731860150928	1
0	19950	4873.287368190101	0
0	19957	4873.806849345789	1
0	19958	4874.156854395586	0
0	19981	4880.164746148885	1
0	19983	4880.372166075256	0
0	20050	4900.76248179197	1
0	20052	4901.74266594983	2
0	20053	4901.994725747215	1
0	20059	4902.117168823274	0
0	20083	4909.136449595195	1
0	20084	4910.495418917832	0
0	20104	4915.81819854992	1
0	20105	4915.984074873733	0
0	20122	4918.384845195722	1
0	20126	4920.063101805166	0
0	20138	4921.10887542949	1
0	20139	4922.049202622427	0
0	20170	4927.452789180139	1
0	20173	4928.253506443098	0
0	20193	4930.000838129813	1
0	20196	4932.337845676096	2
0	20197	4932.880507366433	1
0	20205	4934.689312649847	0
0	20214	4936.964686520395	1
0	20217	4937.300486574695	0
0	20229	4939.553734925764	1
0	20231	4940.364616818265	0
0	20264	4947.1112691174	1
0	20268	4951.218416916689	2
0	20269	4952.234191565645	1
0	20277	4954.458558898363	0
0	20301	4959.824627664376	1
0	20308	4963.480695910617	0
0	20368	4974.874092719287	1
0	20369	4975.341331790928	0
0	20392	4986.947193468166	1
0	20393	4987.363720264372	0
0	20399	4987.825705847925	1
0	20400	4988.186100553843	0
0	20445	4999.785843282219	1
0	20447	5000.427538891935	0
0	20453	5000.605007863021	1
0	20455	5001.421146694699	0
0	20479	5008.078013239798	1
0	20480	5008.57215356349	0
0	20501	5014.539034459562	1
0	20502	5016.304512320089	0
0	20562	5036.733523170536	1
0	20564	5037.557440028619	2
0	20565	5037.684130730924	1
0	20572	5040.019311403276	0
0	20584	5041.090425546455	1
0	20586	5042.977615842349	2
0	20591	5044.500035580265	1
0	20596	5044.654178507378	0
0	20600	5045.511144803548	1
0	20607	5052.456960207996	0
0	20624	5054.895051560572	1
0	20631	5057.202440861207	0
0	20679	5066.576317985573	1
0	20681	5067.519136481822	0
0	20689	5068.889687933305	1
0	20690	5069.846453918234	0
0	20711	5076.360387104741	1
0	20713	5078.098205905606	0
0	20719	5078.232793853618	1
0	20720	5078.304345944872	0
0	20728	5079.973513826031	1
0	20729	5080.187097726905	0
0	20753	5084.577601742155	1
0	20758	5085.787128105081	2
0	20760	5087.110180329229	1
0	20771	5087.956317509229	0
0	20777	5088.043000287063	1
0	20779	5088.949485033688	0
0	20786	5089.076681119721	1
0	20787	5089.273271580964	0
0	20814	5098.284424399592	1
0	20815	5098.471312753769	0
0	20848	5104.748176594903	1
0	20849	5104.944293430691	0
0	20864	5112.425457414736	1
0	20866	5112.933544553941	2
0	20867	5113.646603217737	1
0	20872	5113.680540094006	0
0	20896	5121.286323676034	1
0	20900	5121.896455460636	2
0	20901	5123.910652618824	1
0	20906	5124.348934586578	0
0	20924	5125.903290667474	1
0	20928	5130.066956657269	2
0	20930	5130.363688405754	3
0	20931	5130.504242395307	2
0	20937	5130.919227835489	1
0	20944	5132.343839815599	0
0	21098	5176.846106723461	1
0	21099	5176.867362896913	0
0	21121	5187.514952480984	1
0	21124	5189.247642083509	0
0	21130	5189.495006943755	1
0	21133	5190.452463762898	0
0	21143	5192.018976076464	1
0	21144	5192.631310420176	0
0	21153	5193.679158157929	1
0	21155	5194.325783935837	2
0	21156	5196.606041635546	1
0	21161	5196.989837001889	0
0	21167	5198.329945838894	1
0	21169	5198.399107127523	2
0	21171	5198.946910888177	1
0	21177	5199.197453006009	0
0	21194	5200.383443713549	1
0	21195	5200.478366963805	0
0	21204	5205.946971635728	1
0	21207	5206.642739762803	0
0	21213	5207.318622514337	1
0	21215	5207.891814684241	2
0	21224	5214.030180950421	3
0	21225	5215.142853471536	2
0	21234	5216.988817295082	1
0	21240	5217.055545647156	2
0	21242	5217.186100168839	3
0	21243	5217.287553413239	2
0	21254	5218.964771084165	3
0	21256	5220.797545798739	2
0	21262	5220.816325993219	3
0	21267	5225.311475423426	4
0	21272	5227.137488321566	3
0	21277	5227.264816543194	2
0	21282	5227.848874763589	1
0	21290	5231.00834587201	2
0	21294	5231.478755701004	1
0	21302	5233.198507758662	2
0	21304	5233.349742133874	3
0	21306	5233.597304579577	4
0	21307	5234.505381610622	3
0	21319	5237.93454235102	2
0	21325	5238.145510875977	3
0	21327	5238.292861984013	4
0	21328	5240.604897874076	3
0	21333	5240.818693651974	2
0	21337	5240.929302411615	3
0	21340	5243.533510533713	2
0	21345	5244.992091937355	1
0	21351	5246.322359202424	2
0	21355	5248.921781803063	3
0	21357	5249.197449085767	4
0	21360	5249.821332174872	5
0	21362	5250.412778107909	4
0	21367	5250.535432715327	3
0	21373	5250.856743289531	2
0	21378	5251.809926719615	1
0	21382	5253.181732831253	2
0	21384	5253.317313643785	3
0	21387	5254.363758427339	2
0	21396	5258.82085969031	1
0	21402	5259.563006257066	2
0	21404	5259.587272121541	3
0	21409	5259.978145856314	2
0	21415	5262.107535230902	3
0	21420	5263.075925563553	2
0	21425	5263.4851047196	1
0	21434	5265.079901144885	2
0	21436	5265.176331603972	3
0	21437	5266.439489564889	2
0	21448	5269.379500885069	3
0	21449	5269.653177148012	2
0	21455	5270.186797750221	3
0	21457	5270.426460400862	4
0	21459	5271.198529892527	3
0	21468	5275.497946230529	2
0	21473	5275.820728444416	1
0	21478	5276.424783040928	0
0	21489	5277.357884242579	1
0	21490	5277.535187617042	0
0	21506	5280.491510169476	1
0	21514	5286.375103755124	0
0	21520	5286.511170591163	1
0	21523	5287.942486963641	2
0	21527	5291.685495521378	1
0	21536	5293.669575235359	0
0	21547	5295.4688214165	1
0	21554	5296.706074403791	2
0	21555	5298.448988745521	1
0	21560	5298.885922531369	0
0	21564	5301.726112825364	1
0	21568	5303.450889213728	2
0	21569	5303.963224788025	1
0	21577	5306.241642570578	2
0	21581	5306.802835716092	3
0	21587	5310.047469331919	4
0	21593	5311.190337036778	3
0	21600	5311.580796544823	2
0	21605	5312.31664396822	1
0	21609	5312.71927602494	2
0	21612	5314.401887884912	1
0	21616	5315.073364926035	2
0	21619	5317.390267974567	1
0	21624	5318.127061524572	0
0	21628	5319.271784525845	1
0	21631	5320.544359587344	0
0	21654	5325.96005829923	1
0	21660	5328.000400417005	0
0	21666	5328.009987881575	1
0	21668	5328.0752127955	2
0	21669	5328.130011258454	1
0	21675	5329.11914219035	2
0	21677	5329.185205158501	3
0	21680	5330.836830090669	4
0	21682	5331.609294293834	5
0	21684	5333.509734318108	6
0	21687	5334.911054581292	5
0	21697	5335.785943127751	4
0	21703	5336.038338698075	3
0	21708	5336.081838969476	2
0	21714	5337.520191414421	1
0	21719	5337.956936032045	0
0	21723	5338.22972290562	1
0	21727	5339.082035779581	2
0	21728	5339.523989715239	1
0	21734	5340.30664134537	2
0	21737	5341.233005722536	1
0	21741	5341.304034441466	2
0	21743	5341.708602367372	3
0	21747	5343.512501142888	4
0	21750	5345.397273362117	3
0	21755	5345.705977146634	2
0	21762	5346.034716543053	1
0	21767	5346.295406157841	0
0	21773	5346.993866716051	1
0	21777	5347.339418491265	0
0	21783	5347.933346455976	1
0	21785	5348.755872288604	0
0	21791	5349.375334020538	1
0	21792	5349.870637606585	0
0	21814	5353.898108427066	1
0	21816	5354.120715588606	2
0	21818	5355.12228081248	1
0	21823	5355.368201878584	0
0	21836	5359.445778458909	1
0	21837	5359.502917877842	0
0	21857	5361.954476231417	1
0	21860	5362.982620881569	0
0	21866	5363.600811038172	1
0	21867	5363.665761850292	0
0	21891	5370.178130961194	1
0	21893	5370.289403976609	2
0	21896	5373.045718439342	1
0	21901	5373.260229709536	0
0	21907	5373.437851887473	1
0	21908	5373.960225739856	0
0	21919	5377.768290240216	1
0	21920	5377.813903200037	0
0	21931	5380.26331916295	1
0	21932	5381.497899945531	0
0	21940	5381.602989553026	1
0	21941	5383.414999047841	0
0	21950	5383.942852829123	1
0	21956	5385.122185721985	2
0	21960	5385.887805078705	1
0	21966	5386.203486970915	2
0	21968	5386.271974584677	3
0	21971	5386.335436955519	2
0	21976	5386.408495539409	1
0	21983	5388.067711331188	0
0	21996	5389.459825073391	1
0	21997	5389.801958436786	0
0	22055	5401.573506357304	1
0	22058	5402.378926312606	2
0	22060	5402.681522796242	1
0	22065	5403.105137263046	0
0	22093	5409.93472629863	1
0	22095	5410.033291032263	2
0	22096	5410.79137436067	1
0	22102	5411.121188134903	2
0	22104	5411.473869585126	1
0	22114	5414.916869571707	2
0	22117	5415.556305866264	1
0	22127	5416.673122378388	0
0	22139	5419.845795993199	1
0	22141	5420.433876298283	2
0	22143	5421.110348044276	3
0	22145	5421.861846007777	4
0	22147	5425.864560719553	5
0	22149	5426.032515099101	6
0	22151	5426.497889613292	7
0	22153	5430.877435930078	8
0	22154	5430.932384126329	7
0	22159	5431.43070444276	6
0	22165	5431.793321989183	5
0	22173	5432.114723777648	4
0	22178	5432.282417143894	3
0	22188	5434.748990780512	4
0	22189	5434.943281183149	3
0	22193	5435.049388343844	4
0	22197	5435.948902999828	5
0	22200	5438.792677153292	4
0	22204	5438.870669870298	5
0	22206	5439.60720516069	6
0	22208	5442.926052483903	7
0	22215	5445.24133172181	6
0	22222	5445.533012390235	7
0	22223	5446.507939402517	6
0	22229	5447.241668515168	7
0	22233	5448.001437860947	8
0	22235	5448.470004431814	7
0	22242	5448.936535865757	8
0	22243	5449.29295966046	7
0	22249	5449.551390799739	6
0	22255	5450.512307515841	5
0	22262	5451.160491093957	4
0	22269	5452.17952463219	5
0	22270	5452.344399710298	4
0	22275	5452.633784257454	3
0	22281	5452.680032583499	4
0	22282	5453.423187342344	3
0	22287	5456.034744363003	2
0	22291	5456.305395956345	3
0	22295	5458.362306788436	4
0	22296	5459.124058432448	3
0	22302	5460.945943443594	4
0	22304	5461.417372432557	5
0	22308	5462.414063978872	6
0	22309	5462.498040799898	5
0	22313	5463.394973690511	6
0	22316	5464.159766679361	5
0	22321	5465.685847863142	4
0	22327	5466.103925030207	5
0	22329	5466.73803722091	6
0	22331	5467.161313784909	7
0	22336	5468.228757944438	6
0	22343	5469.659879675466	5
0	22347	5469.751695592089	6
0	22349	5469.850024113727	7
0	22352	5471.574027100388	6
0	22356	5472.768178435225	7
0	22359	5474.023464064406	6
0	22366	5476.184130788267	5
0	22373	5477.046212821673	6
0	22374	5477.100609174506	5
0	22380	5477.536204551205	6
0	22381	5477.840233203871	5
0	22386	5478.139419800693	4
0	22396	5481.11730222309	3
0	22401	5481.377176452724	2
0	22406	5482.653515273419	1
0	22412	5483.068251758706	0
0	22471	5496.636583936866	1
0	22473	5497.474250997712	2
0	22479	5501.21257308068	1
0	22484	5501.341104055703	0
0	22504	5504.139676730861	1
0	22505	5504.209055305187	0
0	22521	5507.376927865601	1
0	22534	5515.767972921656	0
0	22540	5516.443513930329	1
0	22544	5516.978915363359	0
0	22564	5518.714685704215	1
0	22567	5519.995697681477	0
0	22600	5527.163864436449	1
0	22602	5527.433886766673	2
0	22604	5527.469742205435	3
0	22609	5528.680172147529	2
0	22615	5530.120680306057	3
0	22617	5531.191513692163	2
0	22623	5531.934127148219	1
0	22628	5531.962291781905	0
0	22678	5541.835486757024	1
0	22680	5543.442175710107	2
0	22683	5544.395299145751	1
0	22688	5544.992207393917	0
0	22706	5547.103898740666	1
0	22707	5547.654981768215	0
0	22720	5549.465460819254	1
0	22721	5549.822570405268	0
0	22728	5549.986228881014	1
0	22729	5550.288053531373	0
0	22740	5551.483567163731	1
0	22744	5553.242722767784	0
0	22776	5563.190019550307	1
0	22780	5565.993270158344	2
0	22781	5567.070258738206	1
0	22787	5567.835155993002	2
0	22788	5568.610355112807	1
0	22793	5569.32367765349	0
0	22817	5573.27168942305	1
0	22822	5574.916075986371	0
0	22832	5577.537719617466	1
0	22837	5578.205609174766	0
0	22863	5582.718230783456	1
0	22864	5582.884178096644	0
0	22885	5587.872459977408	1
0	22887	5589.21207253041	2
0	22891	5591.925747442611	3
0	22894	5592.620310189816	2
0	22900	5593.450687570564	1
0	22909	5594.649203153872	0
0	22917	5594.986272275515	1
0	22922	5596.466188340661	2
0	22923	5597.370135067441	1
0	22929	5598.683209711758	0
0	22941	5599.77528516661	1
0	22942	5600.318450927094	0
0	22948	5600.555355867631	1
0	22954	5602.587427302745	0
0	22961	5603.453408984544	1
0	22965	5605.900835183299	2
0	22966	5606.91264709437	1
0	22972	5607.931846033609	0
0	22983	5609.140918073889	1
0	22985	5609.769062245873	0
0	22992	5612.26507493861	1
0	22993	5614.527629964005	0
0	23030	5623.259684044316	1
0	23033	5626.296451373926	0
0	23055	5629.375415344366	1
0	23058	5630.054985454792	0
0	23067	5634.05784642951	1
0	23069	5635.050314275641	2
0	23072	5636.056626412135	1
0	23079	5637.025291563999	2
0	23080	5637.219006488033	1
0	23085	5637.287737277273	0
0	23089	5637.80915721507	1
0	23091	5637.846678658664	2
0	23095	5638.637111137129	1
0	23100	5638.678464908509	0
0	23108	5640.105610097168	1
0	23116	5642.051293142242	2
0	23119	5642.623389308467	1
0	23125	5642.997493535727	2
0	23126	5643.469189150401	1
0	23131	5643.729583833654	0
0	23135	5644.995790538589	1
0	23138	5646.228966443912	0
0	23153	5647.452608400255	1
0	23159	5649.927453493184	0
0	23174	5653.005900080146	1
0	23180	5656.405374865951	0
0	23191	5658.858949561016	1
0	23195	5660.597394978208	0
0	23222	5670.021193750054	1
0	23224	5670.735920615382	2
0	23227	5672.115274100877	1
0	23235	5672.378090374345	0
0	23252	5675.279346465451	1
0	23253	5675.565790095044	0
0	23273	5678.864762075545	1
[...]
4	114815	27658.959656797251	7.78750432492
4	114932	27679.932279093953	14.523017190797
4	114937	27680.018714595894	12.212072326131
4	114948	27682.261193617365	11.579512565108
4	114964	27683.321814900803	12.443412667408
4	114969	27684.415311183817	13.265609786487
4	114979	27686.743058640878	11.669951876026
4	114996	27689.939862916371	14.112482431208
4	115007	27691.492660241766	14.413111468305
4	115060	27700.759731623791	8.478705528275
4	115067	27704.225111333811	9.696092740669
4	115079	27709.237851043007	3.828504253714
4	115112	27720.738354211834	6.063885058222
4	115141	27723.723456283424	8.040409174822
4	115148	27725.85878585613	4.33190214879
4	115161	27730.726829150778	8.075073914607
4	115174	27733.205444670936	10.187489914474
4	115185	27735.443586524816	7.938414487431
4	115223	27744.075138546631	13.849263364265
4	115234	27750.160711322755	19.875076160362
4	115243	27753.76787653064	22.999907285475
4	115269	27762.825968618268	28.34990545
4	115280	27768.841632692394	33.890970830989
4	115299	27770.357669976497	4.959439110996
4	115310	27772.889653312646	1.139874475878
4	115322	27781.605262230404	4.18719207105
4	115362	27796.18458236761	5.145208551178
4	115374	27797.340321724911	0.674890952088
4	115391	27801.798074400565	4.426216149666
4	115408	27803.739802395629	3.887314727059
4	115412	27803.91337655275	0.807262834399
4	115442	27810.582405443424	2.28484517133
4	115500	27824.274055868094	5.079556182098
4	115517	27828.5117526667	7.006768518888
4	115553	27831.519385383724	9.079888858192
4	115561	27833.191268521359	8.335062986639
4	115566	27835.001214055719	4.645751059153
4	115573	27836.293711234585	5.526502582501
4	115587	27837.556444804829	0.797316261932
4	115650	27846.640906967343	2.62109483829
4	115657	27849.066038052506	3.625871027068
4	115662	27849.210608737861	3.7338426688
4	115666	27851.789566301906	5.881481916108
4	115689	27861.64413246349	2.985200734355
4	115708	27866.004811390755	5.045261132823
4	115717	27873.646810591336	11.764876315004
4	115759	27892.816637910991	7.276888986416
4	115788	27901.328576417601	7.805394818367
4	115800	27904.917420684097	10.544014388918
4	115826	27910.774173622636	15.884688140025
4	115837	27915.079477517629	6.88554261445
4	115845	27917.859824030934	9.022359426238
4	115853	27920.624949034786	3.559579738547
4	115857	27920.762659795593	2.303876254215
4	115867	27925.499973019869	2.029561015522
4	115888	27929.587472716796	4.216470179815
4	115985	27953.453017614321	26.552982489834
4	116005	27956.839838738654	28.85946024239
4	116010	27958.12769094001	25.384707230431
4	116034	27964.970502808422	29.290954037235
4	116113	27978.555764853554	32.619501661135
4	116235	28002.258426922779	51.893760115332
4	116262	28007.519297241071	56.829125317089
4	116322	28015.649839825954	61.915926207568
4	116329	28017.617438723571	57.321323871684
4	116338	28018.979057941211	52.792751748708
4	116352	28019.291083632609	52.513268552437
4	116366	28026.375431530666	58.459659330196
4	116394	28034.152160336758	55.403202410551
4	116405	28037.495628949528	54.9446233385
4	116508	28059.60720088755	76.957203740671
4	116514	28059.867052690103	74.98427069915
4	116519	28061.164514575957	73.101830525833
4	116524	28061.426809445538	71.513422659661
4	116547	28072.757050596162	75.15035767307
4	116665	28092.486894890263	94.698629307449
4	116670	28094.3975064234	93.361559636348
4	116681	28096.202888956938	92.840154098697
4	116693	28098.416840496314	92.921613189118
4	116700	28101.672346256687	90.652392529028
4	116709	28102.827816302491	84.18969427323
4	116723	28106.207677054001	87.127092590081
4	116728	28107.515479834546	88.269845828095
4	116737	28108.347352126809	83.220900563452
4	116748	28113.457885798228	64.018537351872
4	116758	28117.829091639186	58.350190978757
4	116765	28118.895715295284	56.624765087126
4	116770	28119.921410834058	48.282722866854
4	116783	28121.710713509464	50.00021880556
4	116807	28126.808691006345	51.107774501781
4	116814	28127.624701805368	51.259386133471
4	116836	28135.093763185411	54.509542402246
4	117007	28167.446245345923	86.130390426336
4	117012	28167.69551682403	81.802007347208
4	117021	28173.607454742469	78.269514801777
4	117034	28177.098479128066	74.919550995091
4	117039	28177.174549784285	71.751915824118
4	117044	28178.104058093157	70.024275916191
4	117058	28182.142993203194	66.939566044048
4	117080	28184.185861040372	67.210052187231
4	117085	28184.393120524971	65.812905977921
4	117091	28186.299200403147	65.514443852972
4	117098	28187.781436249503	63.944002831867
4	117103	28188.41543986836	56.409161729301
4	117114	28193.171072685894	51.452383098233
4	117137	28198.678923080327	51.832791476821
4	117142	28200.443920335175	43.372353935711
4	117149	28201.786793768471	41.007469080895
4	117156	28204.305915466546	42.272242123783
4	117167	28206.069340621726	43.255158984794
4	117208	28211.887395659745	48.642977366201
4	117253	28226.854511570634	55.233132557039
4	117274	28234.391917547001	54.376343418407
4	117286	28237.343607672886	44.529476691612
4	117291	28237.844797266827	44.831213583862
4	117296	28239.584737474271	43.406162081521
4	117319	28245.582991114268	47.12559127325
4	117392	28257.68608716182	56.298217866497
4	117398	28258.406472632888	56.581545720499
4	117410	28263.68233144137	59.32716472234
4	117428	28267.220631760123	62.850167835732
4	117433	28271.0556042263	62.778548909459
4	117444	28274.677725363214	66.318609775338
4	117496	28282.709049412364	66.863037701639
4	117517	28288.99218092553	66.369491475622
4	117527	28291.305087433267	68.366157071993
4	117539	28294.229770094161	53.221036377375
4	117555	28300.712420059164	59.224921365463
4	117658	28322.342786951689	80.31033450493
4	117664	28322.827163630229	77.896988262795
4	117669	28323.08277301452	76.378566192323
4	117677	28325.045493798457	64.033274756533
4	117685	28326.490877496746	60.060121873178
4	117697	28328.207015427889	53.010179139139
4	117709	28329.219238032854	46.388866881503
4	117714	28329.940172926543	18.399463022252
4	117724	28332.21706937439	20.450764629361
4	117781	28346.180081813084	33.475839109512
4	117792	28346.582010853506	23.114944711269
4	117799	28347.138375649846	11.915806815387
4	117804	28349.144359503322	4.229722541782
4	117811	28352.089414794046	5.130285563116
4	117848	28357.511694823216	3.32504216044
4	117899	28369.407845498035	7.729338453185
4	117904	28370.07962698877	2.539917798344
4	117961	28385.962253150504	0.298132114597
4	117976	28390.170606060854	3.056541474669
4	117989	28393.616667446795	6.385759764205
4	117997	28394.259938234391	4.745143212401
4	118002	28394.684640916594	3.172190456264
4	118012	28395.68549207435	1.461114764539
4	118025	28400.157567957471	4.923987799304
4	118040	28410.060066286239	11.409523054812
4	118055	28416.118504570017	13.228389306367
4	118062	28419.433004147463	13.891632600191
4	118069	28420.763606750411	11.850092919631
4	118086	28426.719790338672	4.621088883397
4	118109	28433.801070163202	11.316003231116
4	118130	28439.981156587399	12.208718068233
4	118147	28445.272474641145	16.72193285035
4	118200	28454.515875793181	23.739105658188
4	118235	28461.881458651821	28.764456479374
4	118245	28462.938861408597	22.990585450235
4	118257	28467.377938388378	27.308996921107
4	118286	28473.422156318799	21.677350037302
4	118293	28477.561260959256	24.551733087563
4	118300	28480.398931004243	11.518449581085
4	118311	28482.519482209717	13.364592555795
4	118315	28482.820370233835	5.976791855326
4	118330	28488.174735077293	2.250390212732
4	118356	28504.055844639915	2.729012949172
4	118363	28508.784924771851	5.179073605425
4	118370	28511.948957319262	4.927137853222
4	118379	28514.200385727948	4.000294216236
4	118462	28535.732798589793	17.725446182346
4	118469	28537.277778255476	18.130308467515
4	118478	28540.047752465166	13.886179104121
4	118525	28552.770901545848	19.661186469138
4	118530	28554.187507255812	17.709111366652
4	118537	28555.54098505313	7.398066648174
4	118558	28561.66981691971	3.999841804698
4	118598	28570.333847805625	11.925133149531
4	118643	28579.512579423507	21.09335613403
4	118710	28586.913074506289	25.9433580718
4	118717	28587.228685832421	20.590046238583
4	118725	28587.688482286748	15.520718418057
4	118739	28590.307124715633	11.107723252316
4	118744	28590.497178917353	10.891058322473
4	118756	28591.933560844996	5.348858940794
4	118793	28596.689686715464	8.461489444864
4	118806	28603.213817204469	11.118401936414
4	118824	28607.399948602375	13.199747724133
4	118829	28607.758157909352	10.467491040353
4	118833	28609.711270258144	6.538418008001
4	118845	28614.544264684628	2.49984950946
4	118883	28625.120767771477	4.318001307869
4	118893	28628.203498508297	1.815385362889
4	118925	28635.238892095352	3.637417109976
4	118934	28635.836566972637	2.37172147826
4	118949	28639.678288110543	3.444438212336
4	118969	28645.405523203631	8.396915665742
4	118990	28653.165699170173	12.055389905408
4	119027	28659.221330751501	12.311267472689
4	119051	28668.765303537907	13.367407977599
4	119067	28669.462775365699	13.875023904411
4	119085	28679.022459928863	22.16673321396
4	119189	28700.24024873052	37.631692713246
4	119194	28702.137359410238	34.145149483809
4	119200	28702.539420140659	34.307970085238
4	119209	28704.249504407685	22.363858414222
4	119216	28705.611900171796	21.432665903656
4	119221	28706.101710882948	16.793527950985
4	119234	28709.016084384465	18.948372966961
4	119264	28716.468326936706	25.766461005033
4	119292	28724.110651589346	21.411438716488
4	119317	28733.022282850454	26.695236300522
4	119364	28745.04255402066	38.388713543663
4	119369	28745.56672275475	32.86180778233
4	119384	28750.77369226664	6.259670833127
4	119496	28769.374448384246	22.277427299176
4	119503	28770.11815656663	20.80345776453
4	119514	28770.885671367788	20.588932647472
4	119524	28773.158638223337	19.579226629901
4	119536	28774.507616051737	20.09005345903
4	119543	28776.184765497492	17.155877951514
4	119548	28776.352191569078	12.82230147313
4	119569	28780.903027891418	13.257970479997
4	119591	28783.610988046781	10.526440245236
4	119641	28788.769746545055	15.447574127624
4	119652	28790.703260059139	15.359413616113
4	119669	28794.683327249539	16.556986285074
4	119674	28795.395143986425	16.532269400562
4	119685	28797.948325657818	19.060046273171
4	119716	28801.157405960524	22.044777390001
4	119727	28808.066407228281	28.610353254127
4	119752	28812.923566320637	31.929735203674
4	119819	28819.766964603366	20.829498976558
4	119841	28822.146724635174	14.355044022684
4	119851	28824.051421690709	13.92613446774
4	119888	28828.404112741692	15.074708387996
4	119921	28834.632702802789	15.933235275795
4	119928	28836.513877561129	17.236146815101
4	119948	28839.742332927963	19.402058557052
4	119959	28840.234872651979	18.292289559809
4	119974	28849.297792646821	22.402878231239
4	120004	28855.703873646931	27.39451206751
4	120016	28856.73201693771	3.206241857627
4	120025	28857.592750652458	3.096087342182
4	120044	28858.882268658519	4.2448633181
4	120051	28861.675702642423	5.104480054457
4	120060	28864.046912232376	5.797409464663
4	120064	28864.370730879251	1.52593044222
4	120170	28892.127713941306	0.344641294463
4	120232	28909.018107308448	14.03255558894
4	120273	28930.10396976551	1.730069073518
4	120292	28937.149761153404	6.420026930416
4	120315	28942.729604583424	9.037032364246
4	120373	28955.133147324241	21.021379680577
4	120403	28963.700823628075	29.160781134706
4	120500	28979.666936076326	34.381250964708
4	120505	28980.622731483653	33.073879038219
4	120510	28982.535056714801	34.830190048072
4	120520	28985.631305568513	16.149179146944
4	120554	28989.824492721801	17.889985932147
4	120565	28993.473511967553	17.317267322933
4	120582	28996.379934731125	16.909001847505
4	120591	28998.797019128367	12.948798859838
4	120606	29001.20465366121	13.961958216778
4	120623	29005.875369698094	8.816459357598
4	120637	29007.812458736277	7.826321615924
4	120660	29014.5633651673	11.656351342467
4	120707	29023.678615423198	13.884300595489
4	120713	29025.624611427288	13.036704108187
4	120717	29026.088582389428	12.136974753129
4	120753	29035.378380130283	0.127817231937
4	120757	29035.64730431615	0.35494084163
4	120827	29054.995977135422	3.559033746946
4	120840	29056.678053426143	4.221392586679
4	120847	29058.447196477445	1.802456138332
4	120868	29060.955140897271	1.795546224218
4	120893	29063.417065696353	2.527990114566
4	120903	29064.744431625976	1.022190579265
4	120922	29072.128588727021	6.611639946934
4	120937	29073.079336627184	2.13730678102
4	120944	29074.489561525456	0.789254945311
4	120974	29085.979076891515	2.949067589258
4	121017	29092.491435562645	7.641397413769
4	121022	29093.339986431449	8.257185792963
4	121028	29095.542743736421	8.06209284546
4	121035	29097.232081925172	5.803969318984
4	121081	29105.144488686755	4.865061151598
4	121088	29105.828736949542	2.551631458567
4	121102	29107.833359840018	1.422839646257
4	121120	29112.922239723874	1.420754872848
4	121143	29120.680898313117	0.522212194794
4	121174	29134.2338663528	7.823195321006
4	121275	29149.494764621232	19.797862927194
4	121280	29150.348256284165	14.337865474981
4	121297	29158.956891668545	20.32510373971
4	121316	29169.282201655745	25.238325424473
4	121326	29171.610320261592	25.11220718911
4	121332	29173.341496364592	26.553683784132
4	121351	29177.905396396538	29.391226065417
4	121388	29185.682023352989	34.769181842147
4	121396	29188.513250121539	35.750550482175
4	121430	29194.518350481764	36.606646984252
4	121436	29195.214829593752	36.835998070432
4	121445	29197.944880162564	23.219780932231
4	121466	29203.626562799272	28.529728668477
4	121488	29207.654373763832	32.192147615102
4	121493	29208.55256373461	30.017124127718
4	121500	29213.733678333139	32.607868847532
4	121515	29218.378309471973	35.725570965084
4	121520	29218.415871542706	33.100586161297
4	121527	29221.210427609109	28.474316505014
4	121550	29224.174586153725	30.911519564721
4	121668	29245.310757476941	51.785883446203
4	121677	29246.893777368299	47.355110351703
4	121682	29247.494470614594	41.556169169664
4	121693	29249.25037397064	31.652334241166
4	121735	29258.131407273842	36.155873286548
4	121752	29262.476540413253	38.262714576731
4	121802	29274.547686907787	42.66261050976
4	121808	29275.041817973224	42.321791825911
4	121819	29278.193716438247	38.042459984137
4	121824	29279.040736429011	33.547847277713
4	121831	29280.766093910773	34.619886941745
4	121861	29288.122198512999	40.617284431995
4	121874	29292.153973881824	43.640396576903
4	121898	29293.750017057254	42.528266613528
4	121904	29295.0908430323	43.486819407009
4	121910	29297.749688038107	31.731820380537
4	121918	29299.931722828704	22.087799215428
4	121925	29302.28101171856	24.242969557899
4	121930	29302.945470540992	17.396297650576
4	121936	29305.945145332708	16.833728637534
4	121943	29307.023129549751	14.784078768094
4	121962	29314.353913961076	16.549162497954
4	121989	29319.222353407821	18.280368355435
4	122009	29322.097089577725	14.633462192844
4	122017	29324.932917937434	11.503672955107
4	122027	29325.759956939779	9.693418222686
4	122034	29328.200096224751	11.716725864591
4	122046	29331.331368069113	14.056528517422
4	122059	29333.89379986494	13.178237359406
4	122076	29336.466403450241	8.699133610622
4	122097	29338.759527483519	10.254517358616
4	122163	29353.526147552485	17.51604013048
4	122176	29355.59651734202	18.827536855837
4	122208	29361.035042999604	21.393366510451
4	122215	29363.775956143184	20.480254011072
4	122221	29364.899706043803	20.354404980379
4	122228	29365.738687332064	21.165660599975
4	122239	29368.377467558065	23.235536306115
4	122247	29369.793002429975	14.505889689038
4	122257	29370.648030119107	13.191433725201
4	122277	29376.447678498114	18.969669445405
4	122493	29422.948050728887	62.651912567566
4	122503	29423.342810014595	60.713418400193
4	122509	29424.442480122497	49.735938343025
4	122514	29427.277120788343	42.639133335241
4	122519	29428.928286312237	41.201905491819
4	122530	29431.173267056293	33.114183889215
4	122538	29431.764467126302	17.909795826497
4	122548	29432.419235864668	9.755068713449
4	122570	29437.317477467832	6.84236504758
4	122669	29459.019869982364	28.295241498852
4	122674	29459.346039528642	26.649215609447
4	122682	29461.521469597607	27.752284641353
4	122733	29470.990637940348	31.404940084278
4	122745	29474.359527060269	28.958023533556
4	122768	29481.419388733117	14.187055377053
4	122811	29491.031581899218	2.713978288417
4	122820	29493.192355056722	2.935847359345
4	122824	29493.666840688287	2.447775016303
4	122840	29495.386912828655	0.336802304067
4	122862	29501.931907667957	4.373101933541
4	122920	29514.176779249209	15.51592010788
4	122932	29514.868988462802	10.624771949865
4	122941	29517.215421133776	5.874385138824
4	122958	29519.488557806243	1.197645828741
4	122970	29526.594439034629	3.341253659345
4	122974	29528.814008076278	4.237064388447
4	122986	29533.749991836595	2.205462459599
4	123111	29568.751637662617	34.296869312691
4	123150	29575.80947652126	16.832172309923
4	123161	29578.133663338172	8.624356473692
4	123179	29583.504108330911	10.521827643699
4	123216	29590.380530715713	15.809863020368
4	123221	29590.439747457436	12.128104460285
4	123236	29595.861745260467	5.884898910734
4	123251	29599.348460875815	8.099752240016
4	123265	29603.250028039858	11.121392010555
4	123286	29606.921372633704	14.527067362658
4	123297	29610.986887146166	17.533904099813
4	123323	29614.490034505588	16.149474276023
4	123336	29620.30253799814	18.429000692535
4	123359	29624.379558891826	16.099019872626
4	123396	29630.340732879766	0.205179400211
4	123408	29632.108262262307	0.99235730495
4	123461	29645.140296228821	8.761914253481
4	123470	29645.575192581337	2.14036986839
4	123491	29652.729147241237	1.015981294532
4	123496	29653.131778089728	1.293844454285
4	123511	29657.378156602322	0.493128304793
4	123543	29667.880551146421	0.056907373586
4	123555	29670.272135677722	1.047722811266
4	123559	29670.432245758055	0.304166547101
4	123574	29679.474047044795	1.684314560973
4	123636	29704.937331679013	1.199735236704
4	123681	29714.913012030228	8.918055878225
4	123692	29716.375521534919	10.298020082646
4	123699	29716.982271999511	10.830952432991
4	123709	29719.773787602681	5.603593069002
4	123716	29721.250558296714	0.657478324579
4	123723	29725.883528563784	2.440182341478
4	123792	29744.666952930674	13.796478716017
4	123857	29759.835709380692	21.270345301284
4	123864	29760.692551446482	18.698630522688
4	123869	29761.272302770914	13.663545168482
4	123874	29761.9066840109	10.528275965878
4	123878	29762.157922787763	8.502943091497
4	123893	29769.921101969373	0.633884210218
4	123928	29781.392203012586	0.714035832427
4	124009	29803.686197334728	5.208184475011
4	124014	29804.478819464647	3.941342865026
4	124018	29804.504159224513	1.210209863269
4	124040	29809.458512177552	2.488401159691
4	124045	29810.479905505181	3.321931380232
4	124100	29822.169028710746	0.142706973053
4	124108	29824.830703286564	0.567557208084
4	124121	29829.258427498284	2.2967734498
4	124137	29832.782892391232	4.408124023789
4	124162	29836.931097603506	0.502870562612
4	124188	29849.426777491538	1.734466293708
4	124195	29849.878808151713	0.22806824009
4	124252	29864.169613873623	2.877053850177
4	124311	29882.850206403721	0.929313771375
4	124318	29884.413565677121	1.985093437046
4	124329	29885.067816926581	1.999272824992
4	124342	29888.98748129997	4.552719841466
4	124361	29893.542732320695	9.090206788016
4	124366	29898.969105111782	6.918168627615
4	124414	29915.514577552321	9.246403146383
4	124425	29919.655771344153	8.579689799887
4	124449	29925.595030320853	13.252431338088
4	124454	29925.623583878732	9.957548267654
4	124459	29926.537245170721	5.834415066166
4	124466	29926.998470259065	2.26671760796
4	124516	29938.848160880562	6.970063974665
4	124542	29955.255232042298	1.831218005803
4	124552	29956.826796376477	1.319323426772
4	124561	29959.226050055647	3.272909380732
4	124620	29970.225975180476	6.367549647706
4	124644	29975.528332715646	4.230408847779
4	124656	29977.977409288303	1.981004620871
4	124665	29984.289037106044	0.876930884322
4	124675	29987.471345523878	1.941084158184
4	124699	29993.569605361326	5.483546868843
4	124704	29994.549565192584	5.551571030009

