version 2
run Second-n2-2-20191016-14:52:40-9956
attr configname Second-n2
attr datetime 20191016-14:52:40
attr experiment Second-n2
attr inifile omnetpp.ini
attr iterationvars ""
attr iterationvarsf ""
attr measurement ""
attr network org.omnetpp.queueing.Pizza
attr processid 9956
attr repetition 2
attr replication ""
attr resultdir results
attr runnumber 2
attr seedset 2
param **.PS.maxInventoriedPS 2
param **.U1.interArrivalTime exponential(3s)
param **.U2.interArrivalTime exponential(5s)
param **.PS.serviceTimeForInventoryU1 exponential(1.0s)
param **.PS.serviceTimeForInventoryU2 exponential(1.2s)
param **.PS.serviceTimeDirectU1 exponential(1.4s)
param **.PS.serviceTimeDirectU2 exponential(1.4s)
param **.PS.probabilityProducing 0.7
param **.CS.serviceTimeU1 exponential(1.1s)
param **.CS.serviceTimeU2 exponential(1.4s)

vector 0 Pizza.EntryQueueU1 queueLength:vector ETV
attr interpolationmode sample-hold
attr title "queue length, vector"
vector 1 Pizza.CS queueLength:vector ETV
attr interpolationmode sample-hold
attr title "queue length, vector"
vector 2 Pizza.EntryQueueU2 queueLength:vector ETV
attr interpolationmode sample-hold
attr title "queue length, vector"
vector 3 Pizza.sink lifeTime:vector ETV
attr interpolationmode none
attr title "lifetime of arrived jobs, vector"
attr unit s
vector 4 Pizza.sink lifeTimeU2:vector ETV
attr interpolationmode none
attr title "lifetime of arrived jobs, vector"
attr unit s
0	0	0	0
0	7	1.718075968882	1
0	13	5.540971110126	0
0	38	10.572109086914	1
0	41	11.469341677053	2
0	44	12.338075893448	1
0	49	12.429371851505	0
0	68	13.922410977845	1
0	70	14.431988715574	0
0	76	14.691007718191	1
0	81	15.379211545418	0
0	89	15.982554813814	1
0	90	16.105043778541	0
0	96	18.093582354327	1
0	99	19.36397459778	0
0	148	41.803652574952	1
0	151	42.70057259335	0
0	213	68.250404589931	1
0	215	69.654989136039	0
0	253	83.362558696773	1
0	254	83.837933701524	0
0	267	86.123582349768	1
0	270	86.251671433843	2
0	272	89.375178882221	1
0	277	89.661803278209	0
0	299	95.750925176386	1
0	301	97.391000596943	2
0	302	98.392434048705	1
0	307	98.516393188406	0
0	322	101.535253948721	1
0	323	102.01166194505	0
0	339	108.892530859831	1
0	341	109.47587904537	2
0	342	111.028733636829	1
0	347	111.767831007341	0
0	362	114.933219515574	1
0	364	115.284787268829	2
0	365	115.3265889245	1
0	370	115.337922152653	0
0	409	127.998631979437	1
0	414	128.29724609321	0
0	433	131.091308648546	1
0	435	131.873743768428	2
0	439	132.304885929707	1
0	444	132.790888401199	0
0	451	134.241876960838	1
0	453	134.445633389085	2
0	457	134.729786702395	3
0	461	135.447669763695	2
0	466	135.690418291536	1
0	471	136.037133618793	0
0	475	136.060410772012	1
0	477	136.068168517295	2
0	483	137.803182929006	1
0	488	138.298278737095	0
0	494	138.968091362774	1
0	496	139.353133663178	0
0	502	140.732152458053	1
0	503	141.165616702021	0
0	520	141.905433490129	1
0	522	141.938012518624	2
0	524	143.726755167481	1
0	530	144.034173046807	2
0	532	144.980226569148	1
0	537	145.163621499919	0
0	543	146.004376714659	1
0	544	146.295485556213	0
0	548	147.768419869365	1
0	552	148.361383399208	0
0	570	151.54209256237	1
0	571	152.546381911281	0
0	606	169.387655764187	1
0	610	171.080408299576	2
0	613	172.894083847783	1
0	620	176.009486033433	0
0	664	182.68305635053	1
0	666	183.431831648363	2
0	667	187.092487588968	1
0	673	187.663752737497	2
0	675	188.271147191383	3
0	676	188.491523008459	2
0	681	188.536908313492	1
0	688	190.103068332639	0
0	749	205.196298068393	1
0	751	205.443959709554	2
0	752	206.244192064723	1
0	758	206.27651145091	2
0	760	206.861729261892	1
0	766	207.933587172191	2
0	767	208.245345410368	1
0	775	208.846472811199	0
0	786	209.22927719667	1
0	789	209.907617404462	0
0	804	215.997762356348	1
0	805	216.109740416529	0
0	813	218.665957464625	1
0	816	221.92700135659	0
0	822	222.219963907347	1
0	823	222.494045567561	0
0	857	228.464747035904	1
0	858	228.526321126648	0
0	880	232.359908467436	1
0	881	234.1766220822	0
0	911	241.042625521499	1
0	914	243.349152188846	0
0	932	247.434458710255	1
0	938	249.32405587128	2
0	939	252.192246578646	1
0	946	253.03241326854	0
0	953	255.397063535481	1
0	954	256.186887279806	0
0	961	257.838673280746	1
0	962	258.392024965973	0
0	1065	288.329372283416	1
0	1066	288.866202104491	0
0	1086	290.386643752884	1
0	1087	291.926869642434	0
0	1091	292.065327589169	1
0	1097	295.040063756737	2
0	1099	295.356538904432	3
0	1101	295.667520202804	4
0	1105	297.634193848361	3
0	1110	299.141986524973	2
0	1116	299.488739334339	3
0	1119	300.831551920193	2
0	1124	301.812991473952	1
0	1130	302.090337425311	2
0	1133	305.600514903615	1
0	1138	305.894551599589	0
0	1144	305.990747783484	1
0	1145	306.235660862028	0
0	1149	308.286243740483	1
0	1155	310.117932787608	0
0	1173	312.907950780245	1
0	1176	313.354315016893	0
0	1193	314.920092077882	1
0	1196	316.896133422399	0
0	1202	317.069024626584	1
0	1204	317.733327337568	0
0	1215	318.161401679569	1
0	1218	318.996340394298	0
0	1226	319.619166160017	1
0	1230	320.044421362645	0
0	1239	321.162635217371	1
0	1244	322.249310318317	2
0	1245	322.317141907427	1
0	1249	323.212048246506	2
0	1253	324.466088385848	3
0	1255	324.997731832527	2
0	1263	327.768770967758	3
0	1265	328.637503710388	2
0	1271	330.603759611336	3
0	1273	331.290272167064	4
0	1276	331.754151105145	3
0	1285	334.383092104546	4
0	1286	335.33382490543	3
0	1291	335.384204847452	2
0	1298	339.759236681456	1
0	1304	340.402965731591	2
0	1305	340.53589394848	1
0	1315	342.894046744761	2
0	1319	343.723023683649	1
0	1326	344.427246403154	2
0	1328	346.048319707956	1
0	1334	346.135309640144	2
0	1337	346.866616070541	1
0	1342	347.053106825139	0
0	1360	349.729275433941	1
0	1365	351.564312009579	2
0	1366	351.798057297153	1
0	1372	353.178531275806	2
0	1376	354.644249662045	1
0	1382	355.16065569742	0
0	1420	362.428175836683	1
0	1421	362.686976224005	0
0	1438	365.024982681069	1
0	1439	366.288121997043	0
0	1446	368.728187743833	1
0	1448	368.804259957896	2
0	1449	369.910637735807	1
0	1455	371.006812742749	0
0	1472	376.146936249174	1
0	1473	376.723410388778	0
0	1482	377.360811489553	1
0	1486	378.414615769358	2
0	1488	381.152596659791	1
0	1493	381.706434840024	0
0	1512	386.146281305267	1
0	1516	387.525201731331	0
0	1525	391.272656552982	1
0	1532	392.368148373946	2
0	1535	393.016002787476	1
0	1541	393.289924162056	2
0	1543	393.488103519628	3
0	1544	393.998707063744	2
0	1550	394.0041668919	3
0	1551	394.164847851661	2
0	1558	396.478722330848	1
0	1564	396.510114732009	2
0	1567	397.163289967884	1
0	1572	397.437857497874	0
0	1579	397.520537553777	1
0	1580	397.744029283849	0
0	1614	404.676329647399	1
0	1615	405.554044360305	0
0	1634	409.365739852883	1
0	1636	410.306636252305	2
0	1640	411.40388375502	3
0	1642	412.003342238918	4
0	1646	413.009704306789	5
0	1648	413.091651974403	6
0	1649	413.242462811583	5
0	1657	413.432739783994	4
0	1662	413.921700708484	3
0	1668	414.067401196459	4
0	1670	414.661827384329	3
0	1676	415.972553205905	2
0	1684	417.008989641311	3
0	1686	421.326322146462	4
0	1687	422.974226065355	3
0	1694	423.188155204233	4
0	1698	423.576983687858	5
0	1700	423.593747380762	6
0	1701	424.122264729722	5
0	1706	424.217611500992	4
0	1714	426.502129714403	3
0	1719	426.822707910866	2
0	1725	427.915368330649	3
0	1727	428.462523124329	2
0	1732	428.583153588423	1
0	1738	429.1607291923	2
0	1740	430.234535162679	3
0	1745	436.590279382772	2
0	1751	439.091420520029	1
0	1758	439.505774626706	0
0	1764	440.469368579145	1
0	1770	441.689409534709	2
0	1774	442.823808252255	3
0	1777	443.40455884327	2
0	1784	444.772830675765	3
0	1785	445.486541729114	2
0	1791	445.849957092128	3
0	1792	447.306677201367	2
0	1798	449.227505708553	3
0	1800	452.150805712887	4
0	1801	452.573507352086	3
0	1806	453.252208716666	2
0	1810	454.017267238192	3
0	1817	455.433435169334	2
0	1823	456.382680211641	1
0	1828	457.458783590353	0
0	1839	458.134105620031	1
0	1842	458.584541571027	2
0	1843	458.648063320525	1
0	1848	459.000428580493	0
0	1856	460.088908473856	1
0	1857	460.132204994634	0
0	1861	460.251103775305	1
0	1864	460.549284558809	0
0	1870	461.427544146614	1
0	1874	462.1062852728	0
0	1895	463.719635326786	1
0	1897	465.11128258351	0
0	1914	467.383022244207	1
0	1916	467.45910998264	2
0	1919	468.113278509877	1
0	1924	468.992971094858	0
0	1945	470.829493852894	1
0	1948	472.372486062037	0
0	1954	472.451763271918	1
0	1955	472.718083685054	0
0	1973	476.407603409378	1
0	1979	478.544471707124	2
0	1982	479.55535036849	3
0	1984	482.043732909842	2
0	1989	482.771951598048	1
0	1994	483.93541967186	0
0	2009	486.428212490162	1
0	2013	490.089279840911	2
0	2014	490.963836694036	1
0	2021	491.77952309173	2
0	2023	492.477234429188	1
0	2030	492.801456952416	2
0	2031	494.340657434893	1
0	2036	494.423444855393	0
0	2058	498.148968681079	1
0	2060	498.450145997266	2
0	2062	498.45155173913	3
0	2064	498.487924944051	4
0	2065	499.11447289183	3
0	2070	499.831696072691	2
0	2077	500.070743488391	3
0	2079	501.343053962815	2
0	2084	501.355778250513	1
0	2091	502.10558707813	2
0	2093	503.67151144292	1
0	2099	505.12291075534	2
0	2101	505.863478740405	3
0	2103	506.341220261362	4
0	2104	506.553008016017	3
0	2118	509.892116322246	2
0	2124	510.136274902307	1
0	2131	510.377076361653	2
0	2133	510.533348036774	3
0	2134	511.143038139703	2
0	2141	513.820557991818	1
0	2148	516.654605473382	2
0	2149	516.678180211841	1
0	2157	519.240362721214	0
0	2168	520.192172466931	1
0	2170	520.788954579344	2
0	2171	521.28366676564	1
0	2178	521.507675031804	2
0	2179	521.717466329687	1
0	2185	522.780864078342	2
0	2188	524.491792828204	1
0	2194	525.757961354515	2
0	2198	526.412716247585	3
0	2199	526.973430162841	2
0	2203	527.435502017978	3
0	2206	529.8950059146	2
0	2215	532.132104798778	3
0	2216	533.337355367019	2
0	2221	533.46658878417	1
0	2228	536.588372218679	0
0	2255	541.314409577466	1
0	2258	542.37450168549	0
0	2267	543.26447734635	1
0	2272	544.443986878711	2
0	2273	544.687616030948	1
0	2279	546.285637691151	2
0	2280	547.342753431071	1
0	2284	548.561568211268	2
0	2286	552.717373415917	3
0	2290	555.064856097328	2
0	2297	555.926049630321	1
0	2301	556.286862810474	2
0	2307	557.715709820559	3
0	2311	560.868884181108	4
0	2312	562.909991803096	3
0	2320	563.620829558755	4
0	2321	564.209920008896	3
0	2326	564.674620084326	2
0	2332	564.933696495271	3
0	2334	566.279858887909	2
0	2340	566.380060190694	3
0	2343	566.659783587172	4
0	2347	567.638855714307	5
0	2351	568.298071523255	4
0	2359	569.526376646383	3
0	2365	569.619293505744	4
0	2367	570.164578025249	3
0	2372	570.478140031709	2
0	2380	572.480627260588	1
0	2385	572.59333954591	0
0	2413	576.317860573873	1
0	2415	577.841650577568	2
0	2419	578.226227302183	3
0	2425	579.360710082021	2
0	2430	579.674299167721	1
0	2436	580.64593147431	0
0	2449	584.118785059723	1
0	2451	585.5845446594	0
0	2465	588.600707463227	1
0	2466	588.917672551661	0
0	2491	593.2414826525	1
0	2492	594.857843593845	0
0	2498	594.89599369034	1
0	2499	595.258155310457	0
0	2506	596.110419505088	1
0	2507	596.125663962435	0
0	2515	596.457842897572	1
0	2518	596.869056048323	0
0	2529	597.723472806076	1
0	2531	597.771013878315	2
0	2533	598.071893037005	1
0	2538	598.839109846054	0
0	2547	600.691067693968	1
0	2555	605.078276063838	0
0	2569	606.05384352353	1
0	2571	607.044249140338	2
0	2575	608.15947547165	3
0	2576	608.260575992484	2
0	2581	608.338014927226	1
0	2589	610.423918665877	0
0	2595	610.588678751787	1
0	2598	611.19660390488	0
0	2632	613.898921683863	1
0	2636	616.330769796383	0
0	2660	621.116967207298	1
0	2662	621.533616188182	2
0	2665	622.615252510696	1
0	2670	623.756885577886	0
0	2679	624.751735234034	1
0	2684	628.947145636567	2
0	2688	630.159878662318	3
0	2689	631.858603051777	2
0	2695	634.32314049216	1
0	2700	634.44437753471	0
0	2706	635.876893378568	1
0	2707	637.227943934623	0
0	2713	638.016284773008	1
0	2716	638.702132118754	0
0	2733	641.228431274139	1
0	2736	642.182260554646	0
0	2742	642.334255382509	1
0	2747	643.87204672219	0
0	2753	644.410443269772	1
0	2754	644.563454951264	0
0	2778	651.726716619906	1
0	2780	654.481464022865	2
0	2781	655.073025041987	1
0	2790	657.138227697585	0
0	2805	659.568999326223	1
0	2811	661.437634679083	0
0	2825	662.086224317882	1
0	2830	662.701614297696	2
0	2831	663.031138389886	1
0	2836	664.787473002582	0
0	2848	665.639683926636	1
0	2850	666.147521066326	2
0	2852	666.96212775289	1
0	2859	667.097230841614	2
0	2862	667.320937085767	3
0	2864	668.711743358707	4
0	2865	668.740099149322	3
0	2870	668.779482730094	2
0	2875	668.999571775993	1
0	2879	669.002252778065	2
0	2881	669.234768759488	3
0	2886	670.320614601179	2
0	2891	670.558003372281	1
0	2898	671.410422164096	2
0	2899	672.310392320271	1
0	2903	672.784724222616	2
0	2907	675.894967343463	3
0	2910	676.690470483895	4
0	2911	677.749873228427	3
0	2916	678.753688556475	2
0	2921	680.400138494103	1
0	2926	680.958284150492	0
0	2945	688.957304332358	1
0	2946	691.25695976185	0
0	2953	691.570091730968	1
0	2954	691.837727236827	0
0	2968	692.819169877612	1
0	2972	694.636939809876	2
0	2977	696.464936316072	1
0	2982	697.314867283264	0
0	2986	697.851161854201	1
0	2990	698.440499773401	2
0	2992	698.591363303936	3
0	2995	699.492703185471	2
0	3001	701.476123140462	1
0	3007	701.921985497603	0
0	3018	703.532547950738	1
0	3020	705.334934560233	2
0	3022	706.138994683396	3
0	3024	707.511364696258	4
0	3028	707.750721167658	5
0	3030	708.806889762653	4
0	3035	709.379972778838	3
0	3047	711.292805132605	4
0	3048	711.343262893916	3
0	3053	711.463015485746	2
0	3058	711.617643344066	1
0	3062	711.911470980978	2
0	3066	715.605797336207	3
0	3067	715.647013580001	2
0	3073	716.24114900104	3
0	3074	716.661795254983	2
0	3080	718.141645222109	1
0	3086	718.950985736299	2
0	3087	719.045203235649	1
0	3091	720.960070497835	2
0	3095	722.995872636579	1
0	3101	723.029553459148	0
0	3119	725.11804361217	1
0	3122	725.665132584432	0
0	3146	728.907667031156	1
0	3147	729.088684652867	0
0	3158	729.464347635359	1
0	3159	730.268009151272	0
0	3175	733.203449871968	1
0	3182	735.918543235475	0
0	3199	739.407443894087	1
0	3200	739.600819824172	0
0	3207	740.036078616274	1
0	3209	740.423963680499	2
0	3211	741.043668144289	1
0	3216	741.817506719774	0
0	3234	744.472752279077	1
0	3235	744.878721062597	0
0	3243	746.494070880313	1
0	3244	748.06130307303	0
0	3257	750.239550154074	1
0	3259	752.192792652466	0
0	3265	752.769944080646	1
0	3266	753.001605882662	0
0	3272	754.929651115146	1
0	3274	756.966347964079	0
0	3301	771.123919742704	1
0	3304	771.821534284911	0
0	3314	772.859131064022	1
0	3316	774.853753849673	2
0	3318	775.113401949073	3
0	3321	776.735138225385	2
0	3326	776.903864374	1
0	3331	777.077639714721	0
0	3344	780.544975661399	1
0	3349	782.433712139134	0
0	3380	792.272998839467	1
0	3382	792.607180547612	2
0	3384	792.672747236953	3
0	3385	792.757259509324	2
0	3390	792.886598158162	1
0	3396	793.045306556	2
0	3397	793.701610956046	1
0	3403	794.351078555272	2
0	3404	796.56257940614	1
0	3409	798.497531919426	0
0	3413	799.129326401611	1
0	3415	799.801292397447	2
0	3422	801.103608341201	3
0	3424	803.776646682475	2
0	3429	804.518024375145	1
0	3436	806.552333266707	0
0	3456	808.416276926467	1
0	3457	809.352359280255	0
0	3495	819.367258034369	1
0	3498	821.178719342225	0
0	3506	821.954706529862	1
0	3508	822.665622833123	2
0	3511	824.612150481548	3
0	3513	825.251011347869	4
0	3515	825.451516958138	5
0	3517	826.802488846503	6
0	3518	827.162789561582	5
0	3525	827.936263732398	6
0	3526	828.504927563191	5
0	3531	828.864633348351	4
0	3536	829.40728759303	3
0	3541	830.73645078832	2
0	3547	833.256470766306	3
0	3549	833.828245169368	2
0	3555	836.135584967917	1
0	3560	836.318952775188	0
0	3590	843.086184054938	1
0	3591	843.498090157732	0
0	3641	860.201018223752	1
0	3642	860.328836464424	0
0	3671	869.201947181362	1
0	3673	870.919574665887	0
0	3680	871.870879550062	1
0	3681	873.340728532021	0
0	3698	882.950376598959	1
0	3699	883.38762607078	0
0	3709	884.443549201792	1
0	3710	884.585968870929	0
0	3729	890.275794762509	1
0	3730	891.580931021677	0
0	3749	895.16179843062	1
0	3750	895.659320120936	0
0	3774	902.002285941821	1
0	3775	902.515296540012	0
0	3789	909.445501810907	1
0	3791	910.975158219333	2
0	3793	911.260707332081	3
0	3794	912.943750652061	2
0	3802	915.901989517208	1
0	3807	916.107994524887	0
0	3811	916.440572641599	1
0	3817	919.130046514918	0
0	3836	926.972196337119	1
0	3837	927.999426188072	0
0	3848	928.771488412892	1
0	3850	929.358885574904	0
0	3860	929.624898742226	1
0	3864	930.568054588512	2
0	3865	930.705996854292	1
0	3871	930.80147579577	2
0	3872	930.804405128111	1
0	3877	931.026192872942	0
0	3894	933.57045764844	1
0	3896	934.482379643809	0
0	3910	936.421796573713	1
0	3912	937.725273653233	2
0	3921	940.801606609639	1
0	3928	943.674521303564	0
0	3946	947.06354889297	1
0	3950	948.237185467921	2
0	3952	948.682694488325	3
0	3957	950.492791310952	2
0	3962	950.566704406615	1
0	3967	950.834611377178	0
0	3973	951.633521955157	1
0	3976	952.104047452324	0
0	3982	953.405019153865	1
0	3983	953.688929951233	0
0	3990	955.212570919077	1
0	3991	955.439609055946	0
0	3997	957.328275342683	1
0	4001	958.083706553971	0
0	4034	963.10775152407	1
0	4035	963.140798120642	0
0	4056	965.90017552158	1
0	4060	966.736358927232	2
0	4061	968.133964384511	1
0	4066	969.765679899331	0
0	4070	969.977238804674	1
0	4074	971.844993147261	0
0	4112	982.037729898197	1
0	4114	982.217031124087	2
0	4119	984.023513776912	1
0	4125	984.25931064179	2
0	4129	986.964036046737	1
0	4134	987.036592901167	0
0	4151	989.597312607572	1
0	4152	989.72602115145	0
0	4175	993.475701206725	1
0	4177	993.825502600715	2
0	4178	994.415925391739	1
0	4183	995.167724413748	0
0	4191	1000.664106168314	1
0	4200	1004.685262367353	0
0	4212	1006.257805837774	1
0	4213	1007.435014002018	0
0	4227	1011.201896491388	1
0	4231	1015.171371531689	0
0	4244	1016.753089201614	1
0	4246	1016.835729851543	2
0	4248	1017.487453037708	3
0	4250	1018.554088578729	4
0	4252	1018.620358228329	5
0	4253	1018.72361643191	4
0	4258	1018.777641205555	3
0	4265	1019.255854229999	2
0	4273	1022.519258801704	1
0	4278	1022.803415684922	0
0	4282	1023.213644681475	1
0	4288	1024.635415986816	0
0	4295	1025.896892136225	1
0	4296	1026.228169570103	0
0	4313	1027.469219208177	1
0	4314	1028.374924109721	0
0	4327	1031.626961021957	1
0	4331	1032.021569418219	2
0	4334	1032.505384177334	1
0	4339	1032.769887732691	0
0	4345	1032.945371623417	1
0	4346	1033.189154145951	0
0	4359	1034.766767104889	1
0	4362	1036.889037275551	2
0	4363	1036.970256353813	1
0	4369	1037.854882835619	0
0	4378	1039.486351332068	1
0	4381	1039.670793554379	0
0	4388	1041.032480525263	1
0	4394	1042.389602139579	2
0	4398	1043.365475578491	1
0	4404	1044.27486430984	0
0	4413	1045.39768078681	1
0	4414	1046.736938946921	0
0	4431	1047.882021675219	1
0	4433	1048.855713306307	2
0	4437	1049.257308404757	1
0	4442	1049.517323234067	0
0	4454	1050.226297622471	1
0	4456	1050.259534837761	2
0	4460	1051.247796656616	3
0	4462	1052.089023678517	4
0	4463	1052.255044657207	3
0	4471	1054.902904482707	2
0	4484	1057.480938276871	3
0	4485	1057.516509925476	2
0	4490	1058.031504516079	1
0	4497	1058.874040002285	2
0	4501	1059.661945850857	3
0	4502	1060.056998130038	2
0	4507	1060.290211867367	1
0	4512	1062.128188332185	0
0	4525	1064.140817819909	1
0	4526	1064.426482977186	0
0	4556	1069.29720394978	1
0	4557	1069.92965614744	0
0	4566	1070.635754062298	1
0	4568	1070.722312312047	2
0	4571	1071.958353246839	1
0	4576	1072.541203162499	0
0	4580	1073.391486913744	1
0	4584	1074.161364987169	2
0	4589	1076.428028433695	1
0	4598	1079.183788913099	2
0	4600	1079.453247789017	3
0	4602	1081.138098345399	2
0	4612	1082.395743586286	1
0	4618	1082.50322128207	2
0	4620	1082.828090221789	1
0	4625	1083.329130312712	0
0	4629	1084.05642761612	1
0	4633	1085.931466721039	2
0	4639	1086.333186950476	1
0	4644	1086.609122758865	0
0	4655	1087.749126161912	1
0	4661	1089.76380023372	2
0	4663	1089.940869795916	3
0	4664	1090.387217108131	2
0	4672	1091.01463390464	1
0	4679	1093.004861440112	0
0	4685	1093.092112204836	1
0	4687	1093.205429670206	2
0	4689	1094.758082338337	1
0	4695	1095.627380171009	0
0	4711	1096.40291843392	1
0	4713	1096.568035311346	2
0	4714	1097.182794070601	1
0	4720	1098.469724859007	0
0	4732	1099.796762634815	1
0	4734	1099.853509163751	2
0	4735	1100.870847007547	1
0	4741	1103.390211529553	0
0	4769	1112.293548113395	1
0	4770	1112.662605425645	0
0	4788	1116.130544878143	1
0	4791	1118.134809367177	0
0	4802	1119.043990376489	1
0	4803	1119.935951572997	0
0	4822	1123.416785186129	1
0	4828	1126.111834225724	2
0	4829	1126.310278931614	1
0	4835	1127.010270881276	0
0	4841	1127.029851753627	1
0	4842	1127.643273685559	0
0	4868	1133.46604067157	1
0	4869	1133.567667000781	0
0	4875	1134.084328990918	1
0	4879	1137.214989687637	0
0	4893	1138.496649570358	1
0	4895	1139.108795758939	2
0	4897	1139.448007753548	3
0	4898	1141.729136029947	2
0	4903	1142.310021969595	1
0	4914	1144.210804804502	0
0	4968	1153.686936307476	1
0	4970	1154.885462609643	2
0	4972	1155.895584027658	3
0	4975	1156.109486064067	2
0	4981	1156.282321459636	3
0	4985	1157.214498649016	4
0	4987	1158.583654941668	3
0	4992	1158.96322416977	2
0	4998	1159.405919157351	1
0	5002	1160.481355802546	2
0	5006	1161.036183120719	3
0	5013	1165.184180075526	4
0	5014	1165.984636494962	3
0	5018	1167.33315939791	4
0	5020	1167.622634857699	5
0	5022	1167.911287256445	6
0	5027	1169.151985253952	5
0	5034	1171.274279546073	4
0	5042	1171.860431202306	5
0	5043	1172.022630618031	4
0	5048	1173.241693197387	3
0	5056	1175.989311416423	4
0	5057	1178.088543048705	3
0	5062	1178.830124610597	2
0	5066	1178.989525782714	3
0	5071	1182.856833315914	2
0	5077	1183.152468186301	1
0	5085	1183.847395034888	0
0	5098	1185.769561750535	1
0	5104	1187.923634071125	0
0	5128	1194.021570560853	1
0	5130	1195.175431944782	0
0	5136	1195.1765512974	1
0	5138	1195.895733929364	0
0	5150	1196.953982102718	1
0	5153	1197.742955947	0
0	5173	1199.622830388708	1
0	5175	1199.726321770437	2
0	5177	1200.808782033232	3
0	5179	1203.566100398098	4
0	5189	1208.225822432954	3
0	5194	1209.049912681164	2
0	5199	1212.405908642077	1
0	5203	1217.619250491425	2
0	5209	1220.165694587349	1
0	5214	1220.878726149492	0
0	5239	1223.055608373416	1
0	5242	1224.821383113919	0
0	5264	1227.903814189393	1
0	5265	1228.342165035433	0
0	5273	1228.955424553421	1
0	5275	1229.535693679495	2
0	5276	1230.272992866299	1
0	5281	1230.971007229688	0
0	5294	1232.867754257813	1
0	5299	1234.514030099238	2
0	5300	1236.947587083477	1
0	5305	1237.070577023672	0
0	5319	1238.550764190304	1
0	5321	1239.010705983835	0
0	5331	1240.949403135493	1
0	5332	1241.261823245085	0
0	5364	1245.349902903355	1
0	5366	1245.643122084874	2
0	5368	1245.748223887227	3
0	5369	1248.787631401692	2
0	5374	1249.314028029628	1
0	5384	1251.52751122362	0
0	5406	1254.296558182302	1
0	5409	1256.158123139358	0
0	5416	1257.069345030193	1
0	5418	1257.248564933392	2
0	5419	1258.055671636026	1
0	5425	1258.805336720387	0
0	5438	1261.538091822604	1
0	5439	1261.823480478373	0
0	5445	1262.651187126562	1
0	5447	1262.769431915048	2
0	5450	1265.247272331496	3
0	5451	1266.099679628748	2
0	5457	1266.172904902334	3
0	5461	1266.944718076985	2
0	5468	1267.307960327219	1
0	5473	1269.821855850909	0
0	5489	1274.038371881355	1
0	5491	1275.439448513683	2
0	5494	1277.016058302478	1
0	5500	1278.348491326931	0
0	5509	1279.395519376539	1
0	5515	1281.71681139058	2
0	5516	1282.567412230229	1
0	5523	1282.708342470947	2
0	5524	1283.305589209046	1
0	5531	1283.680544354004	2
0	5536	1284.144267283492	3
0	5537	1284.60735882411	2
0	5542	1284.771078309068	1
0	5547	1285.215860912387	0
0	5556	1287.663064346852	1
0	5558	1288.558612255531	0
0	5587	1293.67106458002	1
0	5589	1295.53332290394	2
0	5591	1296.047942462737	3
0	5594	1297.249730869052	2
0	5599	1297.3545769358	1
0	5604	1297.544139758241	0
0	5630	1301.950109085716	1
0	5632	1301.973989019538	2
0	5633	1301.977517452524	1
0	5638	1302.109865048779	0
0	5653	1303.933221420714	1
0	5654	1304.188975783242	0
0	5693	1313.302962051022	1
0	5695	1314.671945959219	2
0	5701	1317.799791191156	3
0	5703	1318.778063814819	4
0	5705	1319.104515168598	5
0	5709	1320.367718685078	6
0	5710	1321.022661383517	5
0	5715	1321.034241661383	4
0	5720	1321.7957940911	3
0	5728	1326.721599652038	4
0	5732	1327.022606792547	5
0	5735	1328.912812194674	4
0	5742	1330.338350669214	3
0	5746	1330.371590867789	4
0	5748	1330.539283512333	5
0	5751	1332.934709689008	4
0	5757	1333.612313329889	3
0	5763	1333.912057727857	2
0	5769	1334.168472864322	1
0	5776	1334.641527294322	0
0	5792	1337.341807889738	1
0	5795	1338.441065662989	0
0	5818	1342.919788161207	1
0	5825	1346.639551401763	2
0	5826	1347.020876766327	1
0	5833	1347.141893743062	0
0	5845	1350.763263099408	1
0	5849	1353.359629409396	0
0	5865	1357.363647469353	1
0	5868	1358.793020357986	2
0	5871	1360.362256099948	1
0	5876	1360.375335739454	0
0	5894	1362.791749844258	1
0	5896	1363.089821577275	0
0	5910	1363.845794398537	1
0	5914	1366.208151472283	2
0	5918	1366.620369845225	1
0	5923	1366.92662868458	0
0	5933	1367.773328688775	1
0	5937	1368.59759707827	2
0	5941	1370.518630156787	1
0	5946	1371.648624783599	0
0	5952	1371.74044587043	1
0	5954	1372.021646742602	0
0	5977	1374.691623723468	1
0	5981	1375.847403835771	2
0	5982	1377.882135124312	1
0	5989	1379.570747429951	0
0	5999	1380.931269324277	1
0	6001	1383.312989895074	0
0	6016	1387.697449030318	1
0	6019	1388.81590649431	0
0	6041	1395.918687203267	1
0	6044	1397.665408136447	0
0	6061	1404.557958703658	1
0	6062	1404.806410016308	0
0	6083	1408.434304965528	1
0	6087	1408.820943869788	2
0	6088	1410.367072171638	1
0	6094	1410.460032443526	0
0	6108	1412.639197223348	1
0	6109	1413.176663147624	0
0	6118	1414.235029628605	1
0	6122	1414.706595521806	2
0	6126	1416.826578642809	1
0	6135	1420.02291892352	0
0	6145	1423.044510980073	1
0	6146	1423.3465085923	0
0	6164	1426.170868619239	1
0	6166	1426.301569094437	2
0	6168	1426.846322673824	3
0	6169	1427.15713772676	2
0	6174	1427.406758960339	1
0	6182	1427.942429763225	2
0	6185	1430.286016759674	3
0	6186	1431.098787216978	2
0	6192	1431.853068953484	1
0	6198	1432.868421834822	0
0	6211	1434.661401936891	1
0	6213	1435.924523582224	0
0	6221	1437.514728934014	1
0	6223	1439.218704355145	0
0	6229	1439.222936201458	1
0	6230	1439.600765674312	0
0	6243	1441.00032863996	1
0	6244	1441.209295750782	0
0	6250	1445.359067613695	1
0	6252	1445.696240810109	2
0	6255	1448.573886648345	1
0	6261	1448.899163483347	2
0	6263	1450.285253544179	1
0	6269	1450.391430186565	2
0	6272	1451.591702957164	1
0	6279	1452.875356523285	0
0	6308	1457.321935782954	1
0	6309	1458.312020903104	0
0	6323	1463.299178074484	1
0	6326	1465.403882458723	0
0	6332	1466.668163945746	1
0	6333	1468.552364167685	0
0	6349	1471.560072667351	1
0	6351	1472.54451199426	2
0	6353	1472.635597543296	3
0	6356	1473.782363561226	2
0	6362	1475.269326273457	3
0	6365	1476.118323968996	2
0	6372	1478.545199548992	1
0	6380	1479.115978473846	0
0	6390	1481.544044729864	1
0	6397	1484.606692950575	0
0	6409	1485.026833616368	1
0	6410	1486.040447465973	0
0	6424	1488.065821346847	1
0	6425	1488.108372375284	0
0	6441	1492.742221989805	1
0	6442	1493.024796536355	0
0	6457	1496.423456238852	1
0	6458	1497.624534375858	0
0	6464	1498.355355158066	1
0	6465	1498.514310934479	0
0	6477	1499.042960299707	1
0	6478	1499.138227411697	0
0	6484	1499.197494273635	1
0	6488	1501.142543884996	0
0	6508	1503.061343630056	1
0	6510	1503.10037260227	2
0	6513	1504.819664894024	1
0	6518	1505.313763824997	0
0	6541	1511.410567190986	1
0	6542	1512.860413080303	0
0	6551	1514.104259348142	1
0	6553	1514.39128266324	0
0	6565	1515.408107896662	1
0	6567	1517.081486873178	0
0	6574	1519.028723668959	1
0	6577	1520.123767512128	0
0	6603	1528.211196293089	1
0	6605	1531.887275463517	0
0	6652	1542.775837354943	1
0	6655	1544.04101519634	0
0	6662	1544.268801609833	1
0	6664	1544.365380938454	2
0	6665	1545.335846181348	1
0	6670	1545.382229285245	0
0	6676	1545.415360529787	1
0	6677	1547.054137993272	0
0	6696	1552.172099527405	1
0	6700	1554.710436618138	0
0	6731	1560.777191914696	1
0	6734	1562.113240839245	0
0	6746	1562.519951978752	1
0	6749	1564.021582675685	0
0	6766	1568.751993196108	1
0	6768	1569.17663670336	2
0	6771	1570.928027763844	1
0	6782	1572.165034095949	0
0	6798	1574.250719612141	1
0	6801	1576.292597238994	0
0	6819	1579.889010801755	1
0	6823	1580.144153194805	2
0	6825	1580.558639724581	3
0	6827	1580.651912982594	4
0	6828	1581.082963525983	3
0	6837	1581.972477323372	2
0	6843	1582.508473081741	1
0	6848	1582.591433187313	0
0	6854	1582.669040365577	1
0	6855	1582.987752584452	0
0	6874	1585.3422798598	1
0	6875	1585.444788491364	0
0	6884	1587.855178059086	1
0	6885	1588.102164750963	0
0	6929	1599.043396327209	1
0	6930	1599.222594781918	0
0	6944	1603.392979770806	1
0	6945	1603.578888105847	0
0	6951	1603.764970197403	1
0	6956	1605.762475503652	0
0	7050	1639.5884544713	1
0	7053	1641.087947590308	0
0	7070	1647.098418034868	1
0	7071	1648.022178778329	0
0	7077	1649.022171321007	1
0	7082	1651.123140528353	0
0	7186	1681.734302598176	1
0	7187	1682.398196970176	0
0	7211	1699.308104027737	1
0	7216	1700.60547890547	0
0	7223	1702.440023632581	1
0	7225	1705.20201024751	0
0	7231	1705.631678713975	1
0	7234	1706.921427038088	0
0	7247	1709.168892350903	1
0	7251	1711.361040752134	2
0	7252	1711.828403131796	1
0	7257	1713.104726291067	0
0	7279	1715.69186178619	1
0	7285	1717.763747365701	0
0	7303	1720.882988090465	1
0	7305	1720.950010100183	2
0	7306	1721.020769598713	1
0	7311	1721.226549434425	0
0	7321	1723.241701688928	1
0	7323	1723.459966728493	0
0	7343	1725.209039970229	1
0	7344	1726.103858666986	0
0	7355	1727.640179543615	1
0	7359	1729.147732615218	0
0	7366	1729.741480940543	1
0	7368	1732.017899435807	0
0	7411	1739.932911786817	1
0	7414	1741.338125523309	2
0	7415	1741.489676522734	1
0	7421	1742.115075099915	0
0	7427	1744.622448510349	1
0	7429	1747.263928192539	2
0	7431	1747.590684371433	3
0	7434	1748.929952734884	2
0	7439	1750.068423808578	1
0	7444	1751.367342960436	0
0	7450	1752.716103523027	1
0	7451	1753.039326351805	0
0	7472	1759.05512928102	1
0	7473	1759.254639532882	0
0	7479	1759.881822728958	1
0	7481	1760.186352584229	2
0	7482	1761.818582283687	1
0	7487	1762.223684785931	0
0	7499	1764.970276230775	1
0	7502	1767.507492411289	0
0	7517	1770.665950473319	1
0	7518	1770.721081949198	0
0	7534	1779.094782234163	1
0	7535	1779.736394415895	0
0	7559	1783.387546041184	1
0	7560	1783.808022499136	0
0	7580	1788.071460765214	1
0	7581	1789.037197697862	0
0	7611	1798.195231302131	1
0	7613	1798.281152453462	2
0	7614	1798.398364427874	1
0	7624	1801.327038439212	0
0	7631	1802.454647183726	1
0	7632	1802.543723594037	0
0	7705	1819.676504888615	1
0	7707	1820.981048490601	2
0	7712	1822.782351868402	3
0	7713	1824.120083797272	2
0	7721	1825.488390049212	1
0	7726	1825.90164146228	0
0	7739	1826.896342116047	1
0	7740	1827.11630868095	0
0	7749	1827.686432106515	1
0	7751	1828.131474152753	2
0	7754	1829.098024105827	1
0	7759	1831.022620992175	0
0	7763	1831.331209674785	1
0	7767	1831.731530716431	2
0	7768	1831.794639803202	1
0	7772	1833.01798927555	2
0	7774	1833.307682950914	3
0	7778	1833.578965247945	2
0	7782	1835.403687547136	3
0	7789	1838.173612953615	2
0	7796	1840.154470957927	1
0	7803	1843.442250305127	0
0	7816	1845.810908316673	1
0	7819	1846.246841602586	0
0	7830	1846.604144553588	1
0	7832	1846.648956692514	2
0	7833	1847.215285673076	1
0	7840	1848.099065075977	0
0	7844	1848.591416500724	1
0	7851	1850.65914594903	0
0	7875	1858.423143498057	1
0	7877	1859.089831588939	2
0	7878	1859.229994978563	1
0	7884	1859.857259918404	2
0	7885	1860.449976660402	1
0	7890	1861.261598511918	0
0	7912	1868.117331549325	1
0	7913	1868.120302994113	0
0	7925	1870.563217456686	1
0	7929	1870.973119830472	2
0	7930	1871.254619754532	1
0	7937	1872.198896797374	0
0	7959	1877.333911769234	1
0	7964	1878.874530347262	0
0	7971	1880.811495256186	1
0	7972	1881.287130873161	0
0	7997	1885.057628372619	1
0	7999	1885.187515122712	2
0	8000	1885.579628890369	1
0	8005	1885.599191485977	0
0	8019	1887.463425605493	1
0	8020	1887.960523685005	0
0	8026	1888.042409510701	1
0	8028	1890.594375596858	0
0	8039	1891.665835173172	1
0	8041	1891.850340033039	2
0	8045	1893.926481958146	1
0	8050	1894.256901957705	0
0	8106	1912.96814146603	1
0	8108	1913.244824580053	2
0	8110	1915.840599915036	1
0	8120	1916.849678450374	0
0	8161	1923.976229774875	1
0	8163	1925.469141045451	2
0	8166	1928.820351488597	1
0	8172	1929.965687619315	0
0	8179	1930.035767657465	1
0	8181	1930.123543962348	0
0	8192	1932.142168796967	1
0	8193	1932.284840156922	0
0	8227	1947.154825140616	1
0	8229	1947.913190053903	2
0	8230	1949.26490917375	1
0	8235	1949.303555884904	0
0	8241	1953.780625007284	1
0	8243	1954.240755248259	2
0	8245	1955.028430757169	3
0	8253	1957.522438820951	4
0	8254	1957.778751191503	3
0	8259	1958.436827498966	2
0	8265	1960.564487724772	3
0	8267	1961.025743836508	4
0	8268	1961.046610973171	3
0	8272	1961.073356330813	4
0	8274	1961.540459305293	5
0	8277	1961.908765942962	4
0	8282	1962.637989824006	3
0	8287	1963.798859873464	2
0	8293	1965.468065933799	3
0	8298	1966.206379743134	2
0	8303	1966.773726770104	1
0	8308	1968.133097816607	0
0	8312	1970.185587428564	1
0	8314	1970.93886989059	2
0	8317	1971.417375885067	1
0	8324	1973.005208289773	0
0	8332	1973.598161841558	1
0	8334	1974.740899107789	2
0	8336	1976.170901725109	3
0	8338	1977.312738793771	2
0	8344	1978.249132801831	1
0	8350	1979.219975931191	0
0	8362	1981.43791552009	1
0	8368	1984.296826283062	0
0	8391	1989.634252906786	1
0	8392	1989.796831623506	0
0	8409	1991.868410526232	1
0	8411	1991.958450006378	2
0	8414	1995.69751170393	1
0	8420	1996.639295436324	0
0	8441	1999.905936477661	1
0	8442	2000.09231566123	0
0	8451	2000.254333589386	1
0	8454	2001.305467242761	0
0	8474	2005.626609399531	1
0	8476	2006.624468820348	0
0	8492	2009.100650771695	1
0	8494	2009.251294220408	0
0	8501	2010.568776352994	1
0	8502	2014.708947333498	0
0	8508	2016.484175207147	1
0	8509	2016.604926970517	0
0	8520	2017.94097330536	1
0	8525	2019.374624636513	0
0	8533	2019.631884069068	1
0	8535	2021.400189369485	0
0	8544	2021.627245966776	1
0	8547	2022.978961486694	0
0	8588	2037.020337331227	1
0	8590	2037.383265809245	2
0	8593	2039.977505497911	1
0	8598	2040.78606647048	0
0	8602	2041.203864301308	1
0	8612	2045.99891282737	2
0	8613	2046.568607717734	1
0	8618	2048.558281375823	0
0	8629	2048.646781164053	1
0	8630	2048.795405869592	0
0	8634	2049.064769756116	1
0	8638	2049.806666244573	2
0	8641	2050.692378193004	3
0	8644	2051.591426295279	2
0	8650	2052.722616955072	1
0	8655	2052.864969797599	0
0	8698	2077.501540599246	1
0	8699	2077.550639224938	0
0	8721	2086.258375715037	1
0	8722	2086.269931691523	0
0	8728	2087.773271377372	1
0	8730	2088.187225730418	2
0	8731	2088.441258924903	1
0	8736	2088.583580253231	0
0	8753	2091.734911125826	1
0	8754	2091.855371784882	0
0	8762	2093.186682319375	1
0	8763	2094.137785623585	0
0	8839	2112.284757037272	1
0	8843	2113.179949037642	2
0	8845	2113.581316501831	3
0	8848	2113.996221165255	2
0	8854	2114.964208759607	1
0	8859	2115.202086065401	0
0	8881	2117.978194764704	1
0	8883	2120.388573489228	2
0	8886	2120.844531267464	1
0	8893	2121.408657852752	0
0	8906	2123.207790593467	1
0	8911	2125.814763445095	0
0	8922	2127.278486755454	1
0	8925	2128.581463941138	0
0	8947	2134.413114245849	1
0	8948	2135.121276290857	0
0	8978	2142.136962663424	1
0	8980	2142.732368419168	0
0	8988	2143.982661129862	1
0	8995	2147.927724038701	0
0	9017	2150.986813874013	1
0	9018	2151.871507700198	0
0	9058	2160.525445900925	1
0	9059	2161.20370978573	0
0	9121	2188.000011028332	1
0	9123	2188.882069249011	0
0	9132	2191.043912750495	1
0	9133	2193.143069924219	0
0	9153	2195.094055365386	1
0	9156	2196.221787590121	0
0	9175	2202.845300043651	1
0	9178	2203.950684192747	0
0	9189	2210.641055518457	1
0	9198	2215.808774528235	0
0	9205	2216.488448413603	1
0	9206	2217.502648705506	0
0	9219	2219.641335810223	1
0	9220	2221.450628908041	0
0	9226	2221.593677545416	1
0	9228	2222.178785365755	0
0	9274	2230.426916731294	1
0	9278	2233.542181385849	2
0	9279	2235.23787944684	1
0	9284	2235.489049373297	0
0	9308	2240.064777978768	1
0	9312	2241.824428249935	2
0	9314	2242.435405712353	3
0	9316	2243.11363604325	4
0	9318	2244.659250897758	3
0	9325	2245.275698709721	2
0	9330	2245.635038433008	1
0	9336	2247.50052462846	0
0	9367	2255.824562413292	1
0	9371	2257.678501702679	0
0	9424	2269.55254661084	1
0	9426	2269.730462743833	2
0	9427	2270.233239747743	1
0	9432	2270.354345952167	0
0	9438	2270.639228312265	1
0	9441	2271.921077644706	0
0	9447	2273.944057946188	1
0	9449	2274.764199783293	2
0	9453	2276.278789208886	3
0	9455	2278.546840229495	4
0	9456	2278.650603473609	3
0	9460	2280.403160880708	4
0	9462	2281.412270019131	5
0	9466	2283.11872782148	6
0	9472	2287.121165186864	5
0	9478	2287.363282342255	6
0	9480	2288.097661704856	5
0	9488	2289.106950585262	4
0	9494	2289.514787757105	3
0	9500	2289.643522119563	4
0	9501	2289.988274810621	3
0	9506	2291.835284923025	2
0	9512	2292.718109221565	3
0	9513	2292.993812026452	2
0	9519	2294.636345456406	1
0	9524	2295.223703526153	0
0	9554	2301.735984071578	1
0	9556	2301.988225541952	2
0	9558	2302.924603966442	1
0	9565	2303.461076176786	0
0	9594	2309.872916871008	1
0	9597	2310.857590534017	0
0	9634	2318.863504006238	1
0	9635	2318.950908719519	0
0	9641	2318.997606343369	1
0	9642	2319.054606353322	0
0	9669	2325.554157439869	1
0	9671	2325.576391568315	2
0	9672	2325.702922788234	1
0	9678	2328.078232588419	0
0	9694	2330.457675054684	1
0	9696	2330.557758377157	2
0	9698	2330.765398852499	3
0	9699	2330.999901564995	2
0	9706	2331.146936364597	3
0	9707	2332.116313792276	2
0	9714	2334.150919707189	1
0	9721	2334.237108702483	0
0	9742	2340.255572637116	1
0	9745	2341.706173227941	0
0	9791	2358.603608753081	1
0	9794	2359.795535960152	2
0	9800	2361.269169876314	3
0	9803	2361.88541896702	2
0	9809	2362.938532721508	3
0	9810	2363.92302460967	2
0	9817	2364.585616486036	1
0	9822	2366.340340059232	0
0	9839	2369.210483459169	1
0	9843	2371.228804350602	0
0	9858	2374.220432913172	1
0	9862	2374.775671143803	2
0	9863	2374.856072597222	1
0	9870	2375.688091657796	0
0	9923	2394.173582056325	1
0	9924	2396.006340343492	0
0	9937	2398.248230942451	1
0	9938	2398.431941315605	0
0	9983	2416.023202212842	1
0	9989	2420.680513177946	2
0	9990	2421.117181771242	1
0	9996	2421.754712036759	2
0	9997	2422.213178651227	1
0	10002	2422.957358221325	0
0	10009	2423.774436402408	1
0	10014	2425.242923186396	2
0	10015	2425.525059818425	1
0	10021	2425.576337701642	2
0	10022	2427.255603585139	1
0	10028	2427.568375155702	2
0	10030	2428.015044744853	1
0	10036	2428.365142270116	2
0	10037	2429.267247927274	1
0	10055	2436.293611727649	2
0	10058	2436.587632133795	1
0	10066	2438.346295489463	0
0	10082	2439.45944514915	1
0	10084	2440.202443673211	2
0	10085	2440.258095203673	1
0	10090	2441.254726976564	0
0	10110	2446.841525584411	1
0	10117	2450.91435798855	0
0	10124	2450.950091685583	1
0	10125	2451.011984701196	0
0	10140	2453.300417760518	1
0	10142	2453.832086920996	2
0	10148	2455.451367928984	3
0	10149	2455.518517178159	2
0	10154	2458.003143261707	1
0	10159	2458.387956100384	0
0	10176	2463.171308018273	1
0	10181	2464.647757404133	2
0	10183	2465.177662585752	3
0	10184	2465.273448572516	2
0	10190	2466.132079009673	1
0	10195	2466.171228094752	0
0	10265	2486.161989590533	1
0	10269	2486.690660229406	2
0	10274	2487.377341848847	3
0	10276	2488.00416217548	4
0	10278	2488.213061680785	5
0	10279	2488.788608226253	4
0	10286	2489.30913720529	3
0	10292	2489.756177178697	2
0	10300	2491.947196196349	1
0	10306	2492.122874380683	2
0	10307	2492.396497122596	1
0	10312	2493.507254064952	0
0	10325	2495.130871635096	1
0	10327	2496.853024582419	0
0	10369	2517.188934079877	1
0	10370	2517.464433020829	0
0	10391	2525.278186447877	1
0	10395	2526.240513986589	2
0	10400	2528.2010913436	3
0	10403	2530.82316109745	2
0	10409	2534.18443519285	3
0	10410	2534.433626628003	2
0	10416	2534.733613093948	3
0	10421	2536.570469775441	4
0	10423	2539.791229429152	5
0	10424	2540.231831132439	4
0	10428	2541.308496039459	5
0	10431	2541.672183701208	4
0	10439	2544.249067026396	5
0	10444	2547.905725476251	4
0	10450	2548.422766805106	3
0	10455	2548.474035845675	2
0	10460	2548.685492314956	1
0	10468	2550.584046063574	2
0	10469	2550.9875041901	1
0	10475	2551.73964851974	0
0	10498	2553.445545356539	1
0	10501	2553.940990614931	0
0	10510	2554.074772797508	1
0	10512	2554.13774224954	2
0	10517	2555.121124939661	1
0	10522	2555.448853518021	0
0	10533	2556.263541697285	1
0	10534	2556.780987434566	0
0	10543	2559.583564879335	1
0	10544	2559.7291141335	0
0	10550	2559.998332342023	1
0	10552	2560.800627066931	0
0	10558	2560.928503800127	1
0	10560	2561.378956738904	0
0	10569	2562.908347186924	1
0	10572	2565.102665760709	0
0	10595	2576.957180569191	1
0	10598	2577.74371699701	0
0	10646	2595.268336537831	1
0	10655	2599.342219561144	0
0	10661	2599.768927437155	1
0	10662	2599.787583569529	0
0	10668	2601.246233906669	1
0	10669	2601.285735056229	0
0	10678	2604.516888766298	1
0	10684	2605.77175690631	0
0	10729	2614.82143063209	1
0	10730	2616.159765971574	0
0	10745	2619.493536279371	1
0	10747	2619.601490986738	2
0	10750	2620.406416288737	1
0	10760	2621.700025571395	0
0	10771	2623.752736021881	1
0	10772	2624.099974330712	0
0	10783	2626.258973719498	1
0	10792	2634.079583315692	2
0	10793	2634.282464087491	1
0	10799	2634.997049316125	0
0	10813	2635.930673019822	1
0	10815	2636.908989056896	2
0	10824	2639.47053794877	3
0	10826	2639.69684578589	4
0	10828	2640.210547688079	5
0	10829	2643.229124121811	4
0	10836	2644.77991067186	3
0	10841	2644.987088869574	2
0	10845	2645.594567576484	3
0	10849	2646.324994436865	2
0	10854	2646.437818609794	1
0	10859	2648.677459868124	0
0	10875	2649.595516126401	1
0	10878	2649.807581202593	2
0	10880	2650.340868330493	1
0	10886	2650.39022992303	2
0	10888	2651.263246740249	1
0	10895	2652.260360073193	2
0	10896	2652.976040854625	1
0	10901	2652.983018245906	0
0	10966	2671.430109738427	1
0	10970	2673.595081218475	0
0	10976	2674.57457997748	1
0	10977	2675.396684424669	0
0	11001	2680.600105717234	1
0	11002	2681.185012902784	0
0	11016	2684.44453323885	1
0	11018	2684.532012274291	2
0	11020	2684.586101264243	3
0	11024	2687.028389629642	4
0	11025	2688.805152400119	3
0	11031	2689.761905249348	2
0	11036	2691.228333352788	1
0	11043	2694.45111377877	0
0	11055	2695.447429877525	1
0	11058	2697.036686245349	0
0	11064	2697.271473911296	1
0	11065	2697.520631322975	0
0	11081	2700.097161460185	1
0	11083	2701.080775176966	2
0	11084	2701.246969854609	1
0	11092	2701.708163147315	2
0	11095	2703.78588014687	1
0	11100	2704.405650625256	0
0	11111	2705.742869334628	1
0	11113	2706.180948757982	0
0	11122	2707.658221467144	1
0	11123	2707.99625473784	0
0	11127	2708.405536353664	1
0	11131	2708.55066520734	2
0	11132	2708.561777074505	1
0	11141	2712.517655548809	0
0	11157	2714.967692664024	1
0	11160	2716.125092063457	2
0	11163	2717.249427882919	1
0	11169	2718.010562555629	0
0	11181	2719.825245094724	1
0	11184	2719.901746422281	0
0	11190	2720.672683071877	1
0	11194	2724.389132260725	2
0	11195	2725.405229296214	1
0	11202	2726.35771018486	2
0	11203	2726.544594871002	1
0	11211	2727.926355127066	2
0	11212	2727.990069863054	1
0	11217	2728.132001899677	0
0	11231	2729.857850601199	1
0	11233	2731.322290899245	0
0	11239	2731.482576229181	1
0	11242	2732.685251093618	2
0	11246	2734.293887867286	1
0	11251	2734.855562941067	0
0	11274	2738.803315774209	1
0	11275	2739.662577595056	0
0	11284	2741.662607753199	1
0	11287	2742.813015175195	0
0	11296	2745.198146717543	1
0	11298	2745.271645007704	0
0	11316	2746.517362917697	1
0	11319	2748.807724757177	0
0	11325	2748.900478346905	1
0	11327	2749.738471643767	2
0	11329	2750.480470745769	3
0	11330	2750.774476028473	2
0	11334	2751.559118009566	3
0	11341	2754.833491089458	2
0	11346	2755.016961321541	1
0	11352	2756.481129779681	2
0	11353	2757.207553571301	1
0	11359	2758.870027239749	2
0	11361	2759.303394722398	3
0	11362	2759.868473469903	2
0	11367	2761.185816991218	1
0	11371	2764.036433801637	2
0	11376	2765.77615519106	3
0	11378	2765.819837148935	4
0	11379	2765.89589002598	3
0	11384	2766.547586543658	2
0	11392	2768.316256152411	3
0	11394	2768.958767315428	2
0	11400	2769.639503938166	3
0	11403	2772.368394213528	2
0	11410	2773.833858189022	1
0	11415	2773.874419668944	0
0	11429	2776.044152821812	1
0	11430	2776.33904771589	0
0	11470	2783.629315245458	1
0	11474	2783.8829070256	2
0	11475	2784.487484174533	1
0	11482	2786.137239716287	0
0	11499	2790.900509898933	1
0	11501	2791.519230351309	2
0	11504	2791.598695976062	1
0	11510	2793.558615264801	0
0	11526	2797.959829859758	1
0	11530	2798.8224829005	0
0	11544	2803.440304250994	1
0	11546	2803.47639155236	2
0	11547	2803.908378062387	1
0	11552	2804.370069347379	0
0	11591	2824.076369002669	1
0	11592	2824.341367397885	0
0	11604	2825.421921557236	1
0	11605	2826.196146439273	0
0	11649	2836.025282869523	1
0	11654	2836.89557592104	0
0	11696	2848.485212378492	1
0	11698	2849.636647419749	2
0	11699	2850.364103055647	1
0	11704	2851.20502214482	0
0	11710	2851.91358041748	1
0	11711	2852.624141739172	0
0	11756	2863.984734516099	1
0	11759	2866.732044376429	0
0	11785	2877.443229299478	1
0	11789	2880.213209261929	0
0	11800	2882.049838788765	1
0	11803	2883.64356769829	0
0	11816	2884.879404089527	1
0	11817	2884.909353194831	0
0	11823	2886.371877334686	1
0	11825	2886.979950275786	0
0	11840	2892.500718217018	1
0	11841	2892.545134802969	0
0	11890	2910.750935419669	1
0	11891	2911.585981995445	0
0	11903	2913.49934676895	1
0	11905	2913.611030716407	2
0	11908	2914.407451293306	1
0	11914	2915.955213407519	0
0	11942	2930.266939437821	1
0	11944	2930.517515162058	0
0	11960	2936.372770142504	1
0	11961	2936.401602915769	0
0	11973	2936.880092316454	1
0	11975	2937.727632888905	0
0	12006	2947.968527798605	1
0	12007	2948.39997255234	0
0	12014	2948.44398295567	1
0	12016	2950.188619723416	2
0	12017	2950.348009529882	1
0	12024	2950.906463452645	2
0	12026	2951.21152568037	3
0	12028	2951.258238133135	4
0	12029	2952.279377579833	3
0	12037	2953.031453966576	2
0	12042	2953.195241726427	1
0	12048	2954.026746575162	0
0	12068	2959.460136426711	1
0	12069	2959.768128570706	0
0	12075	2959.790320059579	1
0	12076	2960.281343660228	0
0	12100	2971.264484249639	1
0	12102	2971.679375725706	2
0	12105	2972.2788923571	1
0	12110	2973.17526648567	0
0	12119	2976.049463164374	1
0	12124	2978.085143150309	2
0	12126	2978.902018220315	1
0	12133	2979.621170647908	2
0	12134	2980.199442781145	1
0	12143	2980.937068975724	2
0	12150	2981.992402696384	1
0	12156	2983.155815865431	0
0	12168	2986.991317902961	1
0	12170	2988.963659845895	2
0	12172	2989.916905788964	3
0	12174	2990.137978552191	4
0	12176	2990.641410110906	5
0	12177	2990.816406402885	4
0	12182	2990.902649679247	3
0	12188	2990.945426741482	4
0	12189	2991.069684632122	3
0	12195	2992.436086066383	2
0	12201	2993.075228822858	3
0	12202	2993.501712930239	2
0	12210	2996.576385238827	3
0	12218	2999.507737640859	4
0	12220	2999.777076745529	3
0	12225	3000.397812665526	2
0	12229	3000.439559713102	3
0	12234	3003.741290050697	2
0	12243	3004.808123374515	3
0	12244	3005.037692584993	2
0	12249	3005.084852819802	1
0	12255	3007.192647700323	0
0	12280	3014.126836800027	1
0	12282	3014.451569020925	2
0	12286	3016.192218818534	3
0	12290	3017.507558674532	4
0	12294	3019.085990014323	3
0	12301	3020.131100712365	4
0	12303	3020.573428489771	5
0	12304	3021.004483509341	4
0	12313	3024.678071357543	5
0	12315	3025.369896259601	6
0	12322	3029.294691901402	5
0	12327	3029.30159348883	4
0	12332	3029.361546688696	3
0	12336	3029.803670690928	4
0	12343	3031.298351116214	3
0	12350	3033.794326755372	2
0	12356	3034.005904722837	3
0	12358	3034.901141676041	2
0	12364	3035.400226610289	1
0	12370	3036.177864066293	2
0	12373	3036.528986028649	1
0	12378	3036.636302400129	0
0	12391	3038.50711269979	1
0	12393	3040.210193987859	2
0	12395	3041.267652256976	3
0	12396	3041.3843169862	2
0	12402	3041.604405585573	3
0	12403	3041.677142299635	2
0	12409	3042.902171258762	3
0	12411	3043.525530901824	2
0	12416	3043.555529728692	1
0	12423	3044.359931602892	0
0	12432	3045.213282243485	1
0	12437	3046.363362487479	2
0	12440	3047.552315761645	1
0	12445	3048.76293869096	0
0	12461	3049.723869021237	1
0	12463	3049.995254892538	2
0	12466	3050.44579062536	3
0	12467	3051.623142292001	2
0	12473	3054.227194599049	3
0	12474	3054.709384380001	2
0	12482	3055.553704196472	3
0	12483	3055.587848070465	2
0	12487	3056.607996543755	3
0	12492	3057.69674334459	4
0	12494	3058.194096634981	3
0	12499	3058.257208296289	2
0	12504	3058.666918525251	1
0	12508	3059.469112646062	2
0	12514	3060.924455202652	1
0	12520	3062.178702491636	2
0	12521	3062.433839232763	1
0	12529	3063.85538408498	2
0	12530	3064.185571580108	1
0	12539	3065.817940424893	2
0	12540	3067.528037362075	1
0	12545	3067.871960233864	0
0	12557	3068.899966985045	1
0	12558	3069.870743762885	0
0	12565	3070.006545383611	1
0	12566	3070.349226310474	0
0	12577	3070.54454360489	1
0	12580	3071.707108132048	0
0	12591	3071.94749907859	1
0	12594	3073.020949204094	0
0	12601	3073.422995637309	1
0	12602	3073.527122924426	0
0	12609	3073.980620978643	1
0	12611	3074.430131095369	2
0	12612	3074.789514169473	1
0	12620	3075.511107000097	2
0	12621	3075.556646656275	1
0	12625	3077.215851201398	2
0	12627	3078.645851876866	3
0	12638	3080.523079597671	4
0	12639	3080.792037642805	3
0	12644	3080.815100263764	2
0	12650	3080.883327033906	3
0	12651	3081.312970954327	2
0	12658	3082.350760395749	1
0	12664	3082.370612234562	2
0	12666	3083.125961814794	1
0	12672	3083.515755747693	0
0	12684	3084.196670660004	1
0	12687	3084.473695121004	0
0	12712	3087.001790430371	1
0	12717	3091.851729430695	0
0	12723	3092.261888340814	1
0	12724	3092.592783669162	0
0	12737	3095.084557043231	1
0	12739	3095.475694491888	0
0	12747	3096.503129523173	1
0	12748	3096.80871605862	0
0	12789	3106.219696495191	1
0	12790	3106.417502218786	0
0	12799	3108.159040698591	1
0	12804	3110.062078706996	0
0	12817	3111.888525004855	1
0	12818	3112.237912032812	0
0	12827	3112.528188303313	1
0	12831	3113.504202349854	0
0	12837	3113.78486048784	1
0	12840	3115.681112924303	0
0	12853	3119.181221385981	1
0	12855	3119.582564421023	0
0	12878	3130.209942227454	1
0	12882	3131.476549290277	2
0	12883	3132.827168095937	1
0	12892	3133.806784020694	2
0	12894	3133.893945624377	3
0	12895	3135.255684574546	2
0	12903	3137.680764931068	1
0	12908	3137.801465804918	0
0	12944	3148.198993151657	1
0	12945	3149.037362445343	0
0	12955	3149.384676723193	1
0	12957	3149.56235515227	0
0	12982	3153.42602270502	1
0	12986	3155.618471224008	2
0	12990	3156.565010000134	3
0	12991	3157.146459445329	2
0	12997	3157.859490211428	3
0	13000	3160.520707364406	2
0	13007	3163.329754362612	1
0	13012	3164.430829737234	0
0	13029	3166.622324180492	1
0	13031	3166.723213642514	2
0	13035	3167.369847335937	3
0	13037	3168.962598496674	2
0	13043	3169.513427075466	1
0	13048	3169.872919793777	0
0	13070	3173.627214148906	1
0	13072	3173.800704938897	2
0	13078	3175.328190713909	1
0	13083	3175.812119598958	0
0	13097	3179.436809365669	1
0	13101	3181.689547444249	0
0	13108	3181.834559224066	1
0	13110	3183.846979388608	2
0	13111	3186.181164584687	1
0	13116	3186.941771470305	0
0	13122	3187.798424393409	1
0	13125	3188.431323450737	2
0	13126	3188.7867134195	1
0	13133	3191.648036289666	0
0	13140	3194.538644450001	1
0	13141	3194.694477671652	0
0	13158	3198.280197962435	1
0	13160	3199.701567454674	0
0	13187	3210.145508397155	1
0	13190	3211.224161491225	0
0	13212	3215.32631325126	1
0	13213	3215.505008274839	0
0	13240	3219.661625670087	1
0	13244	3221.824280222424	2
0	13248	3223.282260325245	3
0	13250	3224.001683616383	4
0	13252	3225.905086330677	5
0	13253	3226.600098343815	4
0	13258	3226.818698947366	3
0	13263	3226.933196959296	2
0	13270	3228.605293586499	1
0	13275	3228.84545902203	0
0	13290	3231.919867040312	1
0	13291	3232.198556146817	0
0	13311	3235.84347470042	1
0	13312	3236.484840060812	0
0	13333	3239.861462480034	1
0	13335	3240.712276485251	2
0	13337	3241.748852630866	1
0	13344	3244.814819914056	0
0	13350	3246.05713453062	1
0	13353	3246.548525428291	2
0	13354	3247.340419102948	1
0	13360	3248.608916794874	0
0	13380	3250.635862314943	1
0	13383	3251.468076118813	0
0	13389	3251.471156081999	1
0	13390	3251.529727977932	0
0	13396	3251.857539969768	1
0	13397	3252.425648266933	0
0	13401	3252.460257426088	1
0	13405	3253.673985005526	2
0	13406	3254.226059742647	1
0	13412	3255.199184957456	2
0	13416	3256.612446986046	1
0	13423	3256.968191235638	0
0	13427	3259.536383938218	1
0	13432	3261.201518256701	2
0	13435	3262.072554956201	3
0	13436	3262.473964980449	2
0	13445	3263.048328695059	3
0	13446	3263.392669651232	2
0	13452	3264.290083187459	3
0	13453	3264.494590693387	2
0	13458	3264.873079091457	1
0	13462	3264.985392653805	2
0	13465	3265.955471353105	1
0	13469	3266.258139926133	2
0	13473	3266.531436857623	3
0	13474	3266.705168100718	2
0	13479	3267.816540590626	1
0	13483	3268.480565971678	2
0	13487	3269.207946260182	3
0	13489	3269.420415396811	2
0	13497	3273.691770168477	3
0	13498	3274.355414690349	2
0	13507	3277.932782066235	3
0	13510	3278.626239741683	2
0	13515	3278.669978400994	1
0	13522	3280.642649808048	0
0	13547	3283.5181588445	1
0	13550	3285.210497817232	0
0	13571	3288.862569608553	1
0	13572	3290.568082692619	0
0	13588	3293.169312650659	1
0	13593	3294.821214059961	0
0	13609	3298.433780342824	1
0	13611	3301.542070292095	2
0	13613	3301.547480715973	3
0	13617	3301.83433880466	4
0	13620	3303.392638822052	3
0	13625	3303.449783819127	2
0	13631	3303.618798183278	1
0	13638	3304.283056694352	2
0	13640	3304.931060653635	1
0	13650	3305.610913680251	0
0	13661	3306.023945830253	1
0	13663	3306.051963303788	2
0	13664	3306.445313994991	1
0	13670	3306.566727483829	2
0	13671	3307.078710407561	1
0	13677	3308.595247763874	0
0	13683	3309.008460880871	1
0	13686	3309.727482739669	0
0	13692	3310.202239109007	1
0	13694	3310.342306874649	2
0	13697	3313.909813077969	3
0	13698	3314.843608654811	2
0	13712	3317.949805663578	3
0	13713	3318.28098875049	2
0	13720	3318.70248709701	1
0	13725	3320.542076634147	0
0	13744	3325.20248530608	1
0	13745	3326.557040047014	0
0	13764	3330.739589967705	1
0	13765	3332.536758266037	0
0	13821	3348.072978085785	1
0	13823	3348.253650659846	2
0	13824	3348.76815088677	1
0	13829	3349.493935344069	0
0	13857	3355.119749252217	1
0	13859	3355.92670351949	2
0	13860	3356.291403679448	1
0	13868	3357.491017544187	0
0	13908	3365.777282642923	1
0	13910	3367.942222785676	0
0	14019	3396.030293747357	1
0	14021	3396.045517609558	2
0	14023	3396.190563346961	3
0	14024	3396.934693797156	2
0	14029	3397.540053455789	1
0	14033	3399.842372211739	2
0	14038	3403.091157708186	1
0	14045	3407.372085128012	2
0	14048	3409.495611940989	1
0	14057	3411.742526547879	0
0	14064	3412.136419385278	1
0	14065	3412.383387743515	0
0	14071	3412.587097218472	1
0	14072	3413.190138641667	0
0	14078	3413.302264235678	1
0	14081	3413.408597910447	2
0	14082	3414.469964829931	1
0	14089	3414.661500575529	0
0	14112	3417.379891582343	1
0	14113	3417.648742173729	0
0	14137	3422.926287529845	1
0	14146	3426.158695918132	0
0	14152	3426.215698660704	1
0	14156	3428.359376330547	0
0	14172	3430.533891688	1
0	14176	3431.16357312582	2
0	14177	3432.09442370596	1
0	14183	3433.1732052276	0
0	14193	3433.277797523481	1
0	14196	3435.254404157537	0
0	14210	3438.210927510871	1
0	14211	3438.224080520027	0
0	14223	3440.483108597322	1
0	14225	3441.707382183715	2
0	14226	3442.376300754063	1
0	14232	3445.261094522997	0
0	14239	3445.646366349509	1
0	14241	3446.09336460869	0
0	14248	3446.587670376593	1
0	14249	3447.355811927847	0
0	14308	3463.528963732656	1
0	14310	3464.102716505757	2
0	14311	3464.142424591825	1
0	14319	3464.760567251019	0
0	14393	3487.805896387284	1
0	14395	3490.137317050846	2
0	14399	3492.360834263476	3
0	14404	3493.532160165735	4
0	14406	3494.464382562568	5
0	14408	3495.793588293331	6
0	14409	3496.308185619377	5
0	14415	3498.689776162003	4
0	14424	3499.923168711476	3
0	14429	3500.048201684201	2
0	14434	3500.348212072542	1
0	14439	3501.099995179963	0
0	14443	3502.135054153136	1
0	14447	3507.221783963476	0
0	14453	3507.619640379499	1
0	14454	3507.688691723216	0
0	14458	3508.188223336835	1
0	14460	3509.454536944664	2
0	14462	3512.799649049026	3
0	14464	3513.271942727778	4
0	14468	3515.316164730783	5
0	14473	3516.296921792689	4
0	14480	3517.438635301751	5
0	14481	3517.586949888852	4
0	14487	3517.883988775185	3
0	14494	3518.734522603327	4
0	14495	3519.501455743106	3
0	14503	3520.434562000916	2
0	14508	3520.763007916425	1
0	14514	3521.479373799645	2
0	14518	3523.051142198476	1
0	14523	3523.646374048055	0
0	14533	3524.412734997165	1
0	14535	3525.401846392877	2
0	14538	3527.042856857288	1
0	14544	3529.28586867289	0
0	14560	3529.654294112851	1
0	14562	3529.896800843954	2
0	14564	3530.910959291164	1
0	14570	3531.172182290811	0
0	14598	3535.766881329129	1
0	14599	3535.831981005508	0
0	14603	3535.858925143543	1
0	14607	3536.365724880951	2
0	14611	3537.643150869065	1
0	14617	3538.56190815971	0
0	14625	3542.900117037772	1
0	14628	3544.595426955131	0
0	14635	3545.954334199505	1
0	14636	3546.4204847555	0
0	14647	3547.468383412743	1
0	14651	3549.434221311934	0
0	14673	3553.019702607717	1
0	14678	3553.459057814077	0
0	14689	3554.417503641581	1
0	14691	3555.434220501213	2
0	14694	3558.949669992	1
0	14698	3559.761345320682	2
0	14701	3562.059737701914	1
0	14706	3563.42813937657	0
0	14714	3566.958015695022	1
0	14718	3567.725808803681	2
0	14719	3567.90119508541	1
0	14725	3569.760088872414	2
0	14727	3569.986864471802	3
0	14728	3570.907230496692	2
0	14732	3572.572480161285	3
0	14734	3572.912343784574	4
0	14745	3575.844254741526	5
0	14747	3577.027772864337	4
0	14756	3577.528266859043	5
0	14757	3578.628746937219	4
0	14764	3579.571608440146	3
0	14771	3580.866657204143	4
0	14772	3580.948523906374	3
0	14777	3581.389874167423	2
0	14783	3581.404236982574	3
0	14787	3581.887127996595	2
0	14792	3582.268880120818	1
0	14796	3583.954867721488	2
0	14798	3585.50962948571	3
0	14805	3587.402981096414	2
0	14810	3588.221252528095	1
0	14814	3588.480776000602	2
0	14816	3588.863212871416	3
0	14818	3589.826661995492	4
0	14820	3590.959829168602	5
0	14822	3591.090561570345	6
0	14826	3592.347069788976	5
0	14835	3592.696988767882	6
0	14837	3592.92329221637	5
0	14843	3593.434826797188	6
0	14844	3593.523889878166	5
0	14849	3593.841849356173	4
0	14853	3597.199886604646	5
0	14855	3597.248812083136	6
0	14857	3597.43373445322	7
0	14859	3597.44579825234	8
0	14866	3600.554049044732	9
0	14867	3601.232617254331	8
0	14872	3601.915724509521	7
0	14878	3602.288408728128	8
0	14882	3605.361857180767	9
0	14883	3605.707051689912	8
0	14889	3606.638212070476	9
0	14891	3607.093092624968	10
0	14893	3607.202145859312	11
0	14894	3607.472026946241	10
0	14902	3609.828145044711	11
0	14903	3610.880107912238	10
0	14907	3611.006935661067	11
0	14909	3611.133978309047	12
0	14912	3612.997168136972	11
0	14921	3614.969638825722	10
0	14926	3615.759762767086	9
0	14932	3615.802285823936	10
0	14933	3615.942377515761	9
0	14937	3617.222990475441	10
0	14940	3618.969124340152	9
0	14946	3620.707528101353	10
0	14947	3621.279690582536	9
0	14952	3621.610853624135	8
0	14957	3622.065819448786	7
0	14963	3622.729311410043	8
0	14966	3623.536404458026	7
0	14972	3623.991503122555	8
0	14974	3624.338089659703	7
0	14983	3625.582866663315	8
0	14984	3625.903404677822	7
0	14992	3626.87392685727	8
0	14993	3628.366222313507	7
0	14997	3628.507064998459	8
0	15000	3628.668697616138	7
0	15006	3630.565270603438	8
0	15007	3630.60294228033	7
0	15014	3634.78394127403	6
0	15022	3635.206080182464	7
0	15024	3636.34298103345	8
0	15026	3636.435745485134	9
0	15029	3637.903116885473	8
0	15036	3638.11218958763	7
0	15041	3639.010283583245	6
0	15047	3640.680447584195	7
0	15050	3640.728226480578	6
0	15056	3641.09057115849	7
0	15057	3641.829407759568	6
0	15061	3642.262445634731	7
0	15068	3648.080449865434	6
0	15073	3648.172324135665	5
0	15079	3648.651553222353	6
0	15080	3651.358488394563	5
0	15086	3652.535562725207	6
0	15091	3654.602358750707	5
0	15097	3656.76224169287	6
0	15100	3657.188312458832	5
0	15105	3657.778710559082	4
0	15111	3659.170617305697	3
0	15116	3661.262813368581	2
0	15121	3662.443111631214	1
0	15127	3663.345975756374	2
0	15133	3664.826604984762	3
0	15135	3665.481797455128	4
0	15140	3666.608795757486	3
0	15146	3667.764116358433	4
0	15148	3668.203604015265	3
0	15153	3670.337519586359	2
0	15158	3671.203148113198	1
0	15166	3673.285506833785	0
0	15174	3673.854842751365	1
0	15175	3674.393883289222	0
0	15191	3674.699757370522	1
0	15192	3674.816094094721	0
0	15202	3676.590311455816	1
0	15204	3679.683689496081	2
0	15208	3679.862645545229	3
0	15211	3681.640127697392	4
0	15212	3681.668813844701	3
0	15218	3682.177295041453	4
0	15222	3687.977365364729	5
0	15223	3687.983515831487	4
0	15228	3688.306278833283	3
0	15234	3689.412537319004	4
0	15236	3689.70758083151	3
0	15242	3689.97792734322	2
0	15247	3690.651926972326	1
0	15254	3692.301246639832	2
0	15255	3693.209412937334	1
0	15262	3694.79547680014	0
0	15269	3695.428715373612	1
0	15272	3696.974038656612	0
0	15278	3697.434852894029	1
0	15279	3697.662503478363	0
0	15286	3699.305915221164	1
0	15287	3700.438142045868	0
0	15298	3701.854730641593	1
0	15299	3702.538248106643	0
0	15303	3703.140232636061	1
0	15305	3703.651968566935	2
0	15307	3704.158252741825	3
0	15314	3706.133140216875	4
0	15317	3706.707947892972	5
0	15318	3706.75176601934	4
0	15323	3706.862942117467	3
0	15329	3707.693588958832	4
0	15330	3707.75250534056	3
0	15336	3710.049943963965	4
0	15337	3710.638976206883	3
0	15342	3711.590215630811	2
0	15346	3711.685974165467	3
0	15349	3712.080378840614	2
0	15353	3712.230317756708	3
0	15356	3712.417155336875	2
0	15365	3714.913599915884	1
0	15370	3715.876412989796	0
0	15386	3716.198486511796	1
0	15389	3717.351807039401	0
0	15428	3729.402262377955	1
0	15429	3731.496536122415	0
0	15450	3734.223027985836	1
0	15451	3736.659385138152	0
0	15473	3741.172089061331	1
0	15474	3743.274319158178	0
0	15486	3745.245417308482	1
0	15487	3745.420076747746	0
0	15503	3749.830940559596	1
0	15505	3749.99229157747	2
0	15507	3750.157981475308	1
0	15512	3750.448725544367	0
0	15524	3752.217388405907	1
0	15526	3752.591885184934	0
0	15540	3753.501189898415	1
0	15541	3753.907329306996	0
0	15550	3754.89554690834	1
0	15552	3755.241209091221	2
0	15562	3757.796294879286	3
0	15565	3758.879419843105	2
0	15571	3759.152090394576	1
0	15577	3759.888259540379	0
0	15596	3767.909420269347	1
0	15597	3768.096785118251	0
0	15603	3768.388432845766	1
0	15605	3768.676519115605	2
0	15610	3770.730676349835	3
0	15613	3773.006360501758	2
0	15618	3773.091226423484	1
0	15625	3774.047507487257	0
0	15677	3783.981547411812	1
0	15678	3784.211683727475	0
0	15698	3785.232646749359	1
0	15700	3786.832696292689	0
0	15731	3798.409218899329	1
0	15733	3799.338348695311	2
0	15734	3800.899227955129	1
0	15739	3800.949152934867	0
0	15745	3801.271891684613	1
0	15746	3801.369408870127	0
0	15755	3803.917803495953	1
0	15762	3805.986761840635	0
0	15771	3806.701484499287	1
0	15774	3807.533289115656	0
0	15791	3809.832479114737	1
0	15794	3810.595908835449	0
0	15798	3811.573715311352	1
0	15801	3812.092778072643	0
0	15807	3812.300044816195	1
0	15816	3815.473470564843	2
0	15818	3816.652795304741	1
0	15823	3816.890021362295	0
0	15838	3819.009246432836	1
0	15841	3820.703627773819	2
0	15846	3822.571018289185	3
0	15847	3822.679338507524	2
0	15853	3823.240759450332	1
0	15862	3826.60216231187	0
0	15878	3828.079494148099	1
0	15884	3829.168207007794	2
0	15885	3831.59359901338	1
0	15891	3834.28188520819	0
0	15897	3834.444406695085	1
0	15899	3835.508431109021	2
0	15904	3836.740228230842	1
0	15910	3838.973915434597	0
0	15932	3842.564028404356	1
0	15933	3843.904651528864	0
0	15939	3844.2385100333	1
0	15941	3844.571859865673	2
0	15942	3844.873576644663	1
0	15948	3845.216360110845	0
0	15961	3848.457959851935	1
0	15963	3848.667422004228	2
0	15964	3850.285629862987	1
0	15970	3852.323515822039	0
0	15979	3853.874885593669	1
0	15985	3857.237356780065	0
0	15994	3859.026528175364	1
0	15997	3863.665682859648	0
0	16003	3863.711538942267	1
0	16005	3863.840919266101	2
0	16006	3864.980981511233	1
0	16010	3865.794988305465	2
0	16016	3866.951018503714	3
0	16018	3870.542511661459	2
0	16026	3874.676482975105	1
0	16032	3875.713130619091	0
0	16060	3877.795410831658	1
0	16062	3877.829337485924	2
0	16064	3878.84451379507	3
0	16070	3880.499771505014	4
0	16071	3880.602994969147	3
0	16076	3880.705817412355	2
0	16081	3883.27520503662	1
0	16087	3885.272260158255	2
0	16090	3886.583546885382	1
0	16094	3888.32711086558	2
0	16098	3890.05065397506	1
0	16107	3891.268871997173	0
0	16126	3893.225792327715	1
0	16128	3893.427404381202	2
0	16135	3894.398303957002	3
0	16136	3895.401732513517	2
0	16142	3895.606813855268	1
0	16147	3896.272096950051	0
0	16169	3899.330316401499	1
0	16174	3902.828432850811	2
0	16175	3902.96210012341	1
0	16182	3904.763758920215	0
0	16199	3908.681469937401	1
0	16203	3909.569301229285	2
0	16204	3909.951184847537	1
0	16210	3910.478511779255	0
0	16222	3913.466907426669	1
0	16226	3916.412462130335	2
0	16231	3918.093145541093	3
0	16233	3919.333916071055	4
0	16235	3919.651109355471	5
0	16238	3920.889073321147	4
0	16246	3923.752219557668	3
0	16252	3924.673280452172	4
0	16253	3924.673462294322	3
0	16258	3924.711842901628	2
0	16263	3925.37943489481	1
0	16272	3928.576159889019	0
0	16276	3929.054306317656	1
0	16278	3930.038235440692	2
0	16280	3930.834710528858	3
0	16282	3932.49622834606	4
0	16288	3937.956671089165	5
0	16289	3938.29363508774	4
0	16296	3938.839722963247	5
0	16297	3939.260035798831	4
0	16302	3939.764637286085	3
0	16308	3940.049625979108	4
0	16310	3940.60128992418	5
0	16312	3942.090717971577	6
0	16313	3942.549637430663	5
0	16317	3943.754038093365	6
0	16319	3944.149585007428	7
0	16324	3946.29673390478	6
0	16329	3946.609860534685	5
0	16334	3946.875618270904	4
0	16340	3948.480233090104	3
0	16346	3948.63122804742	4
0	16347	3948.806561703276	3
0	16352	3949.264570047302	2
0	16356	3949.901216503027	3
0	16360	3950.75982100783	2
0	16366	3951.766167946575	1
0	16371	3952.146559073485	0
0	16382	3953.404653696198	1
0	16383	3954.320900857632	0
0	16397	3956.438047778922	1
0	16403	3957.793072925407	0
0	16410	3957.956932315819	1
0	16411	3958.224860050493	0
0	16423	3960.84758031714	1
0	16425	3961.711399905716	2
0	16427	3961.789006498372	3
0	16428	3962.208088275642	2
0	16435	3962.683367173578	1
0	16443	3964.233269120276	0
0	16449	3964.372654811352	1
0	16450	3964.540486359716	0
0	16454	3965.44791142788	1
0	16458	3968.035073090782	2
0	16463	3971.590155813445	1
0	16467	3971.678058780811	2
0	16471	3972.717959344604	3
0	16472	3973.055042470832	2
0	16476	3973.12127056256	3
0	16480	3973.776849690026	4
0	16483	3975.185763620169	3
0	16490	3975.455328898008	4
0	16492	3976.312203867065	3
0	16497	3977.240516977956	2
0	16502	3977.408645625174	1
0	16509	3979.991091139553	0
0	16531	3985.186239138588	1
0	16535	3987.203464707199	2
0	16537	3987.589699610064	3
0	16538	3988.041083299658	2
0	16549	3989.97340505209	1
0	16555	3990.647870980408	2
0	16557	3991.58282081269	1
0	16563	3993.630575350943	0
0	16571	3994.394996700395	1
0	16574	3995.565092424433	0
0	16598	3998.555822521974	1
0	16600	3999.210657629599	2
0	16603	4000.636400220077	1
0	16609	4001.995463362104	0
0	16635	4005.505520387628	1
0	16639	4006.644911401977	2
0	16640	4007.987155183577	1
0	16645	4008.659393326605	0
0	16655	4009.538287595033	1
0	16659	4012.581622109651	0
0	16677	4017.225787933829	1
0	16678	4017.903303330734	0
0	16698	4022.463589520766	1
0	16699	4024.704195818367	0
0	16721	4026.322226516134	1
0	16727	4029.462149526458	0
0	16733	4030.999649624935	1
0	16736	4032.130887538856	2
0	16738	4032.331995920487	3
0	16739	4033.417890230906	2
0	16744	4033.616133735636	1
0	16754	4035.361491977907	0
0	16760	4035.875349557857	1
0	16762	4036.404469851883	0
0	16775	4045.112037391201	1
0	16776	4047.095418631159	0
0	16802	4052.377342909518	1
0	16806	4053.370421052029	2
0	16809	4056.016696307596	1
0	16814	4056.172758858554	0
0	16823	4057.318552736832	1
0	16827	4058.237371268979	0
0	16835	4061.220052534056	1
0	16836	4061.545368599188	0
0	16848	4065.940070869842	1
0	16850	4066.831679601575	0
0	16869	4070.420516126251	1
0	16870	4070.92282661225	0
0	16884	4071.94174579739	1
0	16886	4073.175452901127	2
0	16888	4073.259322043948	3
0	16896	4076.566284617187	4
0	16898	4076.58292773821	5
0	16899	4076.783463316889	4
0	16905	4077.590093966569	5
0	16906	4077.645322213557	4
0	16913	4078.49202403486	3
0	16921	4083.590448894611	4
0	16922	4084.274749497049	3
0	16929	4084.973265934092	2
0	16934	4085.144269036017	1
0	16941	4088.243400692803	0
0	16967	4092.552833591259	1
0	16968	4092.709285116898	0
0	16976	4094.238962438567	1
0	16977	4095.951721964456	0
0	17008	4104.203244257161	1
0	17012	4105.982942015947	2
0	17013	4107.12520014599	1
0	17018	4107.149855572214	0
0	17025	4107.796716483594	1
0	17026	4108.078781855884	0
0	17042	4110.498771044162	1
0	17045	4110.863098701918	0
0	17051	4113.062866841925	1
0	17052	4113.133880609766	0
0	17067	4116.505812900353	1
0	17078	4121.871252715415	2
0	17079	4122.506136113207	1
0	17084	4122.637146885809	0
0	17101	4125.680196805421	1
0	17102	4126.026666141254	0
0	17116	4127.512225436085	1
0	17120	4127.894207242365	2
0	17122	4129.299939335721	3
0	17125	4130.434506262329	2
0	17134	4131.795957420897	3
0	17135	4132.083916367232	2
0	17145	4133.110789870832	1
0	17153	4133.970053453217	0
0	17165	4135.136198347402	1
0	17168	4135.183740459986	2
0	17169	4135.651613584478	1
0	17174	4135.808102248261	0
0	17181	4136.346420155873	1
0	17183	4137.042684588312	0
0	17189	4137.288321117709	1
0	17190	4137.475802356319	0
0	17204	4140.114918385889	1
0	17209	4142.328213687071	2
0	17211	4142.552991040494	1
0	17217	4143.982334398018	0
0	17223	4144.010951124784	1
0	17227	4144.756785585468	2
0	17228	4145.243568315899	1
0	17234	4145.309955723303	0
0	17253	4147.946283481871	1
0	17254	4148.307963385401	0
0	17268	4150.383871443285	1
0	17269	4150.484155264409	0
0	17285	4151.698573183106	1
0	17287	4152.600339954161	0
0	17305	4156.429701624395	1
0	17310	4157.719972748111	0
0	17351	4165.357477402733	1
0	17352	4166.352663652059	0
0	17361	4167.265043620976	1
0	17363	4168.062344459681	2
0	17365	4168.151830191332	3
0	17374	4174.212581177467	4
0	17375	4175.227441514566	3
0	17380	4175.289413054588	2
0	17385	4175.359794712802	1
0	17395	4177.191451332335	0
0	17405	4178.203100957895	1
0	17408	4178.35920303159	2
0	17413	4180.815005486218	1
0	17419	4184.450073787636	0
0	17431	4185.024376439632	1
0	17436	4186.792099588823	0
0	17461	4192.234028665974	1
0	17462	4192.933178545707	0
0	17476	4196.891967042198	1
0	17480	4197.732539618757	2
0	17482	4199.049827592476	1
0	17488	4200.126191308321	2
0	17491	4202.237795728081	3
0	17492	4202.674858223707	2
0	17497	4202.700181573421	1
0	17503	4202.858203559307	0
0	17515	4205.108649257886	1
0	17517	4205.725897938458	0
0	17529	4206.643349798429	1
0	17537	4208.588725968882	2
0	17538	4208.777380304294	1
0	17543	4208.904686751612	0
0	17563	4214.194244514414	1
0	17564	4215.080077955764	0
0	17580	4219.384125202894	1
0	17582	4219.700595238514	2
0	17584	4220.179540189937	3
0	17587	4221.640371792017	2
0	17596	4222.111896135752	1
0	17603	4222.433014109067	2
0	17607	4223.237010745213	3
0	17609	4223.718456723118	4
0	17612	4227.29318668704	5
0	17613	4227.781794913675	4
0	17619	4228.493876422413	5
0	17620	4228.669190853966	4
0	17627	4230.251556510039	3
0	17633	4230.871384846919	4
0	17634	4232.217938010476	3
0	17640	4232.579728301031	2
0	17645	4232.879415721128	1
0	17654	4235.755995107333	2
0	17655	4236.121558729876	1
0	17660	4236.190025040699	0
0	17671	4237.391049958386	1
0	17674	4238.856686380274	0
0	17682	4241.026515900649	1
0	17685	4243.263406660428	0
0	17702	4246.904716552479	1
0	17703	4247.28845801405	0
0	17717	4249.857851017231	1
0	17718	4250.96247028429	0
0	17735	4253.713315109631	1
0	17738	4255.845276892523	0
0	17747	4257.134145577549	1
0	17749	4257.664124530127	2
0	17751	4258.429781148669	3
0	17753	4258.825554332947	4
0	17755	4259.534613519506	5
0	17759	4261.79704156742	4
0	17765	4262.242012402108	3
0	17772	4263.040030681195	2
0	17777	4263.483651990032	1
0	17788	4267.966533334962	2
0	17791	4268.659765455612	1
0	17797	4268.898531043131	2
0	17798	4269.107369797155	1
0	17804	4269.960697535526	0
0	17832	4273.989920526723	1
0	17833	4275.344421364878	0
0	17850	4278.830454436108	1
0	17851	4282.182416553838	0
0	17857	4282.761971534616	1
0	17858	4282.83273777859	0
0	17907	4299.367415674911	1
0	17909	4299.784522120179	2
0	17910	4301.041011015869	1
0	17916	4301.632043635476	0
0	17946	4307.510840566137	1
0	17948	4308.044726256895	2
0	17949	4309.071631985088	1
0	17955	4309.460678491051	2
0	17956	4310.256140153745	1
0	17962	4310.515081029834	2
0	17963	4310.88873410285	1
0	17967	4311.851599814761	2
0	17970	4312.40975092905	1
0	17975	4312.611307248027	0
0	17979	4312.691653215623	1
0	17986	4315.913118096418	0
0	18000	4318.346151446392	1
0	18002	4318.680800160895	2
0	18004	4319.225364209413	3
0	18006	4319.366808881201	4
0	18012	4321.053636299227	3
0	18017	4321.35679378432	2
0	18022	4322.654046550243	1
0	18028	4323.914289894015	2
0	18030	4324.922244745753	1
0	18036	4325.253427000408	2
0	18037	4325.416509492522	1
0	18043	4325.824092412967	2
0	18045	4326.812216959658	1
0	18050	4327.060745979602	0
0	18054	4327.144577180271	1
0	18060	4328.493581482224	2
0	18065	4329.925041923002	1
0	18082	4336.507700839932	2
0	18084	4337.058216360573	1
0	18089	4338.606210572947	0
0	18106	4339.179866099323	1
0	18108	4340.191131633894	0
0	18115	4340.628049751776	1
0	18116	4340.65777571055	0
0	18137	4346.803602714479	1
0	18138	4348.675708076032	0
0	18164	4355.759215821066	1
0	18167	4357.850153750417	0
0	18173	4358.06250129703	1
0	18174	4358.640822909394	0
0	18183	4359.564174740018	1
0	18185	4359.575210767629	2
0	18189	4360.362057706472	1
0	18195	4361.580777328903	2
0	18197	4361.658752425088	3
0	18198	4362.64981751283	2
0	18203	4362.821166264642	1
0	18207	4363.730705841608	2
0	18211	4365.516339027306	1
0	18216	4365.631876732306	0
0	18222	4366.62984470564	1
0	18227	4367.885887192415	0
0	18235	4368.503106910578	1
0	18236	4369.17809294046	0
0	18240	4369.347995444245	1
0	18242	4369.509226252844	2
0	18244	4371.582006947663	3
0	18246	4372.90453276868	4
0	18248	4373.233873256739	5
0	18250	4374.838424475804	6
0	18254	4375.45483590825	7
0	18255	4376.050109946654	6
0	18261	4377.651958546419	5
0	18268	4377.854268906315	6
0	18270	4379.177219164088	7
0	18275	4379.987408859214	8
0	18276	4380.115937038381	7
0	18285	4382.090288877535	8
0	18287	4383.607527994212	9
0	18288	4383.897317939655	8
0	18297	4386.598074524649	9
0	18298	4387.267580295466	8
0	18303	4387.46169628098	7
0	18308	4388.573180117437	6
0	18312	4388.712863724464	7
0	18316	4390.489412470921	6
0	18321	4391.006002099992	5
0	18325	4392.402894477693	6
0	18328	4392.474990176682	5
0	18334	4392.786166585721	6
0	18338	4394.417718393505	7
0	18339	4394.699609333005	6
0	18346	4395.862489741418	7
0	18347	4397.716021459329	6
0	18356	4400.758812409401	7
0	18358	4401.011930162028	8
0	18359	4405.42192477901	7
0	18366	4405.544978150266	8
0	18368	4407.366545938398	9
0	18369	4407.882401485929	8
0	18376	4408.849883800432	9
0	18379	4410.722953189814	8
0	18385	4410.979348820107	9
0	18386	4411.231193892015	8
0	18393	4413.057058068393	7
0	18399	4413.44583207844	6
0	18405	4413.886639648957	5
0	18410	4414.726128707977	4
0	18415	4415.348276509255	3
0	18419	4416.766615050325	4
0	18422	4417.310710406928	3
0	18427	4418.513754133931	2
0	18432	4419.210601041129	1
0	18440	4422.331270727058	0
0	18451	4424.752678313953	1
0	18455	4427.633556715476	0
0	18474	4429.280386373148	1
0	18477	4430.756081070916	2
0	18479	4431.259517479757	3
0	18481	4432.143922628991	4
0	18482	4432.981011563309	3
0	18488	4435.073962549989	2
0	18493	4435.080126876019	1
0	18499	4437.851069326793	0
0	18543	4447.646658965156	1
0	18545	4447.95431064607	2
0	18550	4449.732971144612	1
0	18556	4449.969747766549	2
0	18562	4450.602918858271	1
0	18568	4451.228091260774	0
0	18584	4453.142151708673	1
0	18590	4457.339251154396	2
0	18591	4457.385815038739	1
0	18599	4457.69580625334	0
0	18607	4458.676131977413	1
0	18610	4459.221644374756	2
0	18613	4460.328523868911	1
0	18620	4461.735200990236	2
0	18621	4461.774344988937	1
0	18626	4461.823994055607	0
0	18654	4464.485025839813	1
0	18655	4467.938831670435	0
0	18683	4472.774372481693	1
0	18687	4473.594055006275	0
0	18702	4475.602040332901	1
0	18705	4478.142537385168	0
0	18713	4479.757808516593	1
0	18714	4481.893496226573	0
0	18720	4481.945380539481	1
0	18721	4482.924405487882	0
0	18756	4488.911345928601	1
0	18759	4491.519775434157	0
0	18775	4493.146331853578	1
0	18777	4493.688801535524	2
0	18779	4494.084478672321	3
0	18782	4496.346010213037	2
0	18787	4496.418091750371	1
0	18796	4499.223982463897	0
0	18804	4500.359666160967	1
0	18806	4500.979702413555	0
0	18819	4502.982430504557	1
0	18822	4505.608851256447	0
0	18849	4508.637297262014	1
0	18851	4509.485602022411	0
0	18872	4512.291852776001	1
0	18877	4516.463123794581	0
0	18881	4518.270808971169	1
0	18885	4520.196632378109	0
0	18899	4520.985255104549	1
0	18900	4521.976975738944	0
0	18917	4525.260302426132	1
0	18920	4528.452878959792	0
0	18949	4535.612590751367	1
0	18950	4535.98667318019	0
0	18972	4542.846104853888	1
0	18974	4542.921904319555	2
0	18977	4543.986163896297	1
0	18983	4544.7058124289	2
0	18985	4544.88684847092	3
0	18986	4544.890043657718	2
0	18995	4546.14555073875	1
0	19000	4547.410957007096	0
0	19012	4549.073995778616	1
0	19015	4549.32166398852	2
0	19018	4550.820014845054	1
0	19023	4550.855701645351	0
0	19029	4552.097325386213	1
0	19032	4553.513884198836	0
0	19038	4553.587395200114	1
0	19040	4553.656137399961	2
0	19043	4554.742069376319	1
0	19048	4556.429280957302	0
0	19069	4559.824867297532	1
0	19071	4560.9365718973	2
0	19073	4561.761947766888	3
0	19074	4563.424235980032	2
0	19081	4565.071076791316	1
0	19086	4565.72096090333	0
0	19090	4566.635240993971	1
0	19095	4567.411035007322	0
0	19111	4572.322458016046	1
0	19113	4572.972820314527	2
0	19114	4573.031333638253	1
0	19119	4573.276458436603	0
0	19134	4577.185059401879	1
0	19135	4578.169173535835	0
0	19141	4578.778347758264	1
0	19143	4580.478225958025	0
0	19154	4582.246207813308	1
0	19158	4586.718360355568	0
0	19181	4592.254757917448	1
0	19184	4593.070715761628	0
0	19190	4593.554978594432	1
0	19191	4593.947758699922	0
0	19200	4594.45575999989	1
0	19208	4596.608056834094	0
0	19214	4597.400249934102	1
0	19215	4597.655166083548	0
0	19221	4597.727097286403	1
0	19222	4597.929435735933	0
0	19230	4600.198440183654	1
0	19231	4600.280160596705	0
0	19253	4604.339855641679	1
0	19254	4604.879110962813	0
0	19264	4606.32458361083	1
0	19269	4607.947012271834	0
0	19284	4609.985683571047	1
0	19285	4610.60599199337	0
0	19292	4611.242493692028	1
0	19294	4612.79362433184	0
0	19309	4615.772969377451	1
0	19316	4618.403461626535	0
0	19338	4620.005413908129	1
0	19343	4621.36860519203	0
0	19358	4625.073034026785	1
0	19364	4626.579254415194	2
0	19366	4627.212711086987	3
0	19367	4627.234619603528	2
0	19372	4627.289203908995	1
0	19381	4628.729032879467	0
0	19411	4634.277345426073	1
0	19413	4634.320414791697	2
0	19416	4637.384188839961	1
0	19424	4638.394624478344	0
0	19437	4641.33156840557	1
0	19439	4641.787526427008	2
0	19441	4642.101044170495	3
0	19442	4642.256693500637	2
0	19447	4642.321762988258	1
0	19452	4642.355638394106	0
0	19472	4648.153387174183	1
0	19474	4649.202674066728	2
0	19482	4650.975454547065	3
0	19483	4651.193444249816	2
0	19487	4651.42847782997	3
0	19489	4651.901994728665	4
0	19493	4653.342055850231	5
0	19498	4656.366173662265	4
0	19503	4656.824284189625	3
0	19508	4656.824622549427	2
0	19512	4657.12744074301	3
0	19515	4657.460394375628	2
0	19524	4660.059248756629	1
0	19530	4660.917105583317	2
0	19531	4661.573802172164	1
0	19536	4661.758395031662	0
0	19549	4664.85070534499	1
0	19551	4665.538352756521	2
0	19552	4666.457160974642	1
0	19557	4666.941335253624	0
0	19573	4669.040720550236	1
0	19575	4669.593724140384	2
0	19576	4670.818881865378	1
0	19583	4671.569884830195	2
0	19586	4672.150537963638	1
0	19592	4672.856116846207	0
0	19618	4679.904422514631	1
0	19620	4680.460237675535	2
0	19623	4682.155364034595	1
0	19629	4683.771698010528	0
0	19678	4694.574887720966	1
0	19685	4696.820415084354	2
0	19687	4697.169439510151	1
0	19692	4698.149505565646	0
0	19706	4701.675260405504	1
0	19707	4702.841421618247	0
0	19715	4705.958921795487	1
0	19716	4706.49678309225	0
0	19742	4711.134256272203	1
0	19743	4711.777508144075	0
0	19762	4714.325707896921	1
0	19765	4715.316785986164	2
0	19766	4715.865630912874	1
0	19772	4716.763088214916	0
0	19778	4717.803929428163	1
0	19779	4718.622501385912	0
0	19804	4734.502068280175	1
0	19805	4736.705796197165	0
0	19865	4750.275142579558	1
0	19867	4750.335651171682	2
0	19870	4751.223969317207	3
0	19871	4751.630393206261	2
0	19876	4752.86290220491	1
0	19881	4752.864658753632	0
0	19892	4756.023857303085	1
0	19896	4758.738870602232	2
0	19897	4759.026918809609	1
[...]
4	113393	27749.275537033698	2.383048703329
4	113405	27753.235323014424	1.819264399882
4	113423	27754.891666552482	1.18252952526
4	113434	27756.857192327812	1.441075500905
4	113662	27820.138932772327	52.907544845505
4	113708	27833.870983920159	60.573587157177
4	113743	27842.464967252133	56.163899102594
4	113751	27843.340435067652	55.697887753846
4	113761	27847.212488853968	55.32096560227
4	113770	27848.380690787763	45.691835916651
4	113779	27850.740425595	30.885621383023
4	113798	27852.248003277796	27.587378401283
4	113838	27861.607603574977	35.265805080682
4	113844	27864.311642635688	33.256568545093
4	113849	27864.335230273334	29.671452161178
4	113854	27865.132424855118	27.102763682981
4	113860	27869.604675723273	30.779088299881
4	113865	27870.22559887551	28.281790165556
4	113873	27871.785601956805	27.543868455796
4	113883	27871.998189853708	27.585361203148
4	113888	27873.265808838077	25.196463913591
4	113894	27873.764651347038	25.406980026065
4	113905	27875.468845862382	20.295554416643
4	113920	27880.746202367795	22.018960520452
4	113944	27885.073564267817	10.600517340901
4	113963	27888.75370561496	13.295426721412
4	113969	27888.911280413418	7.116377443748
4	113978	27891.141551199259	9.283070075255
4	113992	27893.972234739044	8.480394881875
4	114038	27902.679882909672	11.669221877588
4	114045	27904.447885973372	9.822433460862
4	114054	27906.482649372431	9.137817093903
4	114082	27913.202262932022	8.956124119511
4	114089	27915.213741499754	10.314324237719
4	114157	27925.594762027773	2.970350106511
4	114180	27933.338290328377	2.552979567595
4	114246	27951.285377287052	9.482805989953
4	114273	27958.604942445274	8.29209152297
4	114299	27962.081127575012	1.381341926458
4	114340	27976.632020090935	0.440646883929
4	114348	27978.105614421451	0.29028677263
4	114359	27980.688700864466	2.426177703626
4	114383	27984.510277850721	2.056342253538
4	114408	27990.529545136932	5.682459197996
4	114429	27994.750878671602	1.777396090621
4	114468	28006.685922022021	0.888164892303
4	114493	28013.049548096397	3.263857303735
4	114536	28020.15753269431	0.668762427251
4	114540	28020.201291422011	0.377193686965
4	114557	28024.958647173307	1.449268586594
4	114704	28067.591279020614	31.463495946176
4	114715	28069.42351242584	28.070582035904
4	114731	28071.308098247991	17.709332592157
4	114942	28115.600965887379	54.470713218572
4	114952	28116.280684156475	52.582682255595
4	114959	28119.319337867714	54.908390943098
4	114969	28122.291123743581	51.570248596976
4	114976	28124.419023316569	45.314329384523
4	114987	28126.409296705664	40.821560151432
4	114992	28127.042863877226	34.457203847745
4	115005	28128.070310274587	26.619414386957
4	115025	28131.937940410048	26.429060212911
4	115030	28133.991851595873	25.373517977571
4	115037	28136.420342221917	25.425181522989
4	115054	28141.839112686012	14.252347593412
4	115066	28143.739409520683	14.218053396526
4	115077	28148.568623855246	11.933421311327
4	115108	28157.206140943239	16.149754938083
4	115113	28157.815951811861	14.558714047005
4	115118	28160.972170254905	14.705986588156
4	115128	28166.357708823462	12.315976261905
4	115160	28174.408815665835	20.20874741562
4	115168	28177.581814407235	1.759774404134
4	115187	28183.388396481453	3.619859395736
4	115198	28187.109496485442	4.352583163446
4	115219	28190.530149244853	0.729349957911
4	115244	28193.60305892998	3.399036988944
4	115254	28193.69389776027	2.412161329748
4	115262	28196.396900761877	4.637872101537
4	115277	28198.486497313593	1.316547582524
4	115285	28200.980414267377	2.594575567623
4	115345	28213.178047747906	1.045232098452
4	115372	28219.492383837717	3.821002377307
4	115387	28221.690994722376	0.783682425027
4	115394	28228.532007637099	1.651189237572
4	115409	28231.747834666626	1.060044908547
4	115416	28234.867308007312	2.068946005376
4	115449	28242.629057056519	3.550810991759
4	115486	28254.691122797986	5.245719908448
4	115502	28263.318985353281	9.951394735408
4	115532	28268.318381013157	8.157920770734
4	115560	28274.713992734019	13.712729231076
4	115577	28277.682381023387	13.388972203982
4	115588	28282.186970066101	17.751419976077
4	115701	28306.707872977338	41.771954714385
4	115716	28309.654386996903	38.184082108487
4	115722	28311.267150914089	37.081180753179
4	115735	28314.357760632778	29.031518352368
4	115754	28317.095618757999	30.761974369051
4	115767	28321.56665542935	25.646035383851
4	115795	28325.756719823698	29.525902199272
4	115800	28329.560623512573	24.560217364819
4	115807	28331.193160878018	25.544150950293
4	115812	28335.226979828641	27.96376947564
4	115817	28336.355015913458	28.491424671129
4	115824	28337.850423312299	25.807893143856
4	115831	28339.151838955439	26.756111043546
4	115854	28347.591808966049	29.625126868171
4	115867	28348.342653565647	28.338062038667
4	115872	28350.869885523154	27.261224982791
4	115879	28352.249757011451	21.208680201631
4	115889	28353.460989103994	15.629635919347
4	115905	28356.891360203198	11.285863144134
4	115970	28377.782593046702	29.685228272261
4	115975	28377.947338927009	24.403538811124
4	115982	28380.877260926363	27.117561835415
4	115998	28384.581495914142	30.545544550929
4	116009	28385.393371324283	14.124432788651
4	116022	28389.813656167578	6.428596564961
4	116054	28399.275628548697	13.742563142487
4	116079	28403.422407688127	17.004582897068
4	116091	28405.983949310806	16.442150747617
4	116113	28412.401914124921	21.70074922792
4	116165	28422.3148772029	30.45186702558
4	116171	28422.875290607141	25.131939479161
4	116178	28423.961451558092	21.144922290506
4	116191	28428.507567054406	23.32397530892
4	116232	28440.784495017594	28.516447733147
4	116241	28442.334864321729	24.864798336567
4	116259	28444.674371481098	21.728408215121
4	116363	28473.617056872073	45.877519286549
4	116495	28509.066737497958	78.646665524069
4	116517	28512.49771659723	80.650905320338
4	116533	28513.847611857427	75.909828951289
4	116546	28515.217034060267	72.676324468314
4	116556	28516.278935934501	72.07249622268
4	116562	28517.40644389034	63.520469900041
4	116571	28520.517855265219	65.049912227871
4	116582	28524.18588580528	64.867887573696
4	116587	28525.658815657551	63.803371814161
4	116600	28533.445584879452	67.901060119658
4	116664	28543.551745268289	74.507925171083
4	116672	28549.18756725912	79.79368279118
4	116688	28550.888502933576	80.938970345816
4	116737	28563.296530165212	89.882670411239
4	116752	28566.694586769052	86.640889895053
4	116757	28567.485428725736	87.393771556954
4	116764	28569.051277197349	88.718973847629
4	116791	28575.444329996749	91.395327169116
4	116803	28576.14457584947	87.274848660393
4	116813	28578.900202058946	86.044253272246
4	116830	28583.441689008569	89.370373385397
4	116840	28587.896797837253	74.498054331799
4	116859	28590.220953602486	72.55900514439
4	116902	28604.689329438723	72.6662859288
4	116917	28607.295736273659	64.888962251857
4	116939	28612.189907579888	62.348889788034
4	117001	28626.584937308852	75.455799931926
4	117009	28629.558359099858	72.128158257489
4	117015	28630.145476794842	66.19845873015
4	117029	28634.565284177373	63.501079315954
4	117062	28640.483528152477	68.119093557468
4	117071	28642.221621564738	66.479246403185
4	117083	28644.422224796751	49.186024988162
4	117090	28647.143648924357	51.128667037241
4	117095	28647.437377073581	50.211954141543
4	117103	28649.622307185563	44.722195780655
4	117113	28649.828473253279	23.967604768505
4	117127	28658.784075611403	22.616732140465
4	117137	28659.706133154268	20.075971891682
4	117148	28665.129370578585	23.090991415784
4	117182	28672.987661302734	25.981698378914
4	117193	28673.249987632841	23.042626452737
4	117198	28674.35001969959	19.113781618293
4	117205	28675.588289540487	18.06076984254
4	117319	28712.665745057165	51.060710587307
4	117357	28716.808217374209	49.780678938526
4	117362	28717.076397614097	47.965832696325
4	117370	28717.698226958585	35.235390938161
4	117375	28718.200958896606	34.38731324703
4	117392	28723.355264560928	36.025918312992
4	117410	28726.121793871555	31.235561918336
4	117417	28730.007851993279	19.406001667846
4	117431	28735.435587321403	20.563485608712
4	117454	28739.378939355877	23.421921113412
4	117459	28739.524274353922	20.982197411613
4	117470	28748.943620852971	29.2395337244
4	117499	28754.48997334638	34.548690405888
4	117520	28759.824506429947	38.148788798014
4	117546	28764.250555813591	38.763873573989
4	117560	28766.216425577332	37.222916766215
4	117583	28769.787845322382	32.76606852619
4	117591	28770.357348517199	22.295115147443
4	117644	28782.775512604252	33.534863871925
4	117649	28783.243222957348	25.981775702945
4	117654	28783.852006412906	23.447853168065
4	117664	28792.094217091182	24.538428587565
4	117677	28793.958464390263	26.369463161299
4	117688	28799.54774208132	21.855443709561
4	117709	28801.905070628528	23.606223675557
4	117714	28802.281202332008	9.384313779585
4	117721	28803.196015229092	5.512037866388
4	117738	28808.466205745876	7.899645469254
4	117762	28813.084159406533	7.060020782284
4	117776	28815.857324545778	4.197966870602
4	117786	28818.622026347647	6.08979048357
4	117810	28824.418975087522	2.177686170402
4	117828	28827.767332073602	3.074778122879
4	117839	28829.919677952187	4.451491523612
4	117858	28836.800012569563	8.463475843483
4	117882	28841.060436090155	11.608177521616
4	117895	28842.879196426287	11.735330831908
4	117910	28846.386680717379	9.073330391741
4	117915	28848.430422485955	8.762422039333
4	117920	28848.507932856636	7.676914820859
4	117929	28851.548098950288	7.657688060685
4	117943	28860.860085943335	12.226554226858
4	117971	28864.164181746023	13.204461934196
4	117986	28866.481380810946	14.379613450078
4	117991	28870.584921374802	14.756257787433
4	118035	28879.675665295816	0.392502759936
4	118039	28880.252710161364	0.682654605501
4	118052	28883.827051637694	2.516782547584
4	118068	28888.344275897854	3.156578761359
4	118084	28891.114601566545	2.740258950059
4	118091	28891.690515408107	0.827437534715
4	118105	28893.516785316626	0.410162489305
4	118141	28897.532383425445	0.543295369857
4	118152	28905.638540814994	7.116179897224
4	118165	28908.8118546731	0.685166070319
4	118207	28918.614581941034	7.597046903342
4	118228	28921.96783100721	9.451067574491
4	118246	28924.226473698163	9.13195068145
4	118253	28927.51382482627	6.829620739688
4	118263	28930.119546181265	7.825872731942
4	118270	28931.176292186167	8.117757439622
4	118286	28934.022485202843	10.082859547639
4	118308	28937.309419316715	4.393668993307
4	118340	28945.528441747221	7.015579562171
4	118344	28945.600462247236	4.072006624633
4	118377	28956.149581129461	3.805878301252
4	118391	28956.781606918073	0.834147960982
4	118421	28969.765980175015	3.480952950129
4	118432	28970.690804163445	0.237495384937
4	118440	28970.96552454895	0.138290189628
4	118455	28972.907561877551	0.338736965996
4	118473	28983.7485783113	0.650495162323
4	118498	28992.565794437118	5.233935527297
4	118535	28997.283442786869	5.520680607782
4	118579	29005.26732182061	6.464677643486
4	118608	29010.601482229972	11.765174435162
4	118621	29013.903499682018	13.719702778632
4	118634	29017.617841150604	16.039756029192
4	118660	29023.327297969501	20.318807184396
4	118677	29027.969878509567	19.340356700904
4	118682	29029.536075867365	16.787293359125
4	118695	29035.573266556308	18.501253613235
4	118700	29037.277372125785	12.70379110805
4	118706	29040.201621145834	10.444373164383
4	118713	29041.530224158757	9.1924480407
4	118726	29045.969783447732	12.888385137047
4	118733	29048.111683972244	12.765013139077
4	118774	29060.002770086702	11.123799368563
4	118823	29068.886189666492	19.631276682698
4	118834	29073.094892737762	19.894341419208
4	118959	29103.455517440725	50.140805441137
4	118973	29105.824491481936	50.032721494736
4	118983	29107.217597144095	42.497059078254
4	118995	29110.183625764359	40.509200028202
4	119017	29114.954241483072	40.163007053841
4	119022	29115.144378490482	35.05957528983
4	119028	29116.094821078766	28.048554633738
4	119042	29123.197643310258	32.238893634169
4	119078	29128.432968301568	35.284869936861
4	119120	29138.104288162715	35.391587502425
4	119179	29152.883082384067	49.885374120957
4	119195	29155.02038169763	51.699949176182
4	119204	29156.58014116885	48.40919193551
4	119223	29161.240077648102	52.919857283443
4	119241	29166.870293303333	47.312720253961
4	119256	29169.291785573532	47.711365068852
4	119272	29176.551014781358	51.136608555339
4	119285	29179.912185465808	53.653068920912
4	119375	29198.682401171502	58.962873484849
4	119397	29204.908451311686	64.940632094619
4	119409	29209.463195724261	56.196146459447
4	119416	29210.836431447671	56.420627496938
4	119496	29228.394735846197	63.048778280534
4	119511	29233.18782483676	66.716647691323
4	119548	29242.950060493284	74.278912003502
4	119566	29246.003473368182	73.577531234611
4	119571	29246.20866470451	71.025283634117
4	119579	29250.984213511308	67.583367311039
4	119596	29261.826719162835	74.280161604569
4	119657	29273.264740342146	85.466344654479
4	119668	29277.835256092061	83.419878470236
4	119674	29280.548930505223	84.676531412764
4	119679	29281.318031869141	84.915648387969
4	119688	29283.898668641913	86.409155349731
4	119707	29287.765049174885	74.345597752737
4	119740	29301.827570480937	85.247127362535
4	119749	29304.335248727366	83.006949123151
4	119792	29314.27980889548	91.439537745512
4	119797	29314.313044859982	91.06214972722
4	119810	29320.021574721429	93.487684061452
4	119822	29323.303808515277	94.741862439286
4	119962	29365.26426101325	136.57987853187
4	119968	29367.352105721223	133.9045428958
4	119990	29373.822547495453	137.1144739778
4	120196	29422.318045186492	180.22151432792
4	120215	29423.62823483097	180.04347615719
4	120220	29423.833002324271	176.62397450227
4	120225	29424.376658346472	166.9933035299
4	120230	29426.288759185193	165.54463510847
4	120235	29427.255148931153	165.97033424795
4	120242	29428.364790336022	161.70543874018
4	120248	29431.213052133146	158.46899841329
4	120253	29431.310072448444	143.75556972463
4	120258	29434.435433451096	122.78528756288
4	120263	29435.061522474548	118.36711171974
4	120270	29435.87623205729	118.62295604953
4	120301	29438.461720278116	120.10791077531
4	120306	29439.477213573292	116.67153279803
4	120315	29444.458816466919	119.6957327234
4	120332	29447.641990349565	118.87780520661
4	120365	29455.600525594213	126.30707604868
4	120375	29456.479947544382	121.61717839727
4	120381	29458.094411072755	120.25378524956
4	120386	29459.310807322781	118.37621279937
4	120400	29463.733388354657	116.51751230733
4	120421	29464.899116434686	113.39202171709
4	120437	29469.258822297998	112.56295593777
4	120573	29501.837895306497	143.15327637904
4	120586	29504.290119965115	134.90417402896
4	120659	29518.956044721838	149.21375234935
4	120664	29519.317414088678	140.99813296713
4	120673	29522.313156933495	142.53250241233
4	120689	29525.74999096161	141.06681594748
4	120713	29527.531473285453	140.65742703187
4	120726	29528.101197309118	138.83793548721
4	120736	29531.566118829248	141.45083354995
4	120745	29534.48886276509	137.68378384492
4	120774	29539.413831335777	137.90252704875
4	120781	29542.339050894111	131.94965840369
4	120786	29543.673669826612	132.61296561488
4	120795	29547.897717571227	119.85463029855
4	120812	29550.266673487103	112.97620814661
4	120825	29553.014977812431	111.97635826109
4	120862	29560.894871013917	114.27225206281
4	120868	29563.632808626183	112.92456937115
4	120877	29567.4537915447	113.48216482061
4	120882	29569.057363990616	106.3744276124
4	120891	29571.68604679684	106.24170302238
4	120900	29574.539614323579	107.00302573889
4	120916	29579.354779714777	102.36960973233
4	120921	29579.52355658317	97.461220287401
4	120936	29581.4510535531	97.247319620886
4	120946	29581.927135097634	86.078107099356
4	120951	29585.836284221624	89.752805198356
4	120962	29589.01333961099	78.435255995135
4	120994	29595.17611082127	81.238412536216
4	121004	29595.424227890547	79.62506608836
4	121009	29596.795780915401	72.397886824985
4	121016	29597.816397201008	71.545141326934
4	121048	29605.229370881412	70.067867775478
4	121059	29608.340711054745	72.964064866872
4	121070	29609.315259865906	69.39209049758
4	121079	29611.254130264184	65.741572741176
4	121096	29614.300875549613	58.831669666777
4	121132	29622.158851399494	57.038027967808
4	121147	29625.515419369617	54.820500722968
4	121152	29626.726112846511	55.480100011786
4	121158	29630.46727905769	56.69758492811
4	121165	29631.879649386936	53.612155670409
4	121178	29634.632941382675	56.058398409288
4	121266	29652.691697935419	71.950162963382
4	121277	29655.428793417784	74.29272706883
4	121287	29656.780285349328	75.453620967005
4	121296	29657.405067079094	62.946083217957
4	121316	29661.544233244062	66.921882279258
4	121326	29665.788024126286	65.501523965313
4	121353	29669.327861844208	62.12730621279
4	121360	29670.233260999119	60.555601010157
4	121365	29671.051406281533	56.911479229669
4	121370	29671.937720378547	55.373733704488
4	121387	29677.895673919691	55.241445507394
4	121439	29687.474019086856	62.942488846968
4	121460	29691.290462912144	60.436852960336
4	121465	29692.245628355183	59.520049546489
4	121475	29693.57355029745	57.480254528151
4	121488	29696.388596765508	40.279713588979
4	121493	29697.830949944665	30.1038784295
4	121498	29698.193993099223	28.5342461051
4	121510	29704.538273394669	30.348711461359
4	121538	29710.040766159946	34.682990006182
4	121543	29710.347472423728	25.776092605284
4	121556	29715.623474932388	30.374113241295
4	121599	29727.431456017167	42.168868738821
4	121665	29739.0671230166	49.181630697835
4	121670	29739.854559238292	47.44611307788
4	121675	29741.295314187653	45.086140891581
4	121686	29746.318273827704	45.269394253504
4	121698	29748.014756631325	41.435156310548
4	121707	29751.019364553851	35.643603796804
4	121726	29754.247342230706	35.778652208394
4	121737	29756.710118044512	32.096136729861
4	121787	29766.715813337325	38.930869657751
4	121792	29766.922010610868	38.178384750144
4	121812	29775.706408346918	42.155406690403
4	121868	29781.459279517371	47.647541818559
4	121875	29782.096166431717	47.824754624877
4	121898	29786.061812413622	51.024064680468
4	121909	29786.842462440828	44.831759769019
4	121914	29787.85452050686	42.895915052286
4	121923	29789.701273085953	40.406157256041
4	121935	29790.960786084675	33.19582398598
4	121949	29794.310595318692	30.227283238328
4	121993	29813.252442343381	40.946754478918
4	122004	29815.964494441831	43.407611653787
4	122035	29823.57530549987	49.955451412707
4	122041	29826.544694522177	52.433463133069
4	122049	29829.365018574423	40.506689017065
4	122064	29832.902422336066	39.154112277376
4	122083	29835.298703115094	32.903274077867
4	122093	29839.561968741175	35.405921561511
4	122104	29840.320920357637	33.092944689747
4	122109	29841.203052532495	30.016445086483
4	122121	29844.704979898187	25.196864413858
4	122140	29849.572253999868	13.708477677991
4	122151	29851.746288793028	7.404530797022
4	122176	29856.558272645203	11.153979275788
4	122180	29858.391137932421	7.450149053094
4	122225	29871.367137485887	5.512145188477
4	122245	29873.392459449974	1.237162267113
4	122290	29883.19005118198	2.163984667101
4	122295	29884.805751375026	2.52790283633
4	122327	29894.576572611351	4.614037624385
4	122451	29940.410881219711	50.054106038543
4	122479	29948.346004112666	27.457297942267
4	122494	29950.212347988997	25.140503946133
4	122511	29957.886929910211	25.668113714665
4	122527	29960.580847788319	25.785772639637
4	122532	29961.317902391989	21.284361485661
4	122538	29961.976874394201	16.547368474912
4	122545	29962.073111453158	12.091781405118
4	122554	29963.994319351259	8.714260179867
4	122578	29966.345397082976	8.313099774102
4	122583	29968.857828103225	9.26482953348
4	122588	29969.760969860599	7.781618772303
4	122605	29974.7040913124	2.067751874396
4	122619	29981.104752663688	6.581637141836
4	122624	29981.402018329404	5.094778005598
4	122629	29981.76852566803	5.256595658642
4	122634	29983.222618308257	4.911178778107
4	122644	29986.555353220599	0.276505898385
4	122664	29988.950239790315	1.718398129046
4	122682	29990.099890307736	2.006350186082
4	122713	29995.635201749738	2.48398370499
4	122726	29998.787518710808	3.385610000305

