version 2
run Second-n2-19-20191016-14:53:11-11836
attr configname Second-n2
attr datetime 20191016-14:53:11
attr experiment Second-n2
attr inifile omnetpp.ini
attr iterationvars ""
attr iterationvarsf ""
attr measurement ""
attr network org.omnetpp.queueing.Pizza
attr processid 11836
attr repetition 19
attr replication ""
attr resultdir results
attr runnumber 19
attr seedset 19
param **.PS.maxInventoriedPS 2
param **.U1.interArrivalTime exponential(3s)
param **.U2.interArrivalTime exponential(5s)
param **.PS.serviceTimeForInventoryU1 exponential(1.0s)
param **.PS.serviceTimeForInventoryU2 exponential(1.2s)
param **.PS.serviceTimeDirectU1 exponential(1.4s)
param **.PS.serviceTimeDirectU2 exponential(1.4s)
param **.PS.probabilityProducing 0.7
param **.CS.serviceTimeU1 exponential(1.1s)
param **.CS.serviceTimeU2 exponential(1.4s)

vector 0 Pizza.EntryQueueU1 queueLength:vector ETV
attr interpolationmode sample-hold
attr title "queue length, vector"
vector 1 Pizza.CS queueLength:vector ETV
attr interpolationmode sample-hold
attr title "queue length, vector"
vector 2 Pizza.EntryQueueU2 queueLength:vector ETV
attr interpolationmode sample-hold
attr title "queue length, vector"
vector 3 Pizza.sink lifeTime:vector ETV
attr interpolationmode none
attr title "lifetime of arrived jobs, vector"
attr unit s
vector 4 Pizza.sink lifeTimeU2:vector ETV
attr interpolationmode none
attr title "lifetime of arrived jobs, vector"
attr unit s
0	0	0	0
0	23	4.604882837312	1
0	24	4.672932224028	0
0	60	12.563449984611	1
0	65	15.487000806111	0
0	87	21.328668103585	1
0	88	21.782178852026	0
0	101	24.840847804411	1
0	102	25.80156931918	0
0	122	27.244581542962	1
0	125	27.389497479928	0
0	169	42.748987610184	1
0	171	43.167804634734	0
0	177	43.711899904875	1
0	179	44.316518718676	2
0	181	44.402809870789	3
0	182	44.958947908472	2
0	189	45.98053434611	1
0	194	47.371797011548	0
0	198	48.312084500405	1
0	202	48.81990230787	0
0	225	53.50618872454	1
0	227	54.485594843699	2
0	229	55.022833299398	3
0	230	55.189162173355	2
0	235	55.751376569234	1
0	240	56.200552348008	0
0	251	61.251821621688	1
0	253	61.418099401767	2
0	259	62.607947801205	3
0	260	62.706599497203	2
0	267	63.730156232407	1
0	273	63.893247268471	2
0	278	66.07866864957	1
0	284	67.756698541324	0
0	311	74.868979378244	1
0	315	78.32393857879	2
0	317	80.323487938334	1
0	323	80.427743118993	2
0	324	80.489891018733	1
0	331	81.054330631141	2
0	333	81.311597794871	1
0	339	82.003632959683	0
0	350	85.232852788486	1
0	352	85.748789395852	0
0	377	91.165768414065	1
0	379	92.249989698797	2
0	387	93.67447757623	3
0	389	93.76389035806	4
0	390	96.018310040242	3
0	395	96.133719230158	2
0	402	96.66999740697	3
0	403	97.190480822531	2
0	409	97.793599527098	3
0	413	99.076933725993	4
0	414	99.656058209173	3
0	421	100.741907873509	2
0	426	101.561871878909	1
0	432	101.930399883252	2
0	437	103.726368838048	1
0	442	104.107109645804	0
0	456	104.640941767784	1
0	457	105.295492193552	0
0	493	112.037671477341	1
0	495	112.939506474791	2
0	497	115.015992964786	1
0	502	115.07279476835	0
0	542	125.549055811226	1
0	544	125.920963002629	2
0	546	126.874255617717	3
0	548	128.534426351951	4
0	551	131.108909467914	3
0	557	131.120606503248	4
0	558	131.128368316051	3
0	565	131.831851517827	2
0	571	133.391200724458	1
0	578	134.038111428945	0
0	598	137.657757790605	1
0	604	138.005593546744	0
0	630	149.443487179944	1
0	633	150.982224041008	0
0	645	154.100909325144	1
0	646	154.309906372325	0
0	660	157.312643013753	1
0	661	158.208700881823	0
0	685	167.198510445813	1
0	686	167.584075305967	0
0	699	168.544273684906	1
0	701	168.740976054952	2
0	702	169.476890988707	1
0	709	172.681119480169	0
0	727	177.220000554371	1
0	729	178.353615310698	0
0	735	178.58396611953	1
0	736	178.774161531049	0
0	747	181.446877789843	1
0	751	181.947513118969	2
0	752	183.313780636473	1
0	761	185.814571067437	0
0	767	185.87663973266	1
0	769	186.310107854311	0
0	776	188.144073989551	1
0	777	188.213617212237	0
0	796	190.785573146694	1
0	797	190.84760812383	0
0	815	194.974056827813	1
0	816	195.039914317995	0
0	822	195.928486604896	1
0	824	196.427474058679	2
0	828	199.863352380697	1
0	834	200.220673074139	2
0	836	200.582284258504	3
0	837	200.603760347394	2
0	843	202.591685291556	3
0	844	202.603342523521	2
0	849	203.249614360433	1
0	854	203.633693300035	0
0	860	203.835356598361	1
0	862	203.89199553612	2
0	863	203.976012920814	1
0	868	204.069144372708	0
0	876	205.851938386128	1
0	878	206.477019945273	2
0	881	207.46800665975	1
0	885	209.932880033439	2
0	887	210.318923034719	3
0	890	210.810749291452	2
0	894	210.958963605791	3
0	899	214.78085754474	2
0	908	216.375183117421	3
0	909	216.623231387843	2
0	915	217.382877565296	3
0	919	218.275035500695	4
0	920	218.374426325296	3
0	926	218.514859790397	4
0	927	218.800996246298	3
0	934	219.997203699363	2
0	940	220.121530120735	3
0	942	220.713571933935	4
0	945	221.125625398427	5
0	948	221.676422442684	4
0	953	225.133044949499	3
0	959	227.253221149977	2
0	965	227.650591058004	3
0	969	228.585685788821	4
0	971	230.170184874956	3
0	976	230.263855452465	2
0	984	234.581924234138	1
0	989	234.934496384795	0
0	1010	238.91901315826	1
0	1013	240.36850286462	0
0	1019	240.572271375026	1
0	1021	240.784465269311	0
0	1030	241.502847512476	1
0	1034	242.766399054461	2
0	1039	247.490159342582	1
0	1045	247.856853827543	0
0	1074	256.516391661577	1
0	1077	258.031774519341	0
0	1086	259.06203458808	1
0	1089	260.601366392335	0
0	1100	261.932452851953	1
0	1101	262.791958496802	0
0	1107	264.195331537997	1
0	1115	268.66982213962	2
0	1117	269.056533266552	3
0	1118	269.464686040463	2
0	1123	269.473643503106	1
0	1128	270.666333366726	0
0	1134	272.623448175489	1
0	1136	273.055886496965	2
0	1138	274.984728773001	3
0	1140	275.694292370327	4
0	1141	276.987061939813	3
0	1147	280.108842504773	2
0	1155	281.514870438382	1
0	1160	281.773321718179	0
0	1188	287.336527705691	1
0	1190	287.362046538636	2
0	1191	287.534439051117	1
0	1196	287.713966934242	0
0	1214	293.810061188871	1
0	1215	294.594279246085	0
0	1226	294.697778727485	1
0	1232	295.686810532679	2
0	1234	295.807711057302	3
0	1236	297.021020584756	2
0	1242	298.259486557575	3
0	1247	300.729493653624	4
0	1248	301.983826364311	3
0	1254	302.234746355156	4
0	1258	306.337668080784	3
0	1265	306.937569911946	4
0	1268	307.747518777004	3
0	1273	308.442567460083	2
0	1280	309.471069205406	1
0	1288	309.881890455145	2
0	1291	310.135763211473	3
0	1292	311.006204521004	2
0	1297	312.159458040602	1
0	1303	313.115356899077	0
0	1319	315.23202477563	1
0	1320	315.384291905482	0
0	1341	319.91921937312	1
0	1343	320.652499479217	2
0	1345	320.74426010429	3
0	1350	322.592825405536	2
0	1361	325.675005439385	1
0	1367	326.728014504586	0
0	1387	330.322571665757	1
0	1395	332.272860931964	2
0	1396	333.372385400546	1
0	1402	334.365733079538	0
0	1408	335.685706100487	1
0	1410	335.958350981574	2
0	1412	336.260137454994	1
0	1420	337.405799726948	2
0	1422	337.479686224964	3
0	1423	337.572613105647	2
0	1429	338.078705181762	1
0	1434	338.481254359945	0
0	1447	342.041865511513	1
0	1449	343.497557063352	0
0	1456	343.706086708876	1
0	1460	344.515637818682	0
0	1467	346.013039997029	1
0	1468	346.358973368103	0
0	1491	352.482091312844	1
0	1494	354.697387928572	0
0	1512	356.974332537107	1
0	1514	357.169960305298	2
0	1515	358.425604140269	1
0	1521	359.244317254363	0
0	1527	359.474980655611	1
0	1528	359.568046574699	0
0	1561	369.061409892429	1
0	1563	369.296356240863	2
0	1565	370.195356379957	3
0	1567	370.860189384438	4
0	1568	371.715917286357	3
0	1574	372.243984523424	2
0	1579	372.542595786383	1
0	1588	376.061155891032	0
0	1618	383.076269060864	1
0	1621	383.752208324898	2
0	1624	385.833415390959	1
0	1631	386.989704668381	0
0	1650	391.158002240947	1
0	1652	391.163519362227	2
0	1654	395.068807526795	1
0	1659	395.882422986771	0
0	1669	398.51089112252	1
0	1671	399.345550521161	2
0	1682	402.114155382306	3
0	1683	403.330352817999	2
0	1689	403.750772953883	1
0	1695	403.75561059737	2
0	1697	404.389905670036	1
0	1702	404.423780404482	0
0	1708	405.569402251906	1
0	1711	405.669199060342	0
0	1723	406.785942681659	1
0	1725	407.077243240307	2
0	1728	407.842357118732	1
0	1735	408.210758542934	2
0	1737	408.560608606727	1
0	1742	408.824651179462	0
0	1765	412.653044613694	1
0	1766	413.978507866778	0
0	1789	418.536196719314	1
0	1791	418.625843505862	2
0	1794	419.295335204402	1
0	1800	419.728460101757	2
0	1801	419.758304676454	1
0	1809	421.408597118666	2
0	1811	421.531821033447	3
0	1813	421.57763809205	4
0	1814	421.681835602709	3
0	1818	421.79746422984	4
0	1820	421.995864648326	5
0	1824	422.428826657859	4
0	1829	423.032929907863	3
0	1834	424.1288190245	2
0	1840	425.817089908234	1
0	1849	426.234483973927	2
0	1850	426.383053822283	1
0	1855	426.387331323594	0
0	1859	427.281654688481	1
0	1861	427.890816120691	2
0	1868	430.180338146132	1
0	1874	431.545424409041	0
0	1895	434.786937773116	1
0	1899	437.186019548511	2
0	1901	437.947289383281	3
0	1902	439.236926842344	2
0	1907	439.682725847888	1
0	1913	439.838480066202	2
0	1914	440.041021291541	1
0	1923	441.693339234165	2
0	1924	441.719579372209	1
0	1932	443.561421644031	0
0	1938	444.323108864162	1
0	1941	446.414699533169	0
0	1955	448.614882054467	1
0	1960	453.243176310815	0
0	1975	455.706997502924	1
0	1977	455.802145572661	2
0	1978	455.842817616449	1
0	1983	456.349634119301	0
0	1999	463.143245143122	1
0	2000	463.876640335734	0
0	2022	471.655570694362	1
0	2023	473.927373330587	0
0	2029	474.719558278558	1
0	2030	474.805910747499	0
0	2036	474.82176794346	1
0	2037	474.929329361803	0
0	2067	480.253082683817	1
0	2072	481.595387244329	0
0	2078	482.68945097854	1
0	2079	484.299336221835	0
0	2115	492.528149074813	1
0	2119	497.866931898656	2
0	2120	499.892480797702	1
0	2126	500.875122775567	0
0	2164	513.483273405838	1
0	2165	515.196492724283	0
0	2172	515.497014231649	1
0	2173	516.304564821507	0
0	2179	516.335451434549	1
0	2181	516.667321128123	2
0	2183	517.024077624998	3
0	2184	517.750095722141	2
0	2190	519.367760770751	1
0	2196	519.373018901887	2
0	2197	519.777422301855	1
0	2202	520.223047771826	0
0	2208	520.659303653184	1
0	2209	520.812262165945	0
0	2220	523.542834846162	1
0	2224	527.181845039897	2
0	2230	532.355169056797	1
0	2236	534.358960195986	2
0	2237	535.117728498573	1
0	2242	535.51429796771	0
0	2248	535.568181903276	1
0	2249	536.216525625744	0
0	2255	536.625147547023	1
0	2256	537.30341471188	0
0	2278	541.396638831507	1
0	2282	546.028954772804	2
0	2283	546.093790252908	1
0	2291	547.604458687795	0
0	2313	555.379163020225	1
0	2314	555.665609278771	0
0	2362	569.823255880784	1
0	2363	572.162147901536	0
0	2440	592.112006022598	1
0	2441	592.588084194943	0
0	2449	592.829726621945	1
0	2450	594.563902554105	0
0	2480	597.934170972258	1
0	2483	600.270280890674	2
0	2484	600.923854820997	1
0	2489	601.219216194179	0
0	2495	601.803186441497	1
0	2498	603.636221071746	0
0	2553	623.447989712988	1
0	2554	623.955733564844	0
0	2562	625.369949077388	1
0	2563	625.977584557869	0
0	2575	629.047284809183	1
0	2577	630.466008480248	0
0	2631	650.709127491398	1
0	2633	650.92074226539	2
0	2638	652.594481258857	3
0	2639	652.794060953549	2
0	2645	653.299999752328	3
0	2648	654.900976662045	2
0	2653	655.300270997484	1
0	2662	658.325604596694	0
0	2674	659.606223468131	1
0	2676	659.837123449801	2
0	2677	660.023503784715	1
0	2684	660.580659506665	2
0	2686	661.230064537791	1
0	2692	661.778535012272	2
0	2695	663.490720984837	3
0	2696	663.566079756978	2
0	2702	663.854891163421	1
0	2708	664.292246889153	0
0	2766	685.245463458125	1
0	2767	686.265090332578	0
0	2773	686.335606618587	1
0	2776	686.846138213192	2
0	2777	687.105918593044	1
0	2782	687.588455153805	0
0	2879	714.487396463443	1
0	2881	714.841235759708	2
0	2882	715.165445296295	1
0	2888	715.549917214657	2
0	2889	715.850632758343	1
0	2894	715.905735426828	0
0	2950	731.874253084313	1
0	2952	732.428569442663	2
0	2956	734.265333250413	1
0	2961	734.37370742857	0
0	3013	747.163509217065	1
0	3014	747.611566861698	0
0	3053	762.042244251652	1
0	3056	762.518243180184	2
0	3058	762.90702784967	3
0	3059	763.067770756295	2
0	3064	763.920664779839	1
0	3074	765.189052082686	2
0	3075	767.47209654327	1
0	3082	768.307129911705	0
0	3091	768.66991758836	1
0	3093	769.259647753525	0
0	3100	772.510032146734	1
0	3102	773.404671541311	2
0	3104	774.125621599477	3
0	3105	774.53670540494	2
0	3112	775.642728498448	3
0	3113	776.208655849759	2
0	3120	777.946321978074	3
0	3122	778.005981335295	4
0	3124	778.451178946437	5
0	3125	779.067496282252	4
0	3131	779.67249451553	5
0	3132	779.747781181259	4
0	3138	780.258674181659	5
0	3140	781.824780372714	6
0	3141	781.890667459195	5
0	3146	782.624703584122	4
0	3150	783.602232973301	5
0	3154	785.603347557269	4
0	3159	785.63902155484	3
0	3163	786.405446933461	4
0	3165	786.480045002975	5
0	3167	788.338294563585	6
0	3170	789.996530360001	5
0	3174	790.041760850179	6
0	3180	792.422111856841	7
0	3181	793.979188813668	6
0	3186	794.754732763772	5
0	3192	796.49857569914	6
0	3194	797.271759860463	7
0	3199	797.73380092932	6
0	3204	799.15072821393	5
0	3208	799.428900531834	6
0	3213	801.184089285527	5
0	3217	801.51990556309	6
0	3219	801.850037051591	7
0	3222	802.302241958543	6
0	3227	803.881731507224	5
0	3231	804.230327678468	6
0	3235	805.113161679381	5
0	3241	805.319437348074	6
0	3242	805.870099450653	5
0	3246	806.41724643535	6
0	3249	807.854899194932	5
0	3254	809.662364404846	4
0	3261	810.265448185678	3
0	3267	810.637653137712	2
0	3273	811.37245529761	3
0	3275	812.051346503826	2
0	3280	813.151127056029	1
0	3285	813.216205857196	0
0	3296	815.267311947952	1
0	3298	816.523995862993	0
0	3314	818.419854245368	1
0	3316	819.093406371757	2
0	3318	819.173202781502	3
0	3324	824.940535302626	4
0	3325	825.500442398754	3
0	3331	825.625049417514	4
0	3333	825.635663564745	5
0	3337	826.48705116875	4
0	3344	829.048195360442	3
0	3350	829.231371290168	4
0	3353	829.474161442747	5
0	3354	829.698916929759	4
0	3361	831.888383178227	3
0	3366	832.041499501273	2
0	3370	832.515623027038	3
0	3373	833.411094878258	2
0	3378	834.634644702381	1
0	3383	836.275408003199	0
0	3397	839.032032966094	1
0	3404	841.382944095927	0
0	3410	841.732984078461	1
0	3411	843.114355653849	0
0	3427	844.479936914447	1
0	3428	845.289365559268	0
0	3444	847.516554919375	1
0	3448	847.643888640007	2
0	3449	848.066601600544	1
0	3455	848.665420326234	0
0	3468	849.365238200017	1
0	3469	849.487574527899	0
0	3475	849.739830235346	1
0	3476	850.440215131042	0
0	3480	850.451868303826	1
0	3486	851.303431190194	0
0	3497	853.924554992788	1
0	3502	858.639871293418	0
0	3509	860.412894042315	1
0	3510	860.796471283728	0
0	3516	861.021376023219	1
0	3517	861.154312348167	0
0	3521	861.188818575746	1
0	3523	861.939221092974	2
0	3528	862.285893472324	3
0	3530	863.282963964173	2
0	3536	864.074250406747	3
0	3537	864.202193050781	2
0	3544	864.884981784263	3
0	3545	864.955252690654	2
0	3553	866.236059598452	1
0	3561	867.212649637227	2
0	3562	867.60294014435	1
0	3567	867.866506868935	0
0	3571	870.110732131288	1
0	3575	873.204787119058	2
0	3576	873.619061736455	1
0	3582	876.00230781217	0
0	3588	876.398329236991	1
0	3592	878.551688299973	0
0	3598	879.019087031412	1
0	3599	880.054163672086	0
0	3615	883.045301304262	1
0	3617	885.190990374443	0
0	3624	887.805193645099	1
0	3625	888.478403971654	0
0	3657	894.197644887855	1
0	3658	895.606666029376	0
0	3671	896.952371902177	1
0	3673	897.635484185699	0
0	3679	897.878409531548	1
0	3683	900.616794384148	2
0	3684	901.061194546183	1
0	3688	901.655236477436	2
0	3693	903.70443031695	3
0	3695	903.913870877032	4
0	3696	904.397745601692	3
0	3702	904.886890745725	4
0	3703	904.888330528003	3
0	3712	908.643771277665	2
0	3717	910.176782725804	1
0	3730	912.804928964709	0
0	3746	914.767187481224	1
0	3748	915.787426837303	2
0	3749	916.039266092392	1
0	3754	916.381122074646	0
0	3761	918.237077915589	1
0	3764	919.121753243419	2
0	3765	919.279578419123	1
0	3771	919.474696775589	2
0	3773	920.363747448435	3
0	3775	920.860458448492	2
0	3782	923.182239008313	1
0	3791	926.488058583236	2
0	3792	927.153621132252	1
0	3797	927.34889505952	0
0	3813	930.612814275641	1
0	3816	931.931882358383	0
0	3823	932.593805454122	1
0	3824	932.712392922209	0
0	3866	939.927658390684	1
0	3867	940.037255130264	0
0	3875	941.152381175234	1
0	3876	941.45181865609	0
0	3899	943.528397509566	1
0	3903	946.158219276705	0
0	3932	952.835919877328	1
0	3933	953.471507624314	0
0	3942	954.634890509983	1
0	3948	956.677005430668	2
0	3950	956.941658959493	3
0	3951	958.03599184172	2
0	3957	960.022367021705	1
0	3964	960.46819442616	0
0	3968	960.699066467268	1
0	3971	962.541551958477	0
0	3977	963.108939243435	1
0	3982	965.554397532962	0
0	3986	966.177046167432	1
0	3989	966.527263879035	0
0	4011	969.358635933748	1
0	4013	969.610732430001	2
0	4019	970.1222773939	3
0	4021	970.563805281833	2
0	4028	971.273605201507	3
0	4031	972.739812209814	2
0	4039	974.306619252168	1
0	4044	976.20256001336	0
0	4065	979.289374241573	1
0	4068	980.442361297907	0
0	4103	994.777582588448	1
0	4105	997.068253426874	2
0	4106	998.746116819156	1
0	4112	999.42551906891	2
0	4113	999.721600973667	1
0	4118	1001.896915327255	0
0	4124	1003.882934450306	1
0	4126	1004.059574753886	2
0	4130	1005.934924421296	1
0	4137	1007.810243589229	0
0	4150	1010.903738221538	1
0	4154	1011.243663957643	2
0	4156	1012.007890934336	3
0	4157	1012.012085807368	2
0	4163	1012.443468603786	1
0	4169	1012.568493016425	0
0	4193	1014.661830885264	1
0	4194	1015.705982346922	0
0	4208	1016.983790176779	1
0	4209	1018.259053747498	0
0	4220	1020.328167627849	1
0	4224	1021.894109540936	0
0	4248	1028.95535846112	1
0	4251	1031.906693090823	0
0	4283	1042.424237674097	1
0	4286	1043.090846416577	2
0	4289	1044.769148785635	3
0	4291	1046.471766113797	2
0	4299	1048.707923044142	1
0	4306	1049.51015464199	0
0	4319	1049.903185489278	1
0	4320	1051.710118382907	0
0	4328	1052.975883932688	1
0	4329	1053.047241265907	0
0	4333	1056.891670242245	1
0	4336	1057.268467427179	0
0	4340	1057.31148524278	1
0	4343	1058.085363895959	0
0	4351	1059.209105156801	1
0	4352	1059.460415362245	0
0	4358	1060.761243343149	1
0	4362	1062.165679057374	0
0	4372	1064.693612217548	1
0	4374	1066.965095118869	0
0	4395	1071.218657337319	1
0	4397	1073.896076744201	2
0	4401	1074.844909711299	1
0	4407	1075.15688935205	0
0	4413	1076.228167261313	1
0	4414	1076.932156095869	0
0	4420	1077.504795121399	1
0	4423	1079.070020869861	0
0	4430	1079.764754028214	1
0	4431	1079.847749234359	0
0	4449	1082.957933980248	1
0	4450	1083.03942578133	0
0	4470	1091.471416579713	1
0	4476	1092.483195496734	2
0	4477	1092.768794167238	1
0	4483	1092.769157600255	2
0	4486	1092.912158488263	3
0	4488	1094.751388024157	4
0	4489	1095.609206474645	3
0	4494	1095.737737282423	2
0	4499	1096.311887110493	1
0	4503	1096.535315452871	2
0	4505	1097.86213283316	3
0	4507	1098.796968227771	4
0	4510	1099.776592656143	3
0	4518	1104.639784090986	2
0	4525	1105.512699669237	3
0	4528	1106.275103618103	4
0	4529	1106.281281300799	3
0	4534	1106.884257907643	2
0	4539	1107.577052809247	1
0	4545	1108.495879030435	0
0	4551	1109.306700339559	1
0	4553	1109.536461609866	2
0	4554	1109.654908961001	1
0	4560	1111.540324791716	2
0	4561	1112.216329244183	1
0	4567	1113.649124090972	2
0	4571	1114.182149801375	3
0	4574	1115.216075625044	2
0	4579	1116.789603519628	1
0	4583	1117.240633206279	2
0	4589	1117.660620798154	3
0	4591	1118.003971932706	4
0	4592	1119.312591803368	3
0	4597	1120.293516348119	2
0	4603	1121.527324306291	1
0	4608	1121.940487861041	0
0	4622	1125.08406763605	1
0	4625	1125.700867723804	2
0	4627	1125.99308659382	3
0	4628	1126.907176267028	2
0	4634	1127.759289746252	1
0	4639	1128.678731757322	0
0	4653	1130.53134623546	1
0	4656	1133.353712700729	0
0	4680	1138.484567571455	1
0	4681	1142.08929960932	0
0	4692	1143.842482237785	1
0	4694	1144.911818672234	2
0	4697	1145.598007321755	1
0	4702	1145.609593490734	0
0	4708	1145.684915797798	1
0	4712	1145.973940941152	2
0	4715	1147.475013518973	1
0	4721	1148.70769485508	2
0	4726	1151.016721239321	1
0	4732	1151.725262845544	2
0	4733	1153.708244914437	1
0	4739	1154.183781386082	0
0	4755	1155.231942616911	1
0	4756	1155.517333454294	0
0	4787	1165.384504858685	1
0	4789	1166.483864917122	2
0	4790	1166.700131349231	1
0	4796	1167.66162410416	0
0	4821	1175.023375891622	1
0	4822	1175.9391830951	0
0	4846	1179.487911113571	1
0	4848	1179.840456202726	2
0	4850	1180.355825682478	3
0	4851	1180.418005641614	2
0	4856	1180.652429174315	1
0	4863	1183.189999405885	2
0	4865	1183.653454618052	1
0	4871	1184.253400031846	0
0	4879	1185.638413178864	1
0	4882	1186.500644061259	0
0	4913	1191.711902386494	1
0	4917	1193.908164698988	2
0	4920	1195.038778955347	1
0	4925	1195.059588262684	0
0	4945	1203.071242388808	1
0	4949	1204.00471993195	0
0	4982	1221.00010501697	1
0	4984	1222.01039185698	2
0	4986	1223.799513241024	3
0	4989	1224.36981973998	2
0	4994	1224.759337156501	1
0	5000	1226.600368036168	2
0	5001	1227.365898158738	1
0	5006	1229.411129919669	0
0	5015	1230.627997898339	1
0	5019	1231.374350311159	2
0	5023	1232.560943522861	3
0	5024	1233.697797102891	2
0	5029	1233.791471638531	1
0	5038	1236.827316950411	0
0	5101	1257.924118267078	1
0	5102	1258.811500578056	0
0	5114	1265.097108895239	1
0	5119	1266.234238444076	0
0	5131	1268.963832894641	1
0	5138	1272.409016486825	2
0	5139	1272.73242907613	1
0	5145	1273.006411056406	2
0	5146	1273.334729064938	1
0	5152	1273.651933615824	2
0	5155	1274.437049804571	1
0	5159	1275.48314915884	2
0	5162	1277.837847382848	1
0	5171	1280.039802578819	0
0	5201	1286.18290402104	1
0	5209	1288.049817343275	0
0	5252	1302.527448443026	1
0	5255	1304.092117893602	0
0	5261	1304.416332465944	1
0	5263	1306.207211832772	0
0	5269	1306.692740958101	1
0	5271	1307.0506159312	2
0	5273	1307.080867622093	3
0	5275	1307.839711057506	4
0	5280	1309.388852848433	5
0	5281	1309.426547512501	4
0	5287	1311.225228767563	3
0	5293	1311.299246428767	4
0	5297	1311.848927846963	3
0	5307	1312.670207309214	4
0	5310	1313.693268740196	3
0	5316	1314.650621458802	2
0	5321	1314.695940503183	1
0	5327	1315.264533478224	2
0	5331	1316.989458009711	3
0	5335	1318.935105125842	2
0	5341	1319.840731275433	1
0	5346	1321.026269829534	0
0	5365	1322.362790480155	1
0	5367	1322.955350726331	0
0	5388	1327.718381354479	1
0	5389	1328.582660901997	0
0	5397	1330.111930046821	1
0	5399	1331.807410698027	2
0	5401	1332.384965702466	1
0	5410	1333.719721092961	2
0	5413	1335.320011920286	1
0	5418	1335.535852732897	0
0	5431	1335.942775109112	1
0	5433	1337.151048558234	2
0	5435	1338.308989411175	1
0	5441	1338.624175419345	2
0	5444	1341.27308351451	3
0	5446	1342.150452763889	4
0	5448	1343.088712171689	5
0	5449	1344.649400974667	4
0	5454	1344.700615741611	3
0	5460	1345.764570370345	4
0	5463	1346.976369911465	3
0	5468	1346.991933751729	2
0	5473	1347.471055772971	1
0	5479	1348.046418994232	2
0	5481	1348.3115550932	3
0	5484	1349.159911939785	2
0	5489	1351.188263217842	1
0	5494	1351.206923756694	0
0	5498	1351.284012834286	1
0	5507	1352.719074815319	0
0	5533	1358.095767387954	1
0	5535	1359.1774358722	2
0	5538	1359.702397021217	1
0	5545	1360.625984605609	2
0	5548	1361.008317811134	3
0	5551	1362.309670288033	2
0	5557	1362.591685299223	3
0	5558	1363.02153289881	2
0	5564	1363.643645827908	1
0	5568	1363.654215753843	2
0	5577	1366.627703942221	3
0	5579	1369.042934495399	2
0	5585	1371.134137287092	1
0	5591	1372.656415469238	2
0	5592	1373.244686467705	1
0	5597	1373.366394968118	0
0	5601	1373.467181762703	1
0	5604	1375.632578288359	0
0	5608	1376.496819297	1
0	5612	1378.545393720045	2
0	5614	1379.051380517199	3
0	5616	1379.167328923205	4
0	5617	1379.194999407484	3
0	5621	1379.734645889267	4
0	5626	1381.254946583912	3
0	5633	1384.230498544846	2
0	5638	1384.303568185515	1
0	5645	1384.80849140432	0
0	5658	1385.13573659151	1
0	5659	1385.409631747972	0
0	5681	1388.741495958916	1
0	5682	1389.000270062838	0
0	5712	1393.231632647646	1
0	5715	1394.174987265888	0
0	5724	1395.136768847297	1
0	5729	1399.062635574513	2
0	5730	1400.235252442869	1
0	5736	1400.430407766133	2
0	5738	1400.486245931077	3
0	5739	1400.617079968962	2
0	5746	1402.15275808517	1
0	5754	1402.724445934838	2
0	5756	1403.729732301392	1
0	5761	1403.791969339282	0
0	5778	1405.042864865284	1
0	5783	1406.450833653894	0
0	5800	1411.442816390074	1
0	5801	1411.83063235038	0
0	5810	1414.546670936531	1
0	5814	1415.025440079438	2
0	5816	1415.336928516638	1
0	5822	1415.503637098255	2
0	5825	1415.979454454726	3
0	5826	1417.022515641814	2
0	5832	1417.924127050501	1
0	5838	1417.997435928205	2
0	5839	1418.082300715616	1
0	5844	1418.193209745618	0
0	5861	1426.412910198713	1
0	5863	1426.913799858927	2
0	5864	1427.00072286746	1
0	5870	1427.384730980405	2
0	5872	1427.633591646037	3
0	5874	1428.158741907393	4
0	5877	1429.805499942969	3
0	5883	1430.497023579864	2
0	5892	1431.888107825968	3
0	5895	1432.951104164422	2
0	5900	1434.893746802486	1
0	5905	1435.270467564198	0
0	5911	1435.479345917301	1
0	5914	1437.251600245386	0
0	5921	1437.767528789752	1
0	5923	1438.131550411902	2
0	5924	1438.895519070876	1
0	5930	1439.93602921305	0
0	5946	1440.630380173479	1
0	5947	1440.69738462595	0
0	5956	1440.830564943943	1
0	5958	1442.19011996178	2
0	5961	1442.611167700748	1
0	5968	1444.674004803271	0
0	5985	1448.391777070494	1
0	5987	1449.032186990728	2
0	5989	1449.35216221868	3
0	5991	1450.519655058163	4
0	5992	1450.643898525155	3
0	5997	1452.874799593898	2
0	6006	1454.491620450566	1
0	6011	1454.7000060714	0
0	6019	1455.240414871737	1
0	6020	1455.496096230121	0
0	6032	1458.638790922571	1
0	6034	1462.717997319797	2
0	6035	1465.497367393436	1
0	6041	1466.294169314209	2
0	6045	1466.647869798246	1
0	6051	1467.256823151493	2
0	6052	1468.004725342721	1
0	6058	1468.033026106451	2
0	6059	1468.202120700069	1
0	6065	1469.921643361577	2
0	6069	1471.479514063287	1
0	6077	1473.198583999951	2
0	6079	1474.426480499791	3
0	6081	1474.803203761514	4
0	6083	1475.617036291261	5
0	6084	1475.636834443138	4
0	6089	1476.045674429986	3
0	6094	1476.431305839537	2
0	6099	1477.300499763423	1
0	6106	1478.655291298532	2
0	6107	1480.198793207759	1
0	6112	1481.767023358949	0
0	6124	1482.433429177078	1
0	6125	1482.714836594754	0
0	6136	1485.25270486194	1
0	6137	1485.571952834427	0
0	6144	1486.538266427978	1
0	6147	1487.649456134676	2
0	6149	1488.987137770294	1
0	6154	1489.159547709343	0
0	6168	1492.316782154575	1
0	6171	1493.845226084961	0
0	6186	1496.19840872786	1
0	6187	1497.109810534359	0
0	6208	1503.750820586829	1
0	6211	1505.514696748597	0
0	6219	1506.263349381091	1
0	6220	1506.331123006922	0
0	6288	1526.741781751125	1
0	6291	1527.101203797258	2
0	6292	1527.840705656926	1
0	6297	1528.192284951073	0
0	6317	1532.358746075327	1
0	6320	1532.591284757507	0
0	6351	1543.108263005362	1
0	6353	1543.919506228257	0
0	6383	1551.168875728261	1
0	6384	1551.548947659669	0
0	6394	1551.857530178152	1
0	6395	1553.367845509686	0
0	6399	1556.305908740318	1
0	6402	1558.448770227188	0
0	6406	1558.634819889126	1
0	6409	1559.07390476814	0
0	6429	1564.529289968315	1
0	6431	1565.583167438045	0
0	6447	1567.190635871601	1
0	6451	1568.096544373081	2
0	6456	1570.91356556572	1
0	6462	1572.916708446161	0
0	6494	1579.468558487941	1
0	6498	1581.947809249347	0
0	6511	1586.20116368341	1
0	6513	1587.929278471203	2
0	6514	1588.297901849374	1
0	6519	1589.226420620965	0
0	6530	1589.747023563258	1
0	6534	1590.512773879457	0
0	6563	1594.827638613359	1
0	6565	1596.027350696418	0
0	6574	1596.80271945277	1
0	6580	1599.910847801522	2
0	6584	1601.204789150853	3
0	6585	1602.580824012456	2
0	6591	1602.841388203868	3
0	6593	1603.08696049982	2
0	6599	1604.086593811698	1
0	6604	1605.077259273622	0
0	6608	1607.828591630697	1
0	6612	1609.070432181727	2
0	6613	1609.244330639935	1
0	6620	1611.151408420153	0
0	6628	1614.108140461738	1
0	6631	1614.909717950558	0
0	6655	1618.318550426522	1
0	6660	1619.503759200575	0
0	6666	1619.512933603092	1
0	6670	1621.384318128752	2
0	6673	1622.57194243326	1
0	6678	1623.361710739008	0
0	6693	1624.506009244898	1
0	6699	1625.508668490882	2
0	6703	1627.123562626038	1
0	6708	1627.546319445764	0
0	6753	1633.824766072454	1
0	6754	1635.075330055131	0
0	6765	1637.177806126153	1
0	6767	1637.509620447294	2
0	6768	1638.55390280153	1
0	6774	1638.847152724538	0
0	6792	1643.755237575883	1
0	6794	1644.965373399372	2
0	6799	1646.099417638228	1
0	6806	1649.150418184222	2
0	6808	1650.292489956079	3
0	6811	1652.40316211864	2
0	6816	1652.729126671551	1
0	6823	1653.187396978281	0
0	6837	1657.242499237461	1
0	6838	1657.557016672166	0
0	6844	1657.608880140154	1
0	6846	1658.695271565056	0
0	6857	1659.710973050952	1
0	6862	1661.420751247942	2
0	6864	1661.667344177904	3
0	6865	1661.766363147725	2
0	6871	1661.774347999821	3
0	6878	1665.006194638575	4
0	6879	1666.505231951227	3
0	6884	1666.820159495891	2
0	6890	1667.562808396031	3
0	6893	1667.974334057292	2
0	6902	1669.913181586772	1
0	6907	1670.469691030633	0
0	6919	1672.170388411573	1
0	6920	1672.888571693923	0
0	6927	1673.536496449558	1
0	6928	1674.050733484121	0
0	6942	1678.664628658859	1
0	6945	1680.641773426094	0
0	6966	1684.09163798025	1
0	6967	1684.495380844393	0
0	7018	1693.638245197412	1
0	7020	1693.820168735915	2
0	7021	1694.007027070808	1
0	7025	1694.065785935474	2
0	7027	1697.904371893082	3
0	7032	1699.090865601915	2
0	7038	1700.383877267052	3
0	7043	1700.755524038561	2
0	7049	1701.721483280437	1
0	7054	1702.76706307603	0
0	7063	1703.67935986839	1
0	7069	1707.37275751799	0
0	7105	1714.347207609313	1
0	7107	1714.638988673459	2
0	7109	1715.26899682623	3
0	7113	1716.090675619431	2
0	7118	1716.240141446224	1
0	7125	1716.788553089272	0
0	7169	1727.139124845351	1
0	7172	1727.417489414686	2
0	7174	1727.625871788911	3
0	7180	1730.930683389774	2
0	7186	1731.46065212652	3
0	7188	1731.485708971483	4
0	7190	1733.174174057895	3
0	7196	1733.554953106825	4
0	7199	1735.914451955374	5
0	7200	1736.007354990342	4
0	7205	1736.306068213684	3
0	7209	1737.024659899282	4
0	7214	1738.941560089992	3
0	7221	1740.162083415804	2
0	7227	1742.012354902848	3
0	7230	1743.04653475125	2
0	7235	1743.706982860584	1
0	7242	1744.680783568868	0
0	7267	1748.213842710807	1
0	7268	1748.225955777903	0
0	7286	1752.057792728502	1
0	7288	1752.470157617816	2
0	7290	1753.680244270345	3
0	7292	1754.360106552817	4
0	7293	1755.686813346105	3
0	7299	1755.722054103415	4
0	7300	1755.772486794558	3
0	7311	1757.315384244145	4
0	7312	1757.440224946531	3
0	7317	1758.512137559607	2
0	7324	1760.244871253755	1
0	7330	1760.301582616603	2
0	7332	1761.074741035044	1
0	7337	1761.423347047904	0
0	7353	1763.196268536534	1
0	7356	1764.175040277979	0
0	7360	1764.680962621247	1
0	7362	1764.7435328506	2
0	7364	1765.12772213791	3
0	7369	1766.237596625617	2
0	7376	1768.772112438378	1
0	7381	1770.152350450117	0
0	7392	1772.622807939141	1
0	7394	1774.334312952078	0
0	7411	1777.247928342568	1
0	7413	1778.046848736116	0
0	7424	1778.483717839806	1
0	7430	1782.117589241747	2
0	7433	1784.569240709577	1
0	7438	1784.91034538249	0
0	7464	1793.79965025589	1
0	7470	1796.543559844866	2
0	7472	1796.891765138898	3
0	7482	1802.48252325016	2
0	7488	1803.330857665902	3
0	7489	1803.463510997693	2
0	7494	1803.885630976844	1
0	7502	1808.244506123256	2
0	7507	1810.938307798564	3
0	7509	1811.440847927285	4
0	7510	1811.651632855434	3
0	7516	1811.859910166046	4
0	7520	1812.642621455133	3
0	7524	1813.032046738166	4
0	7528	1818.34452469836	5
0	7531	1819.587210856615	4
0	7537	1820.282190062237	3
0	7544	1820.652264228053	2
0	7548	1820.957875370728	3
0	7558	1824.203268041254	4
0	7559	1824.56859237858	3
0	7565	1825.828198102051	4
0	7569	1826.840455445455	3
0	7576	1829.406455137058	2
0	7583	1831.183336787725	3
0	7585	1831.986524842335	2
0	7590	1832.623929029405	1
0	7596	1833.136740415319	2
0	7597	1833.410662962651	1
0	7601	1834.022258771665	2
0	7605	1834.285174553734	3
0	7609	1835.440380396348	4
0	7610	1836.542066259925	3
0	7616	1837.436400187707	4
0	7622	1838.904015345624	5
0	7629	1840.399013608586	4
0	7635	1840.439444159924	5
0	7637	1841.226792114465	4
0	7643	1841.356892073153	5
0	7644	1841.466089831511	4
0	7651	1842.653181330906	3
0	7656	1843.711067187928	2
0	7662	1844.021848604241	1
0	7668	1844.948887877496	2
0	7671	1846.969247454971	1
0	7677	1847.535340701831	2
0	7678	1848.452734323961	1
0	7683	1849.125872065153	0
0	7725	1860.82075972244	1
0	7732	1864.060282588083	2
0	7735	1865.798183941449	1
0	7744	1866.89122142474	0
0	7805	1884.687287930551	1
0	7807	1887.817928258904	2
0	7810	1888.86304559923	1
0	7816	1889.319356970002	0
0	7837	1893.550235595437	1
0	7841	1895.396932517728	2
0	7843	1895.748985375148	3
0	7844	1895.992738127561	2
0	7851	1896.513984952046	1
0	7859	1896.776933353645	0
0	7873	1899.789289030337	1
0	7877	1901.660150977285	0
0	7881	1901.99142409807	1
0	7886	1903.023734037952	0
0	7892	1905.203080853668	1
0	7894	1905.447213922013	0
0	7917	1908.59452751969	1
0	7920	1909.345315603026	0
0	7931	1916.511810846025	1
0	7935	1917.286189823288	0
0	7956	1923.991472538328	1
0	7959	1924.440529336794	0
0	7983	1928.879039846529	1
0	7987	1930.235857965566	2
0	7988	1930.599247459914	1
0	7994	1931.522189838583	0
0	8018	1933.416301926749	1
0	8019	1934.300479739433	0
0	8025	1934.302889909075	1
0	8027	1936.440846089046	0
0	8033	1936.684278659742	1
0	8035	1938.649054537519	0
0	8087	1952.190590518086	1
0	8089	1952.361947637117	0
0	8102	1953.81044267682	1
0	8103	1954.273750731612	0
0	8111	1957.319356446425	1
0	8112	1958.565380240542	0
0	8126	1961.606701634639	1
0	8128	1961.972222928452	2
0	8129	1961.975134461929	1
0	8135	1962.192570804693	0
0	8142	1964.065150610313	1
0	8143	1965.489175650139	0
0	8158	1968.456877735627	1
0	8161	1969.853678448173	0
0	8176	1972.027330079176	1
0	8178	1972.218665702413	2
0	8181	1973.682859525185	1
0	8186	1973.759036446475	0
0	8195	1974.3508244422	1
0	8196	1974.541337876125	0
0	8232	1978.424743178935	1
0	8241	1983.159789848882	2
0	8242	1984.268562676153	1
0	8247	1984.632052092609	0
0	8261	1985.742967067584	1
0	8263	1985.767751623805	0
0	8279	1987.182952270116	1
0	8281	1987.475475829221	2
0	8283	1987.654984628423	3
0	8285	1988.92822770206	4
0	8289	1991.005521820119	5
0	8290	1994.54620570038	4
0	8295	1994.90949737464	3
0	8303	1995.393865342194	2
0	8309	1996.538345902444	1
0	8314	1997.224648759106	0
0	8320	1998.288541688111	1
0	8325	2000.284680503517	0
0	8338	2006.017539913276	1
0	8339	2006.74171756125	0
0	8346	2007.680493465632	1
0	8350	2009.555652918501	0
0	8376	2012.561496835584	1
0	8377	2012.675107064913	0
0	8386	2014.034977343889	1
0	8393	2014.637932963832	0
0	8399	2014.760985343603	1
0	8401	2017.450813770172	0
0	8427	2023.018822364487	1
0	8428	2023.933716667721	0
0	8454	2031.23920798241	1
0	8456	2031.264834520592	2
0	8458	2031.642814632356	3
0	8459	2032.575687650055	2
0	8464	2032.877404120041	1
0	8470	2033.131231087234	2
0	8473	2035.390655916974	1
0	8478	2035.458398379879	0
0	8482	2035.874813559105	1
0	8484	2036.261442052905	2
0	8487	2038.847103226028	1
0	8493	2039.746897574941	0
0	8499	2040.033731595618	1
0	8500	2040.114396362928	0
0	8506	2040.993359733867	1
0	8511	2045.104636184745	0
0	8545	2054.280935701971	1
0	8546	2054.943457088392	0
0	8555	2056.327847975881	1
0	8557	2056.873257326149	0
0	8585	2061.475581332447	1
0	8586	2061.646396738716	0
0	8592	2062.493553987185	1
0	8593	2062.576719219515	0
0	8597	2063.605705046044	1
0	8601	2065.41684234968	0
0	8613	2066.027935206465	1
0	8615	2067.147715002071	0
0	8621	2067.515852816977	1
0	8624	2068.551278406583	2
0	8625	2068.809396788984	1
0	8630	2069.001515116289	0
0	8641	2070.112784085643	1
0	8643	2070.400518152995	2
0	8646	2071.458123578982	3
0	8647	2072.032489683505	2
0	8652	2072.201107952236	1
0	8660	2073.537070370354	0
0	8669	2074.907582126057	1
0	8674	2076.088407442921	2
0	8675	2076.720876592861	1
0	8680	2076.742185180608	0
0	8686	2077.794694407578	1
0	8690	2079.491971691997	0
0	8701	2084.376256924098	1
0	8705	2084.870303148572	2
0	8708	2087.420183951908	1
0	8714	2089.4122722268	0
0	8732	2095.270132184796	1
0	8733	2095.298272566908	0
0	8744	2096.552311584641	1
0	8746	2097.616502708797	2
0	8748	2098.292374687592	1
0	8752	2098.622517423215	2
0	8755	2099.383018228628	1
0	8762	2100.676897781165	2
0	8763	2101.776834232453	1
0	8769	2103.860979531713	2
0	8771	2103.921498954399	3
0	8773	2103.931688458872	4
0	8776	2104.752294973202	3
0	8784	2106.577691655861	2
0	8790	2107.694569773038	1
0	8795	2108.157253280012	0
0	8817	2111.399662344368	1
0	8821	2112.05626821742	2
0	8824	2113.659773567489	3
0	8826	2113.938733042446	4
0	8828	2114.035422744566	5
0	8830	2114.894602988638	6
0	8833	2116.58865608212	5
0	8839	2117.712308965385	4
0	8845	2118.402805058116	3
0	8850	2119.101175444026	2
0	8858	2119.850847943218	1
0	8865	2122.34143842409	0
0	8877	2123.274859061578	1
0	8880	2123.835936718411	0
0	8901	2129.612541240001	1
0	8904	2129.766522772322	0
0	8920	2130.985172497651	1
0	8923	2132.506503142407	2
0	8924	2132.528316038907	1
0	8930	2134.659478841083	0
0	8944	2135.780483256551	1
0	8950	2137.410207071478	0
0	8957	2138.700536188493	1
0	8962	2140.728107683554	2
0	8963	2140.827401150954	1
0	8969	2141.911247351074	0
0	9000	2149.188656048863	1
0	9001	2149.214253973203	0
0	9022	2153.38650964841	1
0	9026	2153.84013604652	2
0	9031	2156.133708451319	1
0	9036	2156.648910192999	0
0	9044	2158.932569629825	1
0	9047	2159.345507859545	2
0	9049	2159.443339875101	1
0	9054	2159.76402317362	0
0	9060	2159.825531311808	1
0	9061	2159.953510634039	0
0	9065	2160.024701413753	1
0	9067	2161.275106673818	2
0	9071	2161.942318930215	1
0	9077	2162.407255431532	2
0	9078	2162.478976683078	1
0	9082	2162.625009369733	2
0	9085	2163.662309106586	1
0	9092	2164.617634825647	0
0	9096	2165.530973499744	1
0	9101	2166.346613214195	0
0	9116	2168.615889823618	1
0	9118	2168.995331384705	2
0	9120	2169.142472926003	3
0	9121	2169.375016179125	2
0	9129	2171.882158282018	1
0	9135	2172.784841776952	0
0	9154	2176.088325670538	1
0	9155	2176.609442234896	0
0	9167	2177.433075002652	1
0	9168	2177.812795420556	0
0	9191	2182.358587100061	1
0	9192	2182.628823141782	0
0	9241	2189.404295727985	1
0	9243	2189.436584811336	2
0	9244	2190.299577074669	1
0	9252	2191.341782292705	0
0	9258	2193.312150269484	1
0	9260	2193.679428795453	0
0	9280	2197.157596625589	1
0	9281	2197.732467580578	0
0	9292	2199.028698906511	1
0	9299	2201.384195845751	0
0	9315	2203.089475738588	1
0	9319	2204.55777910632	2
0	9322	2206.096554290925	1
0	9328	2206.775475959185	2
0	9333	2208.303182163971	3
0	9335	2210.057268590836	4
0	9336	2210.210518507494	3
0	9341	2211.295909887088	2
0	9348	2213.048811864133	1
0	9358	2214.026302391296	0
0	9364	2214.957183862065	1
0	9367	2215.739465313772	2
0	9369	2216.317884237532	3
0	9370	2218.137534827773	2
0	9378	2218.767206305345	1
0	9383	2219.180789461476	0
0	9407	2220.819775316906	1
0	9411	2222.533212390053	0
0	9425	2225.591050410884	1
0	9426	2226.564764835016	0
0	9434	2229.040475781896	1
0	9436	2229.641086015379	2
0	9437	2231.720932503331	1
0	9442	2234.39137887998	0
0	9454	2236.38195958366	1
0	9457	2237.116661887653	2
0	9460	2238.843396853651	1
0	9465	2239.309412479176	0
0	9475	2241.062646184711	1
0	9482	2243.888019269444	0
0	9498	2248.417103402221	1
0	9499	2248.449024300293	0
0	9520	2251.020447144625	1
0	9523	2251.379935845936	0
0	9533	2252.088055400784	1
0	9534	2252.387356870217	0
0	9543	2253.121742478681	1
0	9548	2256.521681053891	0
0	9565	2259.723007859006	1
0	9566	2260.716632701799	0
0	9588	2262.527960872855	1
0	9590	2262.934749209317	2
0	9591	2263.081509584779	1
0	9596	2263.286592889254	0
0	9602	2263.472660077311	1
0	9603	2263.572769373067	0
0	9607	2263.712789997727	1
0	9611	2264.702061310289	2
0	9613	2265.508358153673	3
0	9620	2267.203130501971	4
0	9622	2267.310582399917	5
0	9623	2267.388622606866	4
0	9631	2268.635028774812	5
0	9632	2269.015310552757	4
0	9636	2269.299995546997	5
0	9642	2277.075620722842	4
0	9647	2277.356168622598	3
0	9658	2280.328953165287	4
0	9659	2280.770887844477	3
0	9664	2281.035398450682	2
0	9669	2281.788531881144	1
0	9674	2282.313084586126	0
0	9685	2282.990304967332	1
0	9687	2283.521450826296	2
0	9691	2284.185432833033	3
0	9692	2284.223916774375	2
0	9697	2284.22949545002	1
0	9703	2284.997343795642	2
0	9706	2285.634969766772	1
0	9710	2285.93398220112	2
0	9713	2287.639652120387	1
0	9718	2288.180470856501	0
0	9727	2290.391755253722	1
0	9732	2291.587472361068	2
0	9733	2291.718969958782	1
0	9739	2292.017543686739	0
0	9757	2295.690183314926	1
0	9759	2295.995207701255	2
0	9761	2297.295319169931	1
0	9765	2299.346562356974	2
0	9768	2302.170726297333	1
0	9774	2305.480048381315	2
0	9775	2306.000635494621	1
0	9781	2306.597025311507	2
0	9785	2307.079753369542	3
0	9786	2307.567407354108	2
0	9791	2309.429519655753	1
0	9805	2318.12238062991	0
0	9814	2319.088488396326	1
0	9815	2319.191321726688	0
0	9819	2319.918381564583	1
0	9823	2321.393440721182	2
0	9824	2321.591822164007	1
0	9830	2322.30332433002	2
0	9831	2322.437022438163	1
0	9837	2324.714271717354	2
0	9839	2324.768372686067	3
0	9841	2325.345887234927	2
0	9846	2325.640620272163	1
0	9851	2326.790057256864	0
0	9855	2327.687463869428	1
0	9857	2327.785318413583	2
0	9860	2329.252006032394	1
0	9868	2331.413145297032	0
0	9901	2339.354799453313	1
0	9905	2342.515955085164	2
0	9906	2343.326049698302	1
0	9912	2343.633497904012	0
0	9918	2343.743230587824	1
0	9922	2344.023306576468	2
0	9923	2344.341999832096	1
0	9929	2344.348642312305	2
0	9930	2344.470991730621	1
0	9934	2346.999869678304	2
0	9938	2348.78656556812	3
0	9944	2350.00798626533	4
0	9948	2352.355230325682	5
0	9949	2352.648225637636	4
0	9955	2352.816940662619	5
0	9956	2352.863894606534	4
0	9964	2353.375624624189	5
0	9965	2354.037388837036	4
0	9971	2354.794814447226	3
0	9978	2355.431952410568	2
0	9985	2356.310551151079	1
0	9991	2357.624084690688	0
0	10009	2360.35870327018	1
0	10015	2362.187775982654	0
0	10025	2362.900307284299	1
0	10031	2364.913641334993	0
0	10037	2366.844110906415	1
0	10038	2367.603679530531	0
0	10065	2377.4790588758	1
0	10066	2378.517305121967	0
0	10073	2379.463917430594	1
0	10075	2380.989130912082	2
0	10076	2381.157100190524	1
0	10081	2381.608434136453	0
0	10100	2385.562713080357	1
0	10101	2385.892032129852	0
0	10107	2386.216787940162	1
0	10114	2387.5730752609	0
0	10120	2388.134180317548	1
0	10121	2388.443695154393	0
0	10152	2394.3499140207	1
0	10153	2395.264464986607	0
0	10183	2405.67823704664	1
0	10185	2406.099102315027	2
0	10188	2407.689454030967	1
0	10193	2407.887099674912	0
0	10203	2409.137719866865	1
0	10206	2410.741757664707	0
0	10232	2418.44246634749	1
0	10233	2419.157317700433	0
0	10246	2422.068568706574	1
0	10247	2425.695980733194	0
0	10258	2428.212260300191	1
0	10260	2428.517037591726	2
0	10261	2428.616690208844	1
0	10268	2429.064910226104	2
0	10270	2429.63909495615	1
0	10275	2430.224085707171	0
0	10321	2446.796142537628	1
0	10323	2447.221117316952	2
0	10324	2447.823298125571	1
0	10329	2448.294950837515	0
0	10342	2450.542982681624	1
0	10343	2452.48292627237	0
0	10367	2456.489134968774	1
0	10369	2456.764023088408	0
0	10384	2461.054661968558	1
0	10385	2461.111173578128	0
0	10399	2463.537445209572	1
0	10402	2464.545652008248	0
0	10406	2465.51152170465	1
0	10410	2467.423337558071	2
0	10411	2467.460977031276	1
0	10417	2468.049326617389	0
0	10478	2491.424052152949	1
0	10479	2492.23291717636	0
0	10509	2498.517331431348	1
0	10511	2498.764591053669	0
0	10538	2507.994838445355	1
0	10540	2508.778317932755	2
0	10542	2508.926371336246	3
0	10545	2509.545049780084	2
0	10550	2510.027074137636	1
0	10561	2513.144789036144	2
0	10564	2513.342613260558	1
0	10570	2513.842026944833	2
0	10572	2515.268802019601	1
0	10580	2515.441075816609	2
0	10584	2516.885199381024	1
0	10590	2517.815939326325	0
0	10612	2519.672297118396	1
0	10614	2520.993587853029	2
0	10617	2522.145819888768	1
0	10623	2523.085900847652	0
0	10634	2523.656271909994	1
0	10635	2523.797264534739	0
0	10644	2527.885477925861	1
0	10649	2529.167366380405	0
0	10653	2529.551550389594	1
0	10660	2531.533169027851	0
0	10664	2532.073804519942	1
0	10668	2533.125307137655	0
0	10679	2537.755503235686	1
0	10683	2539.389422290084	0
0	10700	2541.698515627327	1
0	10704	2542.148663151336	2
0	10707	2542.799801714246	1
0	10712	2543.163302588099	0
0	10791	2568.859051595185	1
0	10792	2569.060544339583	0
0	10798	2569.737128404559	1
0	10802	2574.136160802832	0
0	10808	2574.57949582344	1
0	10809	2574.70897037967	0
0	10826	2577.686574945116	1
0	10828	2578.27503283543	2
0	10829	2578.371157466712	1
0	10835	2580.108115361636	0
0	10841	2583.981137558986	1
0	10843	2584.570074286404	2
0	10845	2584.703313562501	3
0	10849	2586.80396193195	4
0	10852	2588.698045610142	3
0	10861	2589.839806687388	2
0	10866	2590.011761124887	1
0	10872	2591.611578651023	0
0	10893	2593.93233920208	1
0	10897	2594.598786523045	2
0	10898	2594.827009311854	1
0	10905	2595.026784772826	0
0	10911	2597.165808539255	1
0	10913	2597.235172774896	2
0	10915	2597.676062893593	3
0	10918	2599.491587146314	2
0	10922	2600.134284172778	3
0	10927	2602.999777169261	2
0	10937	2605.270119753039	1
0	10942	2606.00762444022	0
0	10968	2610.510132377317	1
0	10970	2611.325456254419	0
0	10976	2611.838991664484	1
0	10978	2611.910212023302	2
0	10981	2614.956987774366	3
0	10983	2617.290728994611	2
0	10989	2617.356476378583	3
0	10991	2618.970489416303	2
0	10997	2619.873769275586	3
0	10998	2621.090642327289	2
0	11004	2621.955642991323	1
0	11010	2622.081679346529	2
0	11012	2622.087970457365	3
0	11013	2622.213540706486	2
0	11019	2624.896043109501	3
0	11020	2625.110212146977	2
0	11024	2626.35443178156	3
0	11027	2626.845267401872	2
0	11032	2629.180779180407	1
0	11037	2630.805065222123	0
0	11064	2635.133954498944	1
0	11066	2635.74842061765	2
0	11067	2636.053601678133	1
0	11073	2636.653267548351	2
0	11076	2637.161333320316	1
0	11081	2638.662498122429	0
0	11114	2649.891700798112	1
0	11116	2650.916896425542	0
0	11147	2657.449828489746	1
0	11148	2657.83305266518	0
0	11157	2659.03092222618	1
0	11158	2659.048180271564	0
0	11175	2662.957229508752	1
0	11176	2663.503112153485	0
0	11184	2664.323494754407	1
0	11190	2665.670130955171	0
0	11204	2668.3917918377	1
0	11205	2668.730740340454	0
0	11211	2669.776631324849	1
0	11213	2669.836179503701	2
0	11214	2670.778964097134	1
0	11220	2670.786725953562	2
0	11222	2671.203381151083	3
0	11224	2671.861980862235	4
0	11225	2672.830828703961	3
0	11231	2673.774554493899	4
0	11236	2674.977067954594	3
0	11243	2675.189998660125	2
0	11248	2675.39419088077	1
0	11257	2676.458059366121	2
0	11258	2676.526073867414	1
0	11266	2677.460484314882	0
0	11315	2691.746358713933	1
0	11318	2693.438445173459	0
0	11368	2716.613075456071	1
0	11370	2718.703267782802	2
0	11376	2719.48100634107	3
0	11377	2719.671588302012	2
0	11383	2721.78843668703	1
0	11388	2721.857592327313	0
0	11392	2722.173924573618	1
0	11394	2722.279793576792	2
0	11399	2722.594793061099	3
0	11400	2723.498737529446	2
0	11404	2723.630774746767	3
0	11407	2725.872793814153	2
0	11411	2725.883977995022	3
0	11413	2726.160124112687	4
0	11418	2728.68096994712	5
0	11420	2730.947556519111	4
0	11426	2734.829449131667	3
0	11431	2735.25700254371	2
0	11438	2735.950784189589	1
0	11443	2736.327731879567	0
0	11462	2739.248803424982	1
0	11467	2741.85750799001	0
0	11482	2744.147692775707	1
0	11486	2744.466020955903	0
0	11493	2747.356237997331	1
0	11494	2747.620442293873	0
0	11508	2750.007585805269	1
0	11509	2751.595945069318	0
0	11515	2751.836956114982	1
0	11516	2751.896880455494	0
0	11567	2770.243581610888	1
0	11568	2770.276018030363	0
0	11572	2770.371586011322	1
0	11575	2771.300391683543	0
0	11598	2778.584084601372	1
0	11607	2781.522531543011	2
0	11608	2781.941304128598	1
0	11613	2782.477094248291	0
0	11638	2784.657420471938	1
0	11639	2785.456443080103	0
0	11682	2796.558742300546	1
0	11683	2796.564399261631	0
0	11761	2821.688533031302	1
0	11762	2821.696738533984	0
0	11785	2825.532724985244	1
0	11787	2826.492021205329	0
0	11794	2826.784635471717	1
0	11795	2827.044554187857	0
0	11803	2827.725165748762	1
0	11807	2828.687020484553	0
0	11824	2829.748455142981	1
0	11825	2830.054063003299	0
0	11837	2831.596199261022	1
0	11841	2834.651546918734	2
0	11842	2834.970407397162	1
0	11847	2835.653379154291	0
0	11853	2836.090535611336	1
0	11855	2837.203534237035	0
0	11878	2841.681316452084	1
0	11879	2842.58428360623	0
0	11885	2843.204899602516	1
0	11887	2843.376481905234	0
0	11958	2870.646215934626	1
0	11960	2870.745971836621	2
0	11961	2871.239504013298	1
0	11968	2872.086877220433	0
0	11974	2872.935163032136	1
0	11978	2874.595825074576	0
0	11984	2874.919987157618	1
0	11986	2875.011098220837	2
0	11996	2881.095983073363	1
0	12002	2882.241101636878	0
0	12022	2884.791892646397	1
0	12025	2887.341642359201	0
0	12043	2891.923817111803	1
0	12044	2893.678920508445	0
0	12050	2894.103209468318	1
0	12052	2894.976962864754	0
0	12061	2897.321480073025	1
0	12063	2897.33057607589	2
0	12066	2898.15301114374	1
0	12073	2898.859713239582	2
0	12076	2899.630498779454	3
0	12080	2902.21558301195	2
0	12087	2903.462509224617	3
0	12088	2903.803875160246	2
0	12093	2904.015604533144	1
0	12098	2904.840836147122	0
0	12104	2909.111133230683	1
0	12105	2909.289986895155	0
0	12130	2913.928142846694	1
0	12134	2915.472284719783	2
0	12135	2917.045073866214	1
0	12140	2917.181316200047	0
0	12167	2924.29661472078	1
0	12170	2925.593323080805	0
0	12176	2925.818138508794	1
0	12177	2925.930894952203	0
0	12189	2926.222671096327	1
0	12200	2930.432775199914	0
0	12209	2931.442898557754	1
0	12210	2932.122390586212	0
0	12227	2943.931249204912	1
0	12228	2944.460214871997	0
0	12235	2946.728662442412	1
0	12236	2946.933357133568	0
0	12268	2952.899831469232	1
0	12270	2953.910955181016	2
0	12271	2953.963803583174	1
0	12276	2955.000012501722	0
0	12294	2960.599866745567	1
0	12296	2963.703626432402	0
0	12303	2964.080217548454	1
0	12304	2964.174836795959	0
0	12315	2964.579971375528	1
0	12317	2965.280307865569	0
0	12337	2968.68174681491	1
0	12340	2970.324030890537	0
0	12354	2972.551288485822	1
0	12355	2972.698546058514	0
0	12385	2982.653475229354	1
0	12386	2984.456185156993	0
0	12392	2984.57940886452	1
0	12393	2984.832198800056	0
0	12457	3008.427588086775	1
0	12458	3008.589977996515	0
0	12490	3012.566156142613	1
0	12492	3013.678972052492	2
0	12493	3013.815413533876	1
0	12498	3014.468859223163	0
0	12529	3021.75194808327	1
0	12531	3022.282042950019	0
0	12553	3025.748200866738	1
0	12554	3026.600942644459	0
0	12560	3027.406945369429	1
0	12563	3028.430364784683	0
0	12576	3030.619159500673	1
0	12577	3031.403881020007	0
0	12581	3034.961590947277	1
0	12590	3038.583230642241	0
0	12608	3041.820498674142	1
0	12611	3043.410115379832	2
0	12614	3043.669686792014	1
0	12619	3044.000332164575	0
0	12627	3044.64953194749	1
0	12629	3045.417887112169	2
0	12631	3045.496383319265	3
0	12632	3045.943032038766	2
0	12637	3046.112403030111	1
0	12644	3048.224094650417	0
0	12668	3052.81516651844	1
0	12670	3053.142980521944	2
0	12672	3054.42663362083	3
0	12674	3055.675192638336	4
0	12676	3055.817549506847	5
0	12678	3056.294019075418	6
0	12683	3057.479182828944	5
0	12687	3058.747625137417	6
0	12689	3058.766628893774	7
0	12693	3062.574292210641	6
0	12698	3062.728377357878	5
0	12703	3063.618129620218	4
0	12709	3064.654794936445	5
0	12713	3065.176173670978	6
0	12716	3065.705094071259	5
0	12723	3067.931299257209	4
0	12727	3068.293881270285	5
0	12729	3069.280137221669	6
0	12731	3070.773894567693	7
0	12735	3074.045059769906	8
0	12736	3074.199887646149	7
0	12743	3076.353991549093	6
0	12749	3077.054828919514	5
0	12754	3078.091903117722	4
0	12761	3079.335768275089	5
0	12762	3079.42997688194	4
0	12769	3080.319465295326	3
0	12779	3085.557524342483	2
0	12785	3085.784497011684	1
0	12791	3086.127568880692	0
0	12798	3086.934504813157	1
0	12801	3088.862868120097	2
0	12802	3089.776020999425	1
0	12808	3090.515419271754	2
0	12809	3092.518941914499	1
0	12815	3092.806035020457	2
0	12817	3093.704483927789	1
0	12823	3093.827626428231	2
0	12827	3094.84411544356	1
0	12832	3095.515216478935	0
0	12839	3096.617295766722	1
0	12841	3097.105077951086	2
0	12842	3097.426619800846	1
0	12849	3099.056170528647	0
0	12873	3102.624154158357	1
0	12874	3102.899973560105	0
0	12885	3104.582462402898	1
0	12887	3108.900992595076	0
0	12898	3110.852604520796	1
0	12899	3112.201685113879	0
0	12944	3125.892974675804	1
0	12945	3126.331950592923	0
0	12957	3127.583948716593	1
0	12959	3128.484339156299	2
0	12962	3131.582746111088	1
0	12968	3132.684340519976	0
0	12975	3133.433932129775	1
0	12977	3133.527702676906	2
0	12978	3134.168290975726	1
0	12984	3137.039192022494	0
0	12991	3138.680866488716	1
0	12992	3138.788252769395	0
0	13020	3148.744894305109	1
0	13025	3150.896392921822	0
0	13044	3153.652200580846	1
0	13047	3154.041539900552	0
0	13060	3154.878469939785	1
0	13064	3155.519304545449	2
0	13067	3159.665364492631	3
0	13070	3160.194218357924	4
0	13073	3161.432019226172	3
0	13078	3162.065539613735	2
0	13084	3164.200704133636	3
0	13085	3164.321136903935	2
0	13090	3165.129716678925	1
0	13094	3166.149436919821	2
0	13098	3166.701292563482	1
0	13105	3167.486057974151	0
0	13148	3178.518804012735	1
0	13150	3178.615005335245	2
0	13151	3178.865513135962	1
0	13158	3180.273492607907	0
0	13174	3180.740649559978	1
0	13176	3181.225949267446	0
0	13217	3189.643483298695	1
0	13221	3190.201656035271	2
0	13222	3191.493648931712	1
0	13228	3191.990838433178	0
0	13234	3192.603347893267	1
0	13236	3193.3412138409	0
0	13310	3213.967293663427	1
0	13318	3218.433902871638	2
0	13319	3218.711199984816	1
0	13324	3218.814432635601	0
0	13403	3239.370888751146	1
0	13405	3239.6838730655	2
0	13409	3240.905152443214	3
0	13413	3241.485277310033	4
0	13418	3242.754407106411	5
0	13421	3243.497989544243	4
0	13427	3243.567721141072	5
0	13429	3243.612901509584	6
0	13431	3243.615701878713	7
0	13432	3244.038465617287	6
0	13438	3244.331276932189	7
0	13439	3245.058400767217	6
0	13445	3245.766619249325	5
0	13452	3247.632561599394	4
0	13458	3248.830437139856	3
0	13464	3249.204668157766	4
0	13465	3249.673373070904	3
0	13469	3250.161931413761	4
0	13475	3251.470904556163	5
0	13479	3253.131968157086	4
0	13483	3253.510196136592	5
0	13485	3254.196158667172	6
0	13488	3257.089622615733	5
0	13492	3258.392973599778	6
0	13495	3258.753806557895	5
0	13500	3259.457435781066	4
0	13504	3260.472581339644	5
0	13506	3264.892890004229	6
0	13511	3265.959995545305	5
0	13516	3266.33950939714	4
0	13522	3266.962137059642	3
0	13528	3267.093028216766	2
0	13533	3269.144649541867	1
0	13538	3270.329608801352	0
0	13550	3272.318965382237	1
0	13555	3272.974603486905	0
0	13572	3277.603282797799	1
0	13576	3278.852140895044	0
0	13600	3281.613163971397	1
0	13603	3282.396774450326	0
0	13610	3283.002475151872	1
0	13612	3286.797731718812	0
0	13625	3289.501393267525	1
0	13626	3289.717138405442	0
0	13644	3291.547803692881	1
0	13646	3291.563110379344	2
0	13647	3291.645932965918	1
0	13653	3293.659867082059	0
0	13662	3293.890998642165	1
0	13666	3294.769391425042	0
0	13690	3299.419882573992	1
0	13691	3299.773119808363	0
0	13702	3300.957753901223	1
0	13705	3301.876574934366	0
0	13711	3303.201321408157	1
0	13712	3303.25173625369	0
0	13716	3304.251820768596	1
0	13721	3306.264144435305	0
0	13727	3306.553520841083	1
0	13732	3309.232150071601	0
0	13740	3310.980237845601	1
0	13745	3313.591957121849	0
0	13781	3318.339994762038	1
0	13782	3319.321496366048	0
0	13793	3321.700672416096	1
0	13795	3322.109374304331	2
0	13797	3323.094865042217	1
0	13803	3323.49278225488	0
0	13814	3328.41366559952	1
0	13817	3330.478289222481	0
0	13829	3331.32911972093	1
0	13830	3332.021904562896	0
0	13842	3333.44698379903	1
0	13843	3333.571742688594	0
0	13865	3340.752356598222	1
0	13869	3341.190583290527	2
0	13873	3341.563972954723	3
0	13877	3341.805773710282	4
0	13878	3342.630748101067	3
0	13883	3343.669529149589	2
0	13889	3343.761826532385	3
0	13893	3345.671689733896	2
0	13898	3346.607687761019	1
0	13905	3347.202313153755	0
0	13919	3350.538921572685	1
0	13920	3350.637102862872	0
0	13926	3350.946976463179	1
0	13927	3351.712130570909	0
0	13935	3355.235046780705	1
0	13936	3355.872583498404	0
0	13944	3356.75704074169	1
0	13946	3358.194708378089	2
0	13949	3359.17003663406	1
0	13954	3360.324417248063	0
0	13960	3361.387985883275	1
0	13964	3364.097444430097	0
0	13985	3369.304544576476	1
0	13988	3370.493158319932	0
0	14008	3377.136496855715	1
0	14010	3377.210626826932	2
0	14011	3378.934769966697	1
0	14016	3379.232940919763	0
0	14040	3382.834885012062	1
0	14043	3384.827523163533	0
0	14049	3384.854449116531	1
0	14053	3385.85649971172	2
0	14054	3385.973419655563	1
0	14060	3385.999625375402	2
0	14062	3386.433564453714	3
0	14063	3386.893996043014	2
0	14069	3387.719724931694	1
0	14075	3388.156871901755	0
0	14114	3400.703765873904	1
0	14117	3402.346441754036	0
0	14123	3402.458848827954	1
0	14125	3402.591459896475	2
0	14126	3402.69542329927	1
0	14139	3404.827037522903	2
0	14140	3404.908209690831	1
0	14145	3405.040549010161	0
0	14151	3405.577168237595	1
0	14152	3405.703254637352	0
0	14156	3406.207057574937	1
0	14159	3406.69464163207	0
0	14165	3408.112516487202	1
0	14166	3408.520058804076	0
0	14187	3410.545875458791	1
0	14190	3411.561446740094	0
0	14196	3412.55100240195	1
0	14197	3413.128675855032	0
0	14218	3416.724630168105	1
0	14219	3416.863805660811	0
0	14225	3416.894798152188	1
0	14226	3416.991090254603	0
0	14296	3442.626555898409	1
0	14299	3443.737538526474	0
0	14311	3448.943615628247	1
0	14312	3449.526041334575	0
0	14327	3454.022052100606	1
0	14329	3455.279833008765	2
0	14330	3455.471223841642	1
0	14336	3455.682232066633	2
0	14339	3456.044764763405	1
0	14345	3456.486639025394	0
0	14357	3458.920686075917	1
0	14359	3459.008962928678	2
0	14363	3460.487464026541	3
0	14365	3461.335848033993	4
0	14369	3462.265498512528	3
0	14374	3462.481143551047	2
0	14379	3463.031990201126	1
0	14385	3464.239848536188	2
0	14386	3464.300041160062	1
0	14392	3465.345990959083	2
0	14397	3468.214315383386	1
0	14401	3468.267826057397	2
0	14404	3469.027955836075	1
0	14409	3469.764630990232	0
0	14425	3470.833529269998	1
0	14429	3471.785481200932	2
0	14430	3471.951208939985	1
0	14436	3476.057101832119	0
0	14447	3476.712109093172	1
0	14449	3477.000525707814	2
0	14451	3478.297586783471	1
0	14460	3479.729416578472	2
0	14462	3480.111547113361	3
0	14463	3480.293503298642	2
0	14469	3480.576766859631	1
0	14475	3482.366195430138	0
0	14486	3483.889195671816	1
0	14488	3484.053280388626	2
0	14491	3484.356551966583	1
0	14496	3485.268011579845	0
0	14500	3487.133100189257	1
0	14502	3487.24613558416	2
0	14504	3488.965548211044	3
0	14510	3490.669672489477	4
0	14513	3491.244110549724	3
0	14520	3492.882223636425	2
0	14524	3494.88498321674	3
0	14527	3495.656263534899	2
0	14534	3496.914385848167	1
0	14540	3498.069582583389	0
0	14554	3500.999072408299	1
0	14558	3503.324016922993	0
0	14587	3507.14366661843	1
0	14588	3507.620495413159	0
0	14614	3518.737620351811	1
0	14615	3518.916579135842	0
0	14626	3519.65745678936	1
0	14628	3520.347006613644	2
0	14631	3520.563521215251	3
0	14633	3521.116155897674	4
0	14634	3521.520141940029	3
0	14639	3521.942035408099	2
0	14648	3522.630158626666	3
0	14650	3522.787251524374	2
0	14654	3523.346748227231	3
0	14659	3523.887740850859	2
0	14666	3526.448818511448	1
0	14670	3528.77876017227	2
0	14674	3530.399846392278	1
0	14680	3530.581813308878	2
0	14681	3530.774265186256	1
0	14688	3531.561243727861	2
0	14690	3532.913436520614	3
0	14691	3533.999482894912	2
0	14698	3538.686410821525	1
0	14704	3539.486947082299	2
0	14707	3540.150380840069	3
0	14708	3541.43697192811	2
0	14713	3542.12321803913	1
0	14717	3543.414984762637	2
0	14727	3546.592074650865	1
0	14733	3548.103839274783	0
0	14746	3551.104553471198	1
0	14748	3552.980673835633	2
0	14749	3553.199502547106	1
0	14754	3553.223229369382	0
0	14767	3557.712274350802	1
0	14768	3558.188304667739	0
0	14785	3561.902128035012	1
0	14787	3562.117644236304	2
0	14789	3563.78418726927	3
0	14794	3565.341958891905	2
0	14799	3565.417137307179	1
0	14804	3565.836132361124	0
0	14808	3566.159237208051	1
0	14813	3567.530705623104	0
0	14819	3569.142805486259	1
0	14824	3569.612428899575	0
0	14837	3571.542285607352	1
0	14840	3575.175041546185	0
0	14859	3579.30525779264	1
0	14860	3579.316653720041	0
0	14867	3580.106385701675	1
0	14872	3581.810581883336	2
0	14874	3583.927827971254	3
0	14875	3585.307211084568	2
0	14883	3585.543242895203	3
0	14887	3586.461326156114	4
0	14889	3586.557237234994	5
0	14891	3586.832070502844	4
0	14899	3588.708418589089	3
0	14904	3588.744602325317	2
0	14910	3588.957638079868	3
0	14911	3589.545156167024	2
0	14915	3589.927767750076	3
0	14918	3590.381859756401	2
0	14924	3591.001411012777	3
0	14929	3592.054253977447	2
0	14935	3592.952430482625	1
0	14940	3593.261790456437	0
0	14948	3594.651469435773	1
0	14951	3595.371740404978	2
0	14953	3595.694102998338	3
0	14954	3595.815123515347	2
0	14960	3597.249523279746	1
0	14967	3597.698289551409	2
0	14968	3599.544469264473	1
0	14976	3600.305165909954	2
0	14979	3602.57364449244	1
0	14984	3602.885476467649	0
0	14988	3603.045791448301	1
0	14994	3605.447570091372	0
0	15013	3607.610321908495	1
0	15024	3610.752094210469	0
0	15053	3620.844230227404	1
0	15054	3622.171492332867	0
0	15060	3622.797790842825	1
0	15061	3622.819458531765	0
0	15075	3626.447328193096	1
0	15076	3627.05242165539	0
0	15088	3629.577409951698	1
0	15090	3629.953913198819	2
0	15095	3632.065303350355	3
0	15098	3633.7538846814	2
0	15103	3633.873329261902	1
0	15109	3634.939040142666	0
0	15117	3635.010981402155	1
0	15119	3635.906368839885	0
0	15132	3637.166867734844	1
0	15135	3638.330936294268	0
0	15168	3646.885659037519	1
0	15173	3649.229776417152	2
0	15174	3649.515540023427	1
0	15180	3651.726063421973	0
0	15186	3652.124727152831	1
0	15187	3652.269620396123	0
0	15227	3660.183330367862	1
0	15228	3660.183817275169	0
0	15234	3660.823619910845	1
0	15236	3661.11559804459	2
0	15237	3662.588661512456	1
0	15244	3663.704603264357	0
0	15273	3669.603445936372	1
0	15274	3670.00192705185	0
0	15280	3670.097427284306	1
0	15284	3671.454240727338	0
0	15313	3676.965243419661	1
0	15314	3677.04534196683	0
0	15320	3678.462665185119	1
0	15321	3678.680694671694	0
0	15330	3679.682984751248	1
0	15331	3679.726205057089	0
0	15348	3682.272266019095	1
0	15352	3684.871523504039	2
0	15354	3685.324583902636	3
0	15356	3685.348559660361	4
0	15357	3685.660516241947	3
0	15362	3685.734957350289	2
0	15367	3687.008300112966	1
0	15374	3691.57184660998	0
0	15378	3693.350754145428	1
0	15380	3693.363510661377	2
0	15385	3696.784394825726	3
0	15386	3696.962307589603	2
0	15392	3697.821307065826	3
0	15393	3697.832659808837	2
0	15398	3699.649409671681	1
0	15404	3700.700354752052	0
0	15408	3702.781605417449	1
0	15415	3705.559885466993	0
0	15432	3706.75612184278	1
0	15434	3707.072955493939	2
0	15435	3707.235798568984	1
0	15441	3709.31609023403	0
0	15463	3712.239935274193	1
0	15464	3712.290703772861	0
0	15488	3717.0731289766	1
0	15492	3718.561749966962	2
0	15495	3721.822106554657	3
0	15498	3724.228672706027	2
0	15503	3724.497717883041	1
0	15509	3726.384098390996	0
0	15517	3726.894173649069	1
0	15521	3732.869402263396	2
0	15522	3732.907318468902	1
0	15528	3733.275018736956	0
0	15540	3734.521728742828	1
0	15541	3735.680786924358	0
0	15557	3737.340074668419	1
0	15558	3737.644697836764	0
0	15576	3742.598046567916	1
0	15577	3744.194925991243	0
0	15587	3746.375298701513	1
0	15589	3746.794214828639	2
0	15593	3748.10613129329	3
0	15595	3750.22566936921	4
0	15598	3751.206594343113	3
0	15604	3751.449629977551	4
0	15605	3752.000513888354	3
0	15612	3752.89802890308	2
0	15618	3753.468007643321	1
0	15625	3755.744828462937	0
0	15653	3759.705777559845	1
0	15656	3760.818895542882	0
0	15678	3765.182649893493	1
0	15681	3765.708653611062	0
0	15695	3771.041350102079	1
0	15697	3771.730339847518	2
0	15699	3771.99950295089	3
0	15701	3772.705992990962	4
0	15702	3773.184054322156	3
0	15707	3774.061808347715	2
0	15712	3774.412101126851	1
0	15717	3775.882671493024	0
0	15750	3788.692905958034	1
0	15754	3790.777723985774	2
0	15757	3791.118436512134	1
0	15764	3792.663482081951	0
0	15774	3796.788535838929	1
0	15775	3797.163830606808	0
0	15786	3797.326594779468	1
0	15787	3797.392843645407	0
0	15828	3807.7721273953	1
0	15833	3809.822058569834	2
0	15835	3811.461954132403	1
0	15842	3812.993601314615	2
0	15843	3813.044712076722	1
0	15849	3813.566691977133	0
0	15873	3817.206054582012	1
0	15875	3818.689892388727	2
0	15879	3820.527318347483	3
0	15882	3820.606277401562	2
0	15890	3821.505496497033	3
0	15892	3821.727951310299	4
0	15895	3822.927052782187	5
0	15896	3823.05692878633	4
0	15904	3823.929668452288	5
0	15906	3824.551887929477	4
0	15913	3830.452032049971	5
0	15916	3831.753050143151	4
0	15926	3832.81276038888	3
0	15932	3833.385374038876	4
0	15936	3834.00056964383	3
0	15942	3834.285831837125	2
0	15947	3835.346465908305	1
0	15952	3835.480373509951	0
0	15956	3836.17838405181	1
0	15958	3836.29395623484	2
0	15960	3838.934899535304	3
0	15963	3839.985300250286	2
0	15971	3841.461239782168	3
0	15972	3841.479317880602	2
0	15978	3842.090313588536	3
0	15982	3844.381023282791	2
0	15988	3845.846629498741	1
0	15993	3846.23162287728	0
0	15997	3847.09712365775	1
0	15999	3847.761650258427	2
0	16001	3847.894831142854	3
0	16003	3848.114144961367	4
0	16006	3850.747039692823	3
0	16012	3852.710667249444	4
0	16013	3852.890623889238	3
0	16018	3855.542423133475	2
0	16026	3856.513261732177	1
0	16032	3856.539211083268	2
0	16033	3856.808902102978	1
0	16040	3858.753131414287	0
0	16044	3860.195027294222	1
0	16048	3860.867341647356	2
0	16049	3861.979758108733	1
0	16057	3865.759718418894	2
0	16060	3866.724996910885	1
0	16064	3869.133794383421	2
0	16069	3870.77390095781	3
0	16070	3871.116217122874	2
0	16075	3871.557933752277	1
0	16079	3873.196814914088	2
0	16086	3874.300304171256	3
0	16087	3875.234524246533	2
0	16093	3876.6067071239	3
0	16094	3876.718771039796	2
0	16099	3879.505792940879	1
0	16103	3879.852829370397	2
0	16105	3879.909342808261	3
0	16107	3881.555423288232	4
0	16113	3882.594666220003	5
0	16114	3882.984123844294	4
0	16118	3886.233898748315	5
0	16124	3887.809543136064	6
0	16128	3889.743852795283	5
0	16135	3890.005748012767	4
0	16141	3890.641567287618	5
0	16145	3891.191977359273	6
0	16147	3891.779343853156	7
0	16148	3891.82810898941	6
0	16152	3891.95598954275	7
0	16160	3895.19448406547	8
0	16163	3896.215704908861	7
0	16169	3898.300366293803	8
0	16172	3899.777410930778	7
0	16176	3899.997094048749	8
0	16179	3901.840721639654	7
0	16185	3903.094474770768	8
0	16186	3903.521107879402	7
0	16190	3904.899501638456	8
0	16197	3906.564486496606	7
0	16205	3909.503966033171	8
0	16206	3909.992907717992	7
0	16211	3910.795538206727	6
0	16217	3911.700720628288	5
0	16223	3911.854951011613	4
0	16228	3912.006893617585	3
0	16233	3913.726980761946	2
0	16239	3915.936993079883	1
0	16245	3916.101862450279	2
0	16246	3916.308443970198	1
0	16252	3919.156839325373	0
0	16259	3919.95992505779	1
0	16261	3920.191551427324	2
0	16263	3920.71508768341	3
0	16265	3922.086298334516	2
0	16270	3924.706977759564	1
0	16276	3925.012237543956	2
0	16278	3925.2384377996	3
0	16279	3925.655466835253	2
0	16287	3929.605604974354	1
0	16293	3930.32706377688	0
0	16302	3932.821166709652	1
0	16303	3932.960086952199	0
0	16310	3933.834160503927	1
0	16311	3935.098855372056	0
0	16329	3936.365522320898	1
0	16331	3936.643476391156	0
0	16355	3940.752298584717	1
0	16357	3941.467846633094	0
0	16363	3942.306907272323	1
0	16364	3942.493854645353	0
0	16370	3942.525075612872	1
0	16371	3942.991739661417	0
0	16375	3943.142651522395	1
0	16380	3944.69120599966	2
0	16381	3946.20952076879	1
0	16386	3947.413144129064	0
0	16396	3950.695152478386	1
0	16397	3950.8436129034	0
0	16415	3953.307694123018	1
0	16416	3953.788568443449	0
0	16423	3954.663180154164	1
0	16424	3954.958568371075	0
0	16452	3961.764963839283	1
0	16454	3961.817087128474	2
0	16458	3962.999730719244	3
0	16459	3964.35514261762	2
0	16465	3964.482987911502	1
0	16470	3965.167631752478	0
0	16481	3965.93344900695	1
0	16482	3965.975747429509	0
0	16488	3968.413770016945	1
0	16491	3969.636496650632	0
0	16500	3970.107125835934	1
0	16502	3971.138545700522	2
0	16504	3973.771371271388	3
0	16506	3974.83179282535	4
0	16510	3980.321710958992	3
0	16516	3981.348919863296	4
0	16518	3981.488924945034	5
0	16521	3984.209015672306	4
0	16527	3985.173160593914	3
0	16532	3985.308261141744	2
0	16537	3985.418723692957	1
0	16544	3986.434568199857	0
0	16570	3991.890993667745	1
0	16572	3993.270766478523	2
0	16576	3994.337855273837	3
0	16577	3994.520894694207	2
0	16582	3994.60886161002	1
0	16592	3995.303463488456	2
0	16595	3997.214103333358	1
0	16602	3997.406829787058	2
0	16604	3997.620400944162	1
0	16610	3998.006427704991	2
0	16612	3998.356155718018	3
0	16615	3999.159175112692	2
0	16620	3999.165864843742	1
0	16626	4000.299025116448	2
0	16630	4000.817675271394	3
0	16633	4001.991746604345	2
0	16640	4003.94669189223	1
0	16647	4006.25685534305	0
0	16653	4009.503469401286	1
0	16657	4009.959573202863	2
0	16658	4010.0264753311	1
0	16662	4010.791686122452	2
0	16667	4012.453052236931	1
0	16674	4013.566676591884	0
0	16678	4014.178669161302	1
0	16683	4015.230097173432	0
0	16698	4018.357188824122	1
0	16701	4018.449442531199	0
0	16735	4028.843047609912	1
0	16737	4029.812399596539	0
0	16754	4031.389860925456	1
0	16756	4031.524902897138	2
0	16760	4033.086157904219	3
0	16761	4033.321081669506	2
0	16766	4034.791783564037	1
0	16772	4035.008795430275	2
0	16774	4036.12678975542	1
0	16779	4036.258342207587	0
0	16800	4041.937069255089	1
0	16803	4042.672592400916	0
0	16812	4043.360197034537	1
0	16814	4043.372502581612	2
0	16817	4044.417470701411	1
0	16822	4044.495004145606	0
0	16835	4047.9546399723	1
0	16837	4048.283444488854	2
0	16839	4050.578132430079	3
0	16840	4051.453110131813	2
0	16845	4052.164388879582	1
0	16852	4053.443777664629	0
0	16865	4054.833355482837	1
0	16866	4055.943739737245	0
0	16893	4063.121164018511	1
0	16894	4063.311611742591	0
0	16905	4066.909441426195	1
0	16909	4068.70636594417	0
0	16925	4071.839136760134	1
0	16926	4072.148989037053	0
0	16943	4075.152265323323	1
0	16947	4077.117660760054	2
0	16950	4078.574836790024	1
0	16955	4079.081942722707	0
0	16973	4084.105178979521	1
0	16975	4085.077041533455	2
0	16976	4085.70464249516	1
0	16983	4086.07460820269	0
0	17012	4092.282304608612	1
0	17014	4094.27805552118	2
0	17018	4096.62796744301	3
0	17024	4098.255506167151	2
0	17030	4099.30414229783	1
0	17036	4101.031201548945	0
0	17056	4102.980482396659	1
0	17059	4104.882589705167	0
0	17112	4115.821273600427	1
0	17115	4116.403387917856	2
0	17117	4116.65138892676	3
0	17118	4116.711629032555	2
0	17124	4117.308933357567	1
0	17130	4117.568617421926	2
0	17131	4117.877727617623	1
0	17137	4118.94411680617	2
0	17140	4120.579003214949	3
0	17141	4120.607002689327	2
0	17147	4121.48488411927	3
0	17148	4121.747439505863	2
0	17154	4122.950824649826	3
0	17156	4123.103591762495	4
0	17158	4123.664092454672	5
0	17164	4126.38239530607	4
0	17171	4127.820112877806	5
0	17172	4128.069374178818	4
0	17178	4128.415068225349	5
0	17179	4128.625563400582	4
0	17185	4128.981517872707	5
0	17188	4129.357896386007	6
0	17191	4132.09012910482	5
0	17196	4132.288992209169	4
0	17201	4132.338147620132	3
0	17209	4133.372951963402	2
0	17214	4134.501011494961	1
0	17219	4136.285657196995	0
0	17231	4138.785929934419	1
0	17233	4140.115992736553	0
0	17246	4141.586465100139	1
0	17251	4143.704291099663	2
0	17255	4144.341575932145	3
0	17256	4144.54679580885	2
0	17261	4144.686617573646	1
0	17271	4145.913272763444	2
0	17276	4148.047991589897	1
0	17283	4151.220673305793	0
0	17321	4157.992465704885	1
0	17323	4159.318771314835	2
0	17324	4159.515714047388	1
0	17330	4159.684871610495	0
0	17352	4165.319268340457	1
0	17355	4165.998285668381	0
0	17364	4167.748598656715	1
0	17367	4170.352955112639	0
0	17378	4170.704586843674	1
0	17380	4171.341630328938	2
0	17381	4172.196425316374	1
0	17386	4173.022379390151	0
0	17405	4177.818211311041	1
0	17411	4184.014261755888	2
0	17412	4184.822980733666	1
0	17418	4187.10696009217	0
0	17435	4189.578569358036	1
0	17439	4191.554928919137	0
0	17499	4209.155545835514	1
0	17502	4210.027170142643	2
0	17504	4210.376858246818	3
0	17505	4210.754659452608	2
0	17512	4210.956908667997	1
0	17518	4212.514286799208	0
0	17532	4214.190270610519	1
0	17534	4215.239930185126	0
0	17553	4218.466365768734	1
0	17555	4219.031556795179	2
0	17559	4219.746187972724	3
0	17561	4219.970258973761	4
0	17562	4220.15814860893	3
0	17567	4220.756524697356	2
0	17574	4222.330037051895	3
0	17576	4223.026481964993	2
0	17582	4223.035118028669	3
0	17585	4223.49322567619	2
0	17591	4225.222565665007	3
0	17595	4225.992744920667	2
0	17600	4228.47747898424	1
0	17609	4230.39058588452	0
0	17628	4231.622578156149	1
0	17630	4231.827780001061	2
0	17632	4232.513914447677	3
0	17640	4235.631428130218	4
0	17641	4236.235344553547	3
0	17648	4236.75465411418	2
0	17654	4237.305629683979	1
0	17660	4238.128452370376	2
0	17665	4239.34786609558	1
0	17670	4239.96679061228	0
0	17719	4249.315847000358	1
0	17721	4250.098456397878	2
0	17722	4250.386314022433	1
0	17729	4251.716404318225	2
0	17730	4252.485504046347	1
0	17736	4253.101734048247	0
0	17756	4258.664038036958	1
0	17757	4259.339950092751	0
0	17763	4259.471295973112	1
0	17764	4259.538173088281	0
0	17770	4260.378615728587	1
0	17771	4260.836168908377	0
0	17809	4274.869070933488	1
0	17810	4275.232868602001	0
0	17816	4275.383623786234	1
0	17817	4275.481262811599	0
0	17821	4275.88568681659	1
0	17826	4277.188765227277	0
0	17845	4279.436062312322	1
0	17848	4280.792062531688	0
0	17857	4282.343614045578	1
0	17858	4282.680692836053	0
0	17874	4285.439449995192	1
0	17876	4288.260430829765	2
0	17881	4289.821636309811	1
0	17886	4290.121459290564	0
0	17903	4293.800872244047	1
0	17906	4294.899951394167	0
0	17917	4297.835447705497	1
0	17920	4298.332774379343	0
0	17942	4304.541192083649	1
0	17943	4304.60313128027	0
0	17968	4310.409535359664	1
0	17969	4311.183522009125	0
0	17991	4317.630301714308	1
0	17994	4319.03744566354	0
0	18000	4319.276606320609	1
0	18001	4319.409524652177	0
0	18007	4319.487766431607	1
0	18008	4320.986899117069	0
0	18014	4321.824133789131	1
0	18016	4322.122346217394	0
0	18034	4326.174060593853	1
0	18036	4329.405636340028	2
0	18038	4331.303751126339	3
0	18039	4331.608964404413	2
0	18044	4332.980891793721	1
0	18051	4333.572325065289	2
0	18053	4334.292694803099	1
0	18058	4334.757444370487	0
0	18085	4340.268228525666	1
0	18088	4340.677318821569	0
0	18097	4341.448721505349	1
0	18099	4342.066406477788	2
0	18101	4342.983765833039	3
0	18110	4348.942031194812	2
0	18115	4350.891377703979	1
0	18119	4352.708438514081	2
0	18126	4354.299107826786	1
0	18132	4354.622684733155	2
0	18133	4357.539780713449	1
0	18139	4358.014963121699	2
0	18140	4358.018397343379	1
0	18144	4358.758476874677	2
0	18149	4362.025487278981	1
0	18154	4362.301519657925	0
0	18158	4364.078693179063	1
0	18163	4365.720366212264	2
0	18165	4366.139356051007	1
0	18170	4366.178996079025	0
0	18181	4367.245141620245	1
0	18184	4367.567931991032	2
0	18188	4369.746896209384	1
0	18193	4370.108218676107	0
0	18214	4372.636537943355	1
0	18217	4376.029966318583	0
0	18253	4388.144296170435	1
0	18257	4390.501847087597	2
0	18258	4390.92302195231	1
0	18265	4392.538663305984	2
0	18266	4392.611909975877	1
0	18272	4392.900456631326	2
0	18274	4392.968935435249	3
0	18276	4393.033590780968	4
0	18280	4395.171298185291	3
0	18287	4396.250382207582	4
0	18288	4396.433222608626	3
0	18293	4397.007620291938	2
0	18300	4397.415490329084	3
0	18302	4397.93718190256	2
0	18309	4398.386478944007	1
0	18316	4398.592424612676	0
0	18328	4399.774343512457	1
0	18330	4399.953805175329	2
0	18331	4400.60685897974	1
0	18335	4401.168838090418	2
0	18341	4401.991206828635	3
0	18343	4402.095287151229	4
0	18345	4403.030294938389	3
0	18352	4403.463202871967	2
0	18362	4404.869938900423	3
0	18368	4408.499015860297	4
0	18372	4408.945241780044	5
0	18373	4409.249239456114	4
0	18380	4409.893523854638	3
0	18384	4411.554459519998	4
0	18386	4412.434315056086	5
0	18390	4415.629119708282	4
0	18395	4416.392078525931	3
0	18402	4417.897174047049	2
0	18406	4419.116207156759	3
0	18408	4419.807249680536	4
0	18410	4421.439398967919	5
0	18412	4424.154595185146	6
0	18415	4425.415041071861	5
0	18420	4427.089319905224	4
0	18425	4428.230108540452	3
0	18431	4430.337528534821	2
0	18436	4431.728554480228	1
0	18443	4433.297087695687	0
0	18469	4438.053969001666	1
0	18470	4438.190614552082	0
0	18476	4439.564126624505	1
0	18477	4440.462821095472	0
0	18495	4444.6341679205	1
0	18497	4444.830295991599	2
0	18499	4445.170512473211	3
0	18500	4446.209047072569	2
0	18505	4446.265864775066	1
0	18513	4447.621260967453	2
0	18515	4447.821689363875	1
0	18522	4448.227071511891	0
0	18535	4449.53136042064	1
0	18537	4452.876892878873	0
0	18546	4454.814188253467	1
0	18547	4455.003250210881	0
0	18567	4460.668240199064	1
0	18569	4460.779391921729	2
0	18572	4461.597833160324	3
0	18573	4461.876485208646	2
0	18581	4465.158165597878	1
0	18586	4466.703128700961	0
0	18604	4467.964427394728	1
0	18605	4468.063579141018	0
0	18616	4468.528552445527	1
0	18618	4468.569889989016	2
0	18620	4468.698232536061	1
0	18626	4469.152629154803	2
0	18627	4469.250139088671	1
0	18632	4470.432542745488	0
0	18654	4475.157020940599	1
0	18656	4475.398125771649	2
0	18657	4475.498020178856	1
0	18664	4479.480048141755	0
0	18668	4483.703078789769	1
0	18671	4487.088528254854	0
0	18687	4488.978218864966	1
0	18690	4490.389384857141	2
0	18694	4491.274225998471	3
0	18695	4491.576239194544	2
0	18700	4492.136734800184	1
0	18705	4493.302227566124	0
0	18713	4496.362329804277	1
0	18715	4496.787878457132	0
0	18735	4500.387181021701	1
0	18738	4501.617128839811	0
0	18756	4504.359190048517	1
0	18758	4505.099140609489	0
0	18764	4505.771142502484	1
0	18765	4507.494278511959	0
0	18785	4510.848189201806	1
0	18789	4511.413669220225	2
0	18791	4512.84303024537	3
0	18792	4513.327408746219	2
0	18798	4514.129712953282	1
0	18804	4514.997744929488	2
0	18809	4517.173888046356	3
0	18810	4517.577253393918	2
0	18816	4519.078480054163	3
0	18818	4519.950140205217	4
0	18820	4520.918827930918	5
0	18823	4521.818469153501	6
0	18824	4522.546223011936	5
0	18829	4522.547261516265	4
0	18839	4525.597878202584	5
0	18841	4525.990047263269	6
0	18842	4526.03111707577	5
0	18848	4526.241111822499	6
0	18850	4529.307571739387	5
0	18855	4529.394167656676	4
0	18861	4530.992958375439	3
0	18867	4531.605875290818	4
0	18868	4532.634846826265	3
0	18875	4532.854669474619	2
0	18880	4535.715419705084	1
0	18885	4536.520282389588	0
0	18893	4537.839733809921	1
0	18895	4538.104476695273	2
0	18897	4538.966720974134	3
0	18899	4539.996531212439	4
0	18900	4540.546069480926	3
0	18906	4541.486827160886	4
0	18909	4543.880214910681	3
0	18913	4547.961181643134	4
0	18916	4548.399965613992	3
0	18921	4549.850595009537	2
0	18925	4550.024597018923	3
0	18929	4553.241275142437	4
0	18930	4553.855491317593	3
0	18938	4556.572933095361	4
0	18940	4557.264415075919	3
0	18945	4559.143083584603	2
0	18952	4561.112189551076	1
0	18957	4561.886625215621	0
0	18970	4563.203460622434	1
0	18971	4563.23714761699	0
0	18975	4563.279664549377	1
0	18979	4564.862883790851	2
0	18980	4564.986675790352	1
0	18986	4566.271678825245	0
0	19011	4572.388884560921	1
0	19014	4573.133387183911	0
0	19026	4574.314651641912	1
0	19027	4574.340960330509	0
0	19036	4577.110297702965	1
0	19039	4577.538114922459	0
0	19049	4579.414645041738	1
0	19051	4582.318040565807	2
0	19054	4583.962380405955	1
0	19060	4584.188722387767	0
0	19067	4584.850983360016	1
0	19068	4585.010768352092	0
0	19109	4595.067504783554	1
0	19110	4595.622413100291	0
0	19146	4600.138707613515	1
0	19149	4600.823828661339	0
0	19171	4604.041347154262	1
0	19173	4605.337845450456	2
0	19176	4607.757304828009	1
0	19182	4607.835797233546	0
0	19205	4612.714822565267	1
0	19208	4615.92584637288	0
0	19251	4628.432635986637	1
0	19253	4630.27849036873	0
0	19274	4634.095221723103	1
0	19275	4634.190403861779	0
0	19290	4639.732709258738	1
0	19291	4640.747947211497	0
0	19302	4641.449530779408	1
0	19304	4642.23207891567	2
0	19308	4643.185591164022	1
0	19314	4644.595278792516	0
0	19376	4657.971535327835	1
0	19377	4658.191820311884	0
0	19398	4664.99052360459	1
0	19400	4666.282305548677	0
0	19409	4666.895209417356	1
0	19410	4667.570009032835	0
0	19448	4678.573319418167	1
0	19449	4679.691611578824	0
0	19480	4688.084428154076	1
0	19483	4689.058090452121	0
0	19492	4690.220959684537	1
0	19495	4690.465709380424	0
0	19524	4699.091793067973	1
0	19529	4702.269030695807	0
0	19554	4707.390592653289	1
0	19556	4707.656359188184	2
0	19558	4708.170504622017	3
0	19561	4709.088930977012	2
0	19567	4710.472378320353	1
0	19572	4710.501868561229	0
0	19584	4711.483630118666	1
0	19585	4711.751474340112	0
0	19672	4731.701123009764	1
0	19674	4731.919624017919	2
0	19675	4732.380664108244	1
0	19679	4733.185891963391	2
0	19681	4734.729494419467	3
0	19685	4735.442954306383	2
0	19693	4736.092535485145	1
0	19699	4736.972956136119	0
0	19705	4737.977918473647	1
0	19707	4738.547133479141	0
0	19720	4740.249644398746	1
0	19724	4741.837054553892	2
0	19726	4742.586447881605	3
0	19727	4744.308993130488	2
0	19732	4744.786686090594	1
0	19738	4745.777184410217	0
0	19751	4747.546744612833	1
0	19752	4747.689956961424	0
0	19830	4760.408429210191	1
[...]
4	112473	27404.723562632262	1.84878376984
4	112502	27408.550712820124	2.401359908087
4	112506	27408.736077060192	0.740292911655
4	112513	27411.86323683562	0.620058017185
4	112569	27423.180373763415	0.602754621376
4	112617	27433.406864776543	4.147795198833
4	112624	27441.90872958512	3.976912858096
4	112634	27444.04595150112	0.506110936346
4	112656	27446.804785970481	0.829394056254
4	112666	27448.559808290805	2.110910318972
4	112671	27449.17121525622	1.021311549545
4	112676	27452.239644365812	3.96096255281
4	112686	27460.111197408605	2.725634883814
4	112708	27464.037989695466	0.692822314476
4	112736	27468.835079810046	1.453451449687
4	112782	27482.097781233935	13.570133088196
4	112787	27482.417317442543	12.728956817946
4	112791	27484.826746350951	5.301546269517
4	112817	27493.057495964382	4.968230606697
4	112832	27496.305592431915	2.95770422494
4	112868	27508.418399040844	3.043215034665
4	113005	27541.638751877823	32.79879832286
4	113014	27543.070199902691	32.457030672385
4	113031	27544.990005559865	31.406521213338
4	113040	27549.747568455601	27.699560242852
4	113055	27553.475663497117	19.6655877814
4	113066	27555.366182997143	16.639792548536
4	113077	27562.633135743141	23.493381362217
4	113093	27564.706481490468	16.246539509224
4	113101	27568.915158969989	18.264223252609
4	113158	27583.707139798726	23.601581750404
4	113177	27589.310972691721	17.491869144641
4	113198	27593.312937289773	20.32143022224
4	113203	27593.410990934668	18.46098715001
4	113208	27595.313344537331	16.877992337229
4	113224	27604.955490840304	12.820674580674
4	113231	27607.07369761505	7.252777862021
4	113236	27608.39452220624	8.388998392
4	113245	27612.32453671072	10.842294574753
4	113269	27616.513074032086	12.990026875075
4	113280	27617.890885599008	14.159906604867
4	113284	27618.150406456795	12.436374782889
4	113328	27641.012040688314	6.611847849902
4	113335	27642.588042017126	7.622904148198
4	113378	27654.46451882317	8.942598998397
4	113407	27658.866300938676	3.873762489659
4	113530	27695.015138759322	16.061848017511
4	113549	27697.067800719805	15.373831070924
4	113558	27701.818974271805	6.324740427119
4	113567	27705.421782821482	6.997336566167
4	113580	27708.486772580688	8.442298429336
4	113585	27710.401317468818	6.196633015267
4	113590	27712.933086313676	7.496016430428
4	113597	27714.228605348952	1.259484493234
4	113631	27731.127698859109	1.254871145387
4	113635	27733.863227125616	3.259526934198
4	113693	27752.003373184958	5.515818791222
4	113704	27753.913982410477	0.689627144013
4	113719	27759.036727935226	2.444778670237
4	113748	27763.141550935841	3.726679573
4	113759	27765.600435876155	5.009363924328
4	113777	27769.39399487768	6.233964566396
4	113811	27775.239513486814	9.95690966404
4	113824	27777.999424639875	2.984059271628
4	113902	27795.742292569923	8.32197959914
4	113907	27796.570440950773	5.713286487439
4	113912	27797.888985357325	5.473970882662
4	113919	27800.485593321591	7.416578704735
4	113926	27801.901800752563	8.074725737578
4	113940	27804.039517182109	9.186381130769
4	113976	27812.76907752158	3.468154936588
4	114007	27820.857647020894	4.881286271363
4	114014	27821.163049781588	4.605960385776
4	114020	27824.327021420072	6.26629631756
4	114029	27825.453339789721	7.211569800909
4	114043	27828.297501958658	7.400711343226
4	114052	27829.105386595315	4.65477125397
4	114112	27846.485217779086	13.975184540023
4	114129	27850.377769642614	4.850873113343
4	114200	27867.551728011251	6.754144679206
4	114206	27868.34950427144	5.385371227902
4	114215	27868.755276658283	1.361979936083
4	114233	27872.025348848979	3.647698292611
4	114259	27881.548775484343	1.282105109521
4	114263	27882.160046445843	1.565074845491
4	114281	27886.716976235554	2.89329894326
4	114318	27894.209904891493	1.208990661672
4	114335	27897.348429396678	1.06878740844
4	114352	27904.072387016219	7.361084200629
4	114417	27915.092240333812	15.168531750112
4	114454	27923.230824742704	19.359115831882
4	114465	27926.832190681839	21.842650919775
4	114473	27929.233026391641	21.517159835537
4	114478	27930.448347229778	9.843758387957
4	114485	27932.732256662226	5.776749281035
4	114489	27936.967644255848	4.683044103693
4	114509	27941.583727991044	2.221611806916
4	114521	27942.858519443873	2.635420921772
4	114543	27947.352572479143	2.515004374062
4	114561	27950.058349917512	0.834668946816
4	114568	27951.103527364383	1.688266039658
4	114573	27951.345510630059	0.340933522757
4	114596	27957.204380787401	0.741483519529
4	114616	27967.801129776161	6.480213975283
4	114674	27979.47139803157	10.744996621274
4	114716	27991.330534764456	7.812706819917
4	114738	27996.115241623481	1.090855201089
4	114746	27997.493099607222	0.023199830472
4	114759	28001.495053715362	3.169943396873
4	114774	28007.188283340177	5.20707684534
4	114778	28007.806364982586	4.085589841135
4	114817	28018.205654803501	1.990714118416
4	114824	28019.696425993108	0.316211298121
4	114852	28034.997822196185	8.516715229323
4	114878	28038.461630291427	1.293787123678
4	114895	28041.77173092483	4.371646929116
4	114913	28047.959439949026	2.863180615449
4	114925	28054.959487024778	3.072942461645
4	114935	28057.047478874488	4.728209520812
4	114942	28057.33555187212	0.094469975194
4	114966	28067.250333910903	1.979275033531
4	114986	28070.446165786628	0.395283613741
4	115015	28077.481127282987	0.121316797003
4	115023	28078.304539352565	0.543386712916
4	115031	28082.424325163248	0.42639102619
4	115050	28091.855674902249	3.449382365666
4	115065	28094.912161124524	0.126023075227
4	115147	28112.292122761923	5.783679464558
4	115182	28124.55022157862	15.550387741755
4	115204	28127.733901366271	9.200726217496
4	115210	28130.177734893918	6.987696045842
4	115217	28132.465164694924	1.624596888224
4	115253	28144.882373333319	6.20979538705
4	115271	28150.595740046152	7.912761427123
4	115278	28152.061548343567	0.93749672522
4	115290	28159.952390871934	1.899584141446
4	115296	28160.478485346132	1.304059966196
4	115303	28167.324863394997	0.211266923291
4	115326	28175.512725596404	0.130872784758
4	115350	28179.510482961696	0.763878653007
4	115365	28182.476495666171	1.289973682022
4	115382	28187.557819802677	0.827607934651
4	115418	28194.065603082299	4.038674849129
4	115423	28194.24296690898	0.792516906805
4	115430	28200.744873901351	7.187813834084
4	115464	28207.887652345698	6.07033444156
4	115472	28211.774334709424	9.777704478893
4	115482	28213.502576325859	8.195857923766
4	115490	28215.163806089315	9.266694932329
4	115546	28229.223485180991	1.597473473578
4	115558	28237.052861658407	0.485908324474
4	115628	28248.582905335463	8.842692246397
4	115688	28260.044218608944	18.531592236995
4	115700	28261.985414841975	17.388784919898
4	115705	28264.373894156206	18.262651438837
4	115714	28267.126151631858	20.350811484144
4	115736	28269.632030344967	20.069694844377
4	115749	28276.449584816329	17.732947659282
4	115783	28282.636861120748	13.754468698069
4	115794	28283.522410172255	14.399861641558
4	115801	28285.287942368673	14.282193911838
4	115806	28285.887751333782	13.589162982412
4	115818	28289.550160325605	6.622755988631
4	115853	28297.900262564362	14.806039859053
4	115862	28300.812699018754	16.570391406375
4	115869	28301.097819924503	15.054110462849
4	115879	28305.248365479237	15.214435414946
4	115884	28306.633417476091	11.583214613031
4	115891	28307.14286505377	8.746932817421
4	115908	28314.656263018865	7.778493000398
4	115968	28330.983242309194	19.551814056913
4	115983	28331.846453324637	20.261509992571
4	115992	28333.182807594229	13.005492840124
4	116002	28334.499946103669	2.023800853389
4	116014	28338.022413355759	4.829426811257
4	116041	28342.043083673823	8.371067095055
4	116045	28343.705945965519	6.574165149378
4	116053	28346.812974402079	0.857078431254
4	116075	28360.252535673393	0.154981598253
4	116085	28363.225039540366	0.334963222358
4	116095	28367.47430923718	2.915771964436
4	116157	28381.696498357293	2.763138829431
4	116175	28386.156723267138	0.886828053774
4	116204	28392.224230611181	1.632169315843
4	116214	28397.430821967561	4.146010099772
4	116235	28405.569655036783	0.730621963528
4	116326	28429.147448214881	9.586789281773
4	116334	28429.647424376946	6.115299432294
4	116343	28435.106972537763	10.075576811642
4	116360	28438.322984785502	9.501699124504
4	116376	28446.009562447311	16.849762520589
4	116420	28453.087026111689	17.422618940101
4	116447	28456.230482496547	11.054971004044
4	116454	28457.723860921387	11.859032059225
4	116477	28461.17399632077	13.753313688175
4	116538	28474.279304362517	25.982986918912
4	116554	28478.377259341869	29.809642734329
4	116573	28483.672600146765	31.181578171703
4	116589	28485.893260635471	27.151782767858
4	116597	28488.736294632684	29.302791257597
4	116602	28488.888304666572	23.912311148015
4	116610	28490.899682283311	23.451159606613
4	116620	28493.337711144227	13.786478181788
4	116639	28495.2808336999	11.571819522746
4	116644	28497.279603048242	11.83772484959
4	116655	28499.416618691668	13.619809522015
4	116679	28507.017777705926	17.436683617223
4	116715	28515.923014082857	22.320500911099
4	116720	28518.332554822097	23.721463695349
4	116725	28519.109320358763	21.201112487165
4	116732	28520.606018495304	21.572939094875
4	116742	28522.974169715116	22.933959366662
4	116747	28523.984265939768	21.919610774712
4	116757	28530.189227321833	24.665369374824
4	116800	28540.83929905361	32.085910428614
4	116817	28542.915049646916	33.679326939148
4	116831	28549.008655765626	37.360779825198
4	116863	28554.150463157259	41.969074630602
4	116870	28558.610551270045	44.590992891958
4	116882	28565.594851147138	21.127723764955
4	116891	28568.186956210705	22.606210458254
4	116932	28579.899289129411	10.709467820007
4	116942	28590.740970991559	3.790486664746
4	116976	28596.993700509775	4.075298612931
4	116981	28597.700983504189	4.159012233874
4	116996	28609.784754730611	0.261663465762
4	117006	28613.297073599544	1.463497872879
4	117023	28614.936699544577	0.450042394014
4	117032	28617.173096428991	2.395905003747
4	117051	28621.337196723918	2.039416657904
4	117071	28626.637480003845	2.067705122743
4	117098	28630.707144930922	1.80994553436
4	117109	28634.673432404934	4.18338432418
4	117123	28638.494560780042	2.134162369338
4	117140	28639.87498907458	1.59565709839
4	117149	28643.066351828495	3.441454651522
4	117160	28645.740350254646	3.540771029686
4	117181	28650.61065373976	6.475434368502
4	117204	28656.5842216332	10.895412209068
4	117233	28663.330858312325	16.415249393405
4	117315	28680.385099501172	31.46181855916
4	117322	28681.104299040089	32.144419054454
4	117327	28682.875763794142	33.48456549177
4	117335	28683.631132218328	21.489086572619
4	117344	28687.71116219241	25.468342290047
4	117382	28694.623670797395	29.726870193134
4	117398	28696.641110003141	30.229071000354
4	117408	28700.495401243406	22.752389779945
4	117425	28701.497042675501	20.947044760378
4	117430	28701.933217987476	18.503342804431
4	117441	28705.657488679039	20.567625704058
4	117494	28718.930116353797	31.161562166177
4	117510	28721.833978506599	29.07557706107
4	117515	28722.076765248237	27.924949557569
4	117523	28725.379625727432	23.028974805929
4	117528	28727.515600533154	17.696278313211
4	117546	28732.731285838516	17.823309057114
4	117641	28749.795674003543	33.696145206879
4	117654	28752.601659044615	36.176625131416
4	117660	28754.238940039936	34.770164432333
4	117665	28754.318980616913	34.156077760015
4	117675	28759.563778592282	37.395686901503
4	117716	28770.025789139135	37.875865774675
4	117729	28773.39849141431	38.801591337647
4	117734	28774.672816657723	38.634242024305
4	117739	28776.9116753784	40.824176098302
4	117746	28779.282746762895	37.464418073386
4	117760	28786.602284426254	44.045584552558
4	117780	28790.744401115914	45.956510014404
4	117809	28794.695007132385	44.3813049604
4	117827	28799.036507738318	36.411026091627
4	117893	28810.035714267617	46.871984764987
4	117904	28811.994115041171	46.979682802788
4	117909	28813.270389853249	45.781481820457
4	117916	28817.697608231876	49.126031485553
4	117937	28820.450856726058	51.859634750764
4	117942	28820.712691914272	49.988946509606
4	117947	28821.256230562635	42.986529113388
4	117958	28823.947981407073	43.574138616165
4	117974	28825.45708261015	44.369597519957
4	117980	28827.317735784417	40.899028684428
4	117989	28835.176615453683	46.49906990445
4	118006	28840.523187899292	45.238801337224
4	118022	28844.160300340906	46.504155272228
4	118045	28850.232417290657	52.04492874633
4	118050	28853.117385024056	53.236137476266
4	118055	28853.320522978788	53.203206555839
4	118068	28854.953531229981	52.315898269088
4	118110	28860.060899272506	51.933191159699
4	118132	28868.075539467233	35.634934471427
4	118148	28870.048398291096	33.133226515067
4	118154	28871.551288315682	31.269760609757
4	118159	28872.188606404961	29.71998624297
4	118170	28877.5645583872	29.629545726286
4	118207	28886.468858371613	38.350753791813
4	118213	28887.570764693493	33.842676140812
4	118224	28892.894730876824	38.378478108461
4	118259	28900.698854624781	12.490234815765
4	118270	28901.581438473482	6.569522080082
4	118275	28902.11529952474	5.66266892555
4	118283	28904.454922783209	0.480562464818
4	118296	28908.115130846614	3.533183611084
4	118338	28915.923592324528	1.342458190859
4	118348	28921.713693114767	5.713642467214
4	118421	28945.077591358582	2.37050140901
4	118444	28950.578036804379	1.717688156388
4	118507	28963.267920382516	6.93438814124
4	118514	28966.730553751544	9.113720634628
4	118524	28970.23685729654	8.260217434805
4	118531	28971.600305886417	2.448376252662
4	118544	28975.311438524507	5.379000596583
4	118572	28981.048708406879	2.739309758904
4	118670	29004.687510072203	25.63341438174
4	118677	29006.132434054917	15.680378811594
4	118689	29009.352692040185	6.102079944182
4	118698	29012.348809338611	6.063063654736
4	118716	29015.598333874669	2.639645795991
4	118724	29017.838606280368	2.113543980857
4	118731	29021.63009449912	1.998440807159
4	118783	29032.399012616968	4.106954319143
4	118792	29036.612414268786	4.317468651002
4	118811	29044.924264471254	2.245252405557
4	118849	29055.620852348539	1.201811685874
4	118887	29067.909068233961	0.338319952186
4	118911	29073.761838758044	0.454389793395
4	118922	29079.851457185641	4.942274771608
4	118926	29080.921904929685	2.644029801338
4	118960	29085.854170413785	1.180471530214
4	118969	29088.100556482429	3.369743296064
4	119002	29098.071640692164	6.809336696241
4	119023	29108.892555826544	4.679169515387
4	119054	29112.441103702388	0.59418252863
4	119066	29114.394566095439	1.009184421928
4	119087	29120.677697608605	6.446854413277
4	119098	29123.580402904651	7.752884329712
4	119161	29146.423001787654	1.885144459775
4	119173	29147.726685212525	1.068937791715
4	119206	29163.847328313357	0.805209061522
4	119213	29168.147910575152	0.389859472921
4	119223	29172.002819821354	2.128321686275
4	119285	29196.141910404438	1.34631454075
4	119325	29209.185673216045	3.474345132763
4	119360	29219.262244176149	3.858847965786
4	119372	29222.163157937654	3.694002564905
4	119419	29233.370716577205	3.191946131654
4	119451	29241.496806331164	0.13039310661
4	119465	29242.649875322857	0.928579675384
4	119490	29255.508852040503	5.96487674699
4	119500	29255.736192749093	3.758542303427
4	119511	29262.086958796683	9.105006058445
4	119528	29266.552304349689	9.059235456593
4	119551	29269.724590444668	6.362298974357
4	119571	29271.085700166245	3.363771981208
4	119577	29273.502184094602	3.538613187787
4	119647	29301.334210684937	21.340489074071
4	119653	29302.938636170659	20.647879324006
4	119672	29307.187394840851	16.419917754606
4	119939	29378.383053615795	74.430388905055
4	119945	29379.17794619003	71.891504367278
4	119951	29388.679427833222	79.917491205108
4	119957	29389.545535062645	78.557370090333
4	119962	29390.183660515836	79.097634727494
4	119971	29392.762223538005	68.513633661493
4	119990	29396.920448489759	66.916852425297
4	119998	29399.326720689827	65.301837849314
4	120005	29403.233500867831	68.521861609429
4	120018	29407.005775136537	71.160762660407
4	120023	29408.484503614954	71.99807275521
4	120032	29411.547853454315	61.097366556835
4	120046	29416.606464071498	65.302991039737
4	120112	29432.579095138635	75.315164763251
4	120145	29441.35940688312	81.506134545483
4	120159	29443.283629577947	83.155949009546
4	120438	29505.742398966649	137.92602967366
4	120469	29516.684817767519	139.78768198848
4	120484	29525.220105364818	129.25629055242
4	120491	29526.68359086964	128.60940800774
4	120504	29530.978790410557	126.567411521
4	120530	29535.813089165649	127.29984599995
4	120552	29544.371455875152	122.35776989184
4	120568	29546.160228228579	123.70015001041
4	120576	29548.900515268494	124.63427583992
4	120588	29552.153634136929	126.5538250328
4	120598	29557.550620461531	131.14298322981
4	120608	29558.335095829816	130.77845744558
4	120617	29562.238319491294	133.43141330846
4	120622	29563.823412078841	129.93162597693
4	120630	29569.000016178967	129.62215772079
4	120640	29570.403260838409	128.58585988393
4	120775	29610.648527431226	163.77182036974
4	120780	29611.047740620738	153.62997967709
4	120785	29614.173426865291	145.62787464373
4	120802	29621.933927098778	152.98165574566
4	120870	29642.010032421938	169.59747815381
4	120875	29642.49984313309	162.10987978793
4	120884	29645.414216634607	164.2133429378
4	120996	29676.836158644782	191.48216744668
4	121001	29677.462747863129	191.55780272114
4	121020	29682.935342720314	196.48015397535
4	121094	29696.532830757851	208.95045870527
4	121136	29705.971034090172	216.83221652623
4	121147	29706.969556616117	216.18860885815
4	121152	29707.158333677251	210.2061389485
4	121161	29711.729196041896	202.20796252003
4	121175	29713.977920883323	190.88381314137
4	121186	29721.742829511175	198.04693739618
4	121201	29723.922706854358	197.78036768197
4	121213	29724.943449324806	195.62559672183
4	121218	29725.742106671604	187.99822653653
4	121224	29731.149532466577	178.66839017368
4	121229	29731.156645810237	169.75217449076
4	121235	29731.650041182269	163.0280878001
4	121240	29731.659608001663	157.81422843324
4	121247	29732.761679430444	155.1264998712
4	121256	29737.686367270086	158.87726906036
4	121305	29742.234483350882	160.68608445948
4	121310	29742.878132152911	158.8277497571
4	121321	29745.208959327924	153.01173200771
4	121338	29749.189026518324	156.9264616095
4	121345	29749.90084325521	148.60582658632
4	121361	29752.837311117994	151.25145905093
4	121377	29762.219776332665	159.33653374408
4	121409	29769.914241874592	163.86191261105
4	121414	29770.245128640699	149.89947987351
4	121419	29772.839656754173	140.4966610458
4	121425	29775.367914163986	122.89954694003
4	121434	29777.561337018641	124.68525806824
4	121447	29779.160754879797	123.89484134723
4	121461	29781.376249787758	123.85193984315
4	121472	29782.857444643933	122.5224584809
4	121536	29793.302293942997	126.12921426818
4	121761	29852.571073346963	180.55611556481
4	121766	29852.612972000589	178.15909063672
4	121775	29854.559531580527	176.32469433617
4	121795	29857.459683429507	176.09466849129
4	121801	29858.375488610874	173.24779969604
4	121808	29859.214565970532	172.1602077067
4	121824	29862.334567255129	171.41701478875
4	121842	29865.444346226144	165.55345294645
4	121847	29865.679191541022	159.92214800775
4	121858	29868.682256568967	160.48475041936
4	121918	29886.430519906378	172.79352336664
4	121930	29889.880183313911	172.04963154296
4	121970	29897.070842747959	177.08333288722
4	121977	29900.46202480814	176.82051193367
4	121989	29901.72251171	169.2930244913
4	122001	29905.03888052327	154.66575879473
4	122034	29911.16176952076	159.00691144086
4	122039	29913.511456103445	154.60736197799
4	122046	29915.727163214311	155.1633188649
4	122053	29923.850071581828	156.30124875652
4	122063	29928.15246250611	150.7255538607
4	122080	29934.746118751728	153.99254462682
4	122197	29963.848223134102	181.57461989915
4	122202	29964.225639836656	177.54944485665
4	122208	29965.58551780934	178.18607351859
4	122219	29968.228565594497	180.79878538383
4	122241	29972.885007206172	179.99536339717
4	122258	29975.63354737707	179.68993444073
4	122310	29985.990203650202	188.29387102148
4	122352	29995.690462010227	197.23545045835

