version 2
run Second-n5-10-20191016-17:04:39-14852
attr configname Second-n5
attr datetime 20191016-17:04:39
attr experiment Second-n5
attr inifile omnetpp.ini
attr iterationvars ""
attr iterationvarsf ""
attr measurement ""
attr network org.omnetpp.queueing.Pizza
attr processid 14852
attr repetition 10
attr replication ""
attr resultdir results
attr runnumber 10
attr seedset 10
param **.PS.maxInventoriedPS 5
param **.U1.interArrivalTime exponential(3s)
param **.U2.interArrivalTime exponential(5s)
param **.PS.serviceTimeForInventoryU1 exponential(1.0s)
param **.PS.serviceTimeForInventoryU2 exponential(1.2s)
param **.PS.serviceTimeDirectU1 exponential(1.4s)
param **.PS.serviceTimeDirectU2 exponential(1.4s)
param **.PS.probabilityProducing 0.7
param **.CS.serviceTimeU1 exponential(1.1s)
param **.CS.serviceTimeU2 exponential(1.4s)

vector 0 Pizza.EntryQueueU1 queueLength:vector ETV
attr interpolationmode sample-hold
attr title "queue length, vector"
vector 1 Pizza.CS queueLength:vector ETV
attr interpolationmode sample-hold
attr title "queue length, vector"
vector 2 Pizza.EntryQueueU2 queueLength:vector ETV
attr interpolationmode sample-hold
attr title "queue length, vector"
vector 3 Pizza.sink lifeTime:vector ETV
attr interpolationmode none
attr title "lifetime of arrived jobs, vector"
attr unit s
vector 4 Pizza.sink lifeTimeU2:vector ETV
attr interpolationmode none
attr title "lifetime of arrived jobs, vector"
attr unit s
vector 5 Pizza.sink lifeTimeU1:vector ETV
attr interpolationmode none
attr title "lifetime of arrived jobs, vector"
attr unit s
0	0	0	0
0	10	4.426303334927	1
0	13	5.190193022171	2
0	15	5.226442253557	1
0	20	5.328179012215	0
0	36	8.895634259765	1
0	38	9.700915865658	0
0	121	27.694463129053	1
0	124	28.994449153898	2
0	125	29.548958631144	1
0	131	31.81363401794	0
0	140	33.209629490597	1
0	142	34.704983242378	2
0	148	35.758206778963	3
0	152	37.212289149088	4
0	153	37.340936155443	3
0	158	37.825426027623	2
0	165	39.749772889272	1
0	173	42.314215348723	0
0	195	45.873499078765	1
0	198	46.397450741445	0
0	221	50.332908080076	1
0	222	51.11679337216	0
0	250	55.409078170665	1
0	252	55.409895866199	2
0	253	55.596308678472	1
0	258	56.117616654559	0
0	282	63.897144074905	1
0	286	65.143859906318	2
0	287	65.860182945697	1
0	299	67.022802923742	2
0	302	67.976247402656	1
0	307	68.096284174576	0
0	331	69.668630093769	1
0	333	70.337248163302	0
0	342	71.03274569498	1
0	345	71.87321030321	0
0	379	84.03568420959	1
0	380	84.122688074908	0
0	404	91.086750733039	1
0	406	92.363864349967	2
0	412	94.91698122614	3
0	413	95.53320729165	2
0	421	97.390560131395	3
0	422	97.402365997706	2
0	427	97.579240572682	1
0	435	99.078902085919	0
0	447	102.411927126164	1
0	450	102.972329318222	0
0	482	107.815159737239	1
0	483	108.41402052479	0
0	494	108.677750921612	1
0	496	109.383390617954	2
0	497	109.92911952794	1
0	502	110.886116586041	0
0	515	113.963024418114	1
0	519	115.359203162889	0
0	538	123.938737598268	1
0	539	124.113139740469	0
0	554	125.124683932519	1
0	556	125.423014913228	2
0	557	126.724224296311	1
0	562	126.812464726762	0
0	568	126.872999166238	1
0	571	128.379072967473	0
0	577	129.431371539479	1
0	581	130.72932630731	2
0	582	131.255222149183	1
0	589	132.61668627748	0
0	615	135.764341453854	1
0	616	138.030998802543	0
0	654	145.903787338924	1
0	655	146.84907259807	0
0	676	150.88427096229	1
0	679	152.526173482087	0
0	688	153.69504454917	1
0	692	154.427540583988	0
0	725	166.741999135389	1
0	729	167.802133908051	0
0	740	169.268830365346	1
0	742	172.914805043027	0
0	751	174.139074851406	1
0	752	174.808542547415	0
0	759	175.561398727829	1
0	760	175.819358877652	0
0	789	183.928245589314	1
0	790	185.157274978466	0
0	799	189.797773351539	1
0	803	190.442430765145	2
0	806	192.218028969688	3
0	807	193.869541600623	2
0	812	194.381328859759	1
0	817	195.293796274964	0
0	832	196.953950275754	1
0	833	197.006870357689	0
0	840	198.139180346394	1
0	850	200.114661448545	0
0	871	204.226585218631	1
0	877	206.277416275142	0
0	891	206.982622519092	1
0	892	207.71999562013	0
0	921	213.800828485536	1
0	922	215.125319535235	0
0	931	215.367253257471	1
0	933	216.637698117491	2
0	937	219.082096844685	3
0	938	219.191116398144	2
0	943	219.361189653975	1
0	948	220.00763424483	0
0	983	229.357057293037	1
0	985	230.188411011596	0
0	1007	235.896967420936	1
0	1009	236.313294590916	2
0	1010	236.76564490063	1
0	1020	239.293868812804	2
0	1021	239.783746966374	1
0	1027	240.031219180901	2
0	1029	240.060673228129	3
0	1031	240.484037743425	4
0	1033	241.251862180818	5
0	1035	241.656749397129	6
0	1037	242.081630639536	7
0	1039	242.32052897305	6
0	1048	242.580491973244	7
0	1050	242.621353539246	8
0	1051	243.277553815337	7
0	1057	243.408035914486	6
0	1062	243.567289519739	5
0	1069	244.416300048352	4
0	1074	244.766295036803	3
0	1079	244.839127457501	2
0	1086	245.733790062529	1
0	1092	246.580573999464	2
0	1094	248.709649887449	1
0	1100	249.031831358037	0
0	1116	250.380642859729	1
0	1118	251.051717797371	0
0	1125	251.570077523506	1
0	1129	252.096184563881	2
0	1130	252.170368000135	1
0	1136	252.494581529397	0
0	1147	253.031650646658	1
0	1149	254.372787732003	2
0	1151	255.469731943159	3
0	1152	256.13589083849	2
0	1157	257.632675069228	1
0	1164	260.706613736246	2
0	1168	261.480915395964	1
0	1174	263.069758661098	0
0	1186	264.423071003907	1
0	1187	265.412403147702	0
0	1193	265.532373953718	1
0	1195	266.238917858136	0
0	1219	269.702397534483	1
0	1220	270.404594876308	0
0	1240	278.775778685069	1
0	1242	279.090461327106	2
0	1248	281.19142836654	3
0	1249	283.823114415852	2
0	1254	284.423292906585	1
0	1260	286.121826692302	2
0	1267	288.442772007392	3
0	1268	288.842654219907	2
0	1273	289.024203911669	1
0	1278	289.233215690576	0
0	1285	289.462417591727	1
0	1286	290.989444546762	0
0	1293	292.602514228881	1
0	1295	293.571578492674	0
0	1316	295.640058772945	1
0	1319	296.887465161817	0
0	1328	299.962709828165	1
0	1338	302.881905207905	2
0	1342	304.411460491196	3
0	1345	305.91833839394	4
0	1346	306.338249200619	3
0	1353	307.270354051463	4
0	1356	309.394264293655	3
0	1362	309.472725926535	4
0	1364	309.717628636866	5
0	1366	311.106735813116	4
0	1371	312.476129220738	3
0	1376	312.708003250808	2
0	1383	313.004618414791	1
0	1391	315.732944398137	0
0	1405	316.915651735007	1
0	1406	317.046343100113	0
0	1445	322.597873433765	1
0	1450	324.191640997857	2
0	1452	324.444534056972	3
0	1453	324.539693047437	2
0	1459	326.36284064311	1
0	1464	326.381600499319	0
0	1488	334.359207730436	1
0	1490	335.138457664674	2
0	1493	337.2656376	1
0	1497	339.181939600159	2
0	1502	339.989263138809	1
0	1510	341.880412479937	0
0	1539	347.238687640731	1
0	1545	350.287090694429	2
0	1546	350.814123018202	1
0	1553	351.567447298823	2
0	1554	351.574833903879	1
0	1559	352.34800413079	0
0	1576	353.054061956212	1
0	1577	353.17736261356	0
0	1618	366.001734008291	1
0	1619	366.171517552239	0
0	1633	367.084341003144	1
0	1638	371.02378096401	2
0	1639	371.662743447651	1
0	1644	371.946592072158	0
0	1674	379.794752272203	1
0	1675	380.343388729665	0
0	1683	381.442141538181	1
0	1684	381.835573969846	0
0	1698	385.967245701528	1
0	1699	386.078561563595	0
0	1705	386.41811955493	1
0	1707	386.601458145051	2
0	1708	386.954190632909	1
0	1714	387.308595398706	2
0	1715	387.446132209297	1
0	1724	389.297496465558	2
0	1726	389.802090774483	3
0	1728	390.370483346095	2
0	1734	390.466869909679	3
0	1736	391.774274123316	2
0	1746	395.351400319791	1
0	1752	395.77682683346	2
0	1753	396.171540274851	1
0	1759	396.619537535369	0
0	1770	398.786265188925	1
0	1775	399.710797905936	2
0	1776	401.657809266895	1
0	1783	402.109383269856	0
0	1818	405.885137576132	1
0	1819	406.364995327847	0
0	1904	432.656051843777	1
0	1905	432.991259429659	0
0	1920	435.069769176377	1
0	1922	437.4920553131	0
0	1978	452.094562028069	1
0	1979	452.098451361411	0
0	2010	466.005535962906	1
0	2012	466.770313127231	2
0	2013	466.813108287356	1
0	2018	466.841748069625	0
0	2084	498.837391375137	1
0	2087	501.302795941964	0
0	2095	501.511503820623	1
0	2096	501.730833996791	0
0	2113	503.603102822356	1
0	2114	503.937278007274	0
0	2127	505.355609680487	1
0	2128	506.580819263463	0
0	2140	507.932315100981	1
0	2141	508.173071203345	0
0	2149	508.679933955588	1
0	2150	509.033048942428	0
0	2156	509.034094420438	1
0	2158	509.550422280603	0
0	2174	513.767929605017	1
0	2179	517.296847983802	0
0	2185	517.949741601235	1
0	2187	518.441409875597	0
0	2201	518.697253485544	1
0	2207	521.207257822635	2
0	2208	521.303096178415	1
0	2214	522.9527787752	0
0	2235	528.379805787122	1
0	2237	528.646205870592	2
0	2241	529.455169860595	3
0	2242	531.632215911687	2
0	2246	532.121067636042	3
0	2248	532.78704235407	4
0	2254	534.10070017994	5
0	2256	535.344429340107	4
0	2260	535.36603720399	5
0	2263	536.819462301888	4
0	2269	538.965723830049	3
0	2274	538.997252341127	2
0	2279	539.865362967056	1
0	2285	541.113558374972	0
0	2305	543.477929959881	1
0	2312	547.227027960514	2
0	2318	549.674849425412	3
0	2320	552.686770093037	2
0	2325	552.769946140037	1
0	2332	553.399244569907	0
0	2340	555.121543944811	1
0	2342	558.783516585331	0
0	2363	564.287654804223	1
0	2365	567.758426696385	0
0	2417	582.325440609692	1
0	2421	583.016477737307	2
0	2422	585.689669813047	1
0	2427	585.696674284731	0
0	2437	586.538721682041	1
0	2438	587.311295557364	0
0	2483	593.444267772411	1
0	2488	595.424432096137	2
0	2489	596.94713596087	1
0	2494	597.127016581565	0
0	2500	597.254175545496	1
0	2503	597.887459637228	0
0	2510	599.204254421305	1
0	2512	599.926774777331	0
0	2568	622.084848691476	1
0	2571	623.384025738542	0
0	2592	629.110266632519	1
0	2593	629.297019572286	0
0	2641	641.279356692258	1
0	2642	641.48511245925	0
0	2665	645.609508582238	1
0	2666	646.447195031442	0
0	2673	647.251004688532	1
0	2674	647.712817346045	0
0	2704	669.516319486821	1
0	2705	669.657031995273	0
0	2728	675.47858382637	1
0	2730	675.520044107599	2
0	2731	675.872923034873	1
0	2738	676.808827116075	0
0	2752	678.72957503726	1
0	2757	682.968167027509	0
0	2784	687.454197590953	1
0	2790	690.802354500082	2
0	2791	691.344205057535	1
0	2797	691.8180910496	0
0	2817	695.095788888475	1
0	2818	696.144713087268	0
0	2851	702.033795140784	1
0	2852	702.119418773001	0
0	2875	705.219112564265	1
0	2879	705.750442206169	0
0	2891	707.979022094286	1
0	2893	708.335890339538	2
0	2898	709.226083763181	1
0	2905	710.182433825998	2
0	2906	712.550224660735	1
0	2911	713.053835655548	0
0	2973	729.554254557125	1
0	2978	730.865328184237	0
0	2984	730.915690989008	1
0	2987	731.370288728316	0
0	2998	734.722038068031	1
0	3002	735.732733909789	2
0	3006	740.558224642398	1
0	3013	741.371165335316	0
0	3031	744.358867723689	1
0	3032	745.407511815078	0
0	3041	746.26933490766	1
0	3049	749.738127554379	2
0	3050	750.079770077474	1
0	3055	750.215073237321	0
0	3066	751.176951347742	1
0	3067	752.757700939344	0
0	3087	756.621650845626	1
0	3089	757.022008742963	2
0	3091	757.220712841278	3
0	3095	759.402203244302	4
0	3099	760.722540670013	5
0	3108	765.472567973302	6
0	3110	765.741294711791	5
0	3115	765.809600113635	4
0	3122	767.170451698728	5
0	3125	768.107754301039	6
0	3127	771.411166689152	5
0	3132	771.733650753655	4
0	3138	772.743790914032	3
0	3146	774.028373834294	2
0	3152	774.051379703469	3
0	3154	776.492258892298	2
0	3160	778.315286012706	3
0	3166	780.018957316642	4
0	3168	781.27135787329	3
0	3173	781.556335164182	2
0	3178	781.763327944033	1
0	3184	781.811329210785	2
0	3185	782.275863888414	1
0	3193	782.694686973671	2
0	3196	783.814002113342	1
0	3201	783.925809745944	0
0	3249	793.523421948317	1
0	3251	794.245122917817	2
0	3252	794.574851677974	1
0	3258	794.600272205149	2
0	3259	794.946332617528	1
0	3264	795.422933246758	0
0	3292	798.392824208689	1
0	3293	798.898266887776	0
0	3299	799.03412985868	1
0	3300	799.424265741526	0
0	3327	802.184573818338	1
0	3328	802.503551894329	0
0	3358	812.283255655627	1
0	3359	813.100098191289	0
0	3366	814.361512925677	1
0	3367	815.020726011373	0
0	3373	815.172334018324	1
0	3376	815.634387779623	0
0	3420	827.522498109634	1
0	3422	828.962872430086	2
0	3423	829.798802665543	1
0	3432	832.591391221432	0
0	3439	832.817275029942	1
0	3442	833.571168616426	0
0	3501	852.507967598088	1
0	3502	852.881309257522	0
0	3508	854.937342421508	1
0	3512	855.580696272744	0
0	3524	857.745415253528	1
0	3525	857.876969493255	0
0	3556	862.719776339046	1
0	3560	866.23256435945	0
0	3566	866.405883931882	1
0	3568	866.427904707617	2
0	3570	868.588216813461	1
0	3575	870.042155124937	0
0	3611	892.032409287204	1
0	3613	892.311317811344	0
0	3626	893.871232995087	1
0	3628	894.232634219896	0
0	3661	904.728617964118	1
0	3662	905.26890204512	0
0	3696	916.928616113375	1
0	3699	919.591753663333	0
0	3710	920.479221931209	1
0	3713	922.53258178779	0
0	3719	922.67745344388	1
0	3720	922.813642011276	0
0	3740	924.311660588927	1
0	3743	929.965693434071	0
0	3776	936.008613241003	1
0	3779	937.423128310114	0
0	3806	947.770498996078	1
0	3808	948.300950866835	0
0	3815	948.786201813061	1
0	3817	949.332829361565	2
0	3820	951.860106998948	1
0	3826	952.268104475421	2
0	3828	952.564983772311	1
0	3835	953.663676129518	2
0	3837	953.711645815024	3
0	3839	953.720237276754	4
0	3840	953.988974119854	3
0	3845	954.317157935051	2
0	3850	954.35103859301	1
0	3856	955.081740201532	0
0	3865	955.794969431277	1
0	3868	958.986877072816	0
0	3894	963.482904519775	1
0	3896	965.939421985703	2
0	3901	968.270023606575	3
0	3902	968.965668731145	2
0	3909	969.995661746302	1
0	3915	970.392083556521	2
0	3916	970.786209222377	1
0	3922	970.796679805383	2
0	3924	971.247069801651	1
0	3931	972.454217002264	0
0	3956	978.242087990468	1
0	3957	978.969498874007	0
0	3991	986.764157099082	1
0	3992	988.143537370598	0
0	4044	1001.23569231594	1
0	4048	1004.238937762416	0
0	4075	1008.324109793479	1
0	4078	1009.539218299089	0
0	4106	1019.524988140712	1
0	4107	1020.251169950502	0
0	4129	1026.748208771013	1
0	4134	1029.169001377674	0
0	4166	1035.050079626381	1
0	4169	1037.684952382538	0
0	4176	1038.125122973021	1
0	4177	1038.776429550046	0
0	4184	1039.18298763286	1
0	4187	1039.815389481505	2
0	4189	1040.517568892132	3
0	4190	1043.488812178425	2
0	4195	1043.945552640533	1
0	4200	1044.272436126339	0
0	4207	1046.140757055115	1
0	4209	1048.09427489187	0
0	4218	1048.901696775901	1
0	4219	1049.245292257746	0
0	4287	1076.886972281537	1
0	4290	1077.444965295479	0
0	4332	1087.671143931014	1
0	4333	1088.055355785791	0
0	4446	1123.21260804195	1
0	4447	1123.322102345374	0
0	4459	1124.970686895229	1
0	4460	1126.454680898153	0
0	4469	1127.164832666117	1
0	4473	1127.489635610195	0
0	4496	1131.017214890808	1
0	4497	1133.256739993486	0
0	4520	1137.743432439212	1
0	4521	1138.029145375003	0
0	4530	1138.831802201981	1
0	4535	1139.714265204975	0
0	4576	1151.369340658965	1
0	4586	1156.183266888995	2
0	4588	1156.209971150348	3
0	4590	1156.783300877532	4
0	4591	1156.831959427292	3
0	4596	1156.985126012427	2
0	4604	1158.004235749573	3
0	4606	1158.187804548937	4
0	4607	1158.809639966799	3
0	4613	1159.317576748267	2
0	4619	1159.336595092977	3
0	4622	1161.608636165315	2
0	4627	1161.620630540178	1
0	4634	1162.884449877285	0
0	4646	1164.079801221469	1
0	4650	1165.277924206526	0
0	4662	1167.843557401737	1
0	4665	1168.489577336851	0
0	4683	1170.502731379345	1
0	4685	1171.457920816581	0
0	4691	1172.028629677846	1
0	4692	1172.401912606594	0
0	4705	1174.559407441431	1
0	4706	1174.683798287661	0
0	4717	1176.836329784505	1
0	4721	1180.128648851609	2
0	4723	1182.589671504343	3
0	4726	1183.306979603597	2
0	4731	1183.952298969578	1
0	4742	1188.098645736819	0
0	4753	1190.228259691115	1
0	4757	1190.526375915882	2
0	4761	1191.48452962655	3
0	4765	1194.852135864348	2
0	4770	1195.72504492606	1
0	4776	1196.236095367022	2
0	4777	1196.583264487084	1
0	4783	1196.647049329677	2
0	4785	1197.076148213135	1
0	4793	1198.687966524558	2
0	4795	1199.431177855177	1
0	4802	1200.501061409333	0
0	4849	1213.934184092288	1
0	4851	1216.028575284732	0
0	4883	1224.245445209819	1
0	4886	1224.539752575667	0
0	4894	1225.276655014853	1
0	4895	1226.533642244014	0
0	4903	1228.865978473532	1
0	4904	1229.311479054742	0
0	4921	1230.763137754702	1
0	4923	1231.268503944257	0
0	4929	1231.418614298806	1
0	4932	1231.605745642424	0
0	4977	1241.821467434966	1
0	4979	1242.955267177047	2
0	4981	1245.307956817323	3
0	4985	1246.723608971324	2
0	4990	1246.759043857022	1
0	5000	1248.226319307527	2
0	5002	1248.561427961935	1
0	5010	1248.847817957659	2
0	5014	1251.041632040234	1
0	5021	1251.86096222069	2
0	5024	1255.470164805569	1
0	5029	1255.990140747972	0
0	5042	1257.20471366322	1
0	5043	1260.048917180964	0
0	5056	1261.89455840119	1
0	5058	1263.210128777674	2
0	5064	1264.530573354302	1
0	5071	1264.983411934206	0
0	5109	1270.693129763916	1
0	5111	1271.108428756637	2
0	5114	1272.72981615573	1
0	5121	1275.455686865031	0
0	5156	1279.698885925515	1
0	5158	1281.973921326047	0
0	5173	1284.63405929332	1
0	5179	1286.747942939736	0
0	5201	1288.571238406322	1
0	5206	1290.980233031163	0
0	5222	1294.845198589362	1
0	5226	1295.650112661883	2
0	5228	1296.05270979324	3
0	5230	1296.071599128731	4
0	5231	1296.362446279641	3
0	5236	1296.54251799508	2
0	5242	1297.100004116671	1
0	5249	1297.632963102044	2
0	5251	1298.072052487912	3
0	5252	1298.350275912856	2
0	5258	1298.505953667694	1
0	5264	1299.133477715658	0
0	5288	1302.110589269876	1
0	5290	1302.824450949197	0
0	5301	1304.752642051095	1
0	5304	1307.183791230031	0
0	5321	1311.402408225331	1
0	5324	1311.822734318467	2
0	5325	1311.926246763999	1
0	5331	1312.301731476162	0
0	5370	1322.812578370879	1
0	5372	1323.256399923656	0
0	5420	1342.755928898137	1
0	5426	1344.046551640712	0
0	5433	1344.417115490799	1
0	5436	1345.425809068178	0
0	5452	1348.704212485166	1
0	5453	1349.776525036723	0
0	5461	1350.377802717837	1
0	5462	1350.749078119244	0
0	5485	1358.375151166022	1
0	5486	1358.879187563392	0
0	5499	1360.777167056078	1
0	5500	1361.013274936495	0
0	5523	1364.339627454093	1
0	5525	1364.611740036591	2
0	5536	1368.119556503638	1
0	5542	1368.180536558649	2
0	5545	1368.394895356475	3
0	5546	1368.692117090184	2
0	5554	1370.829469771521	1
0	5559	1371.463444649305	0
0	5565	1371.782324244338	1
0	5566	1371.867968155228	0
0	5585	1373.754376865645	1
0	5593	1375.163848610764	2
0	5594	1378.31668911982	1
0	5600	1378.328997583835	2
0	5604	1380.22927404444	1
0	5610	1380.379701925979	2
0	5611	1380.462607874087	1
0	5616	1380.518362788731	0
0	5636	1385.248304985605	1
0	5638	1386.670447409327	2
0	5639	1388.160895821774	1
0	5644	1388.3845996757	0
0	5650	1389.034342473653	1
0	5652	1389.514097371291	0
0	5658	1389.808334327806	1
0	5659	1390.221588836419	0
0	5693	1398.274467474	1
0	5696	1399.601733204434	0
0	5718	1402.815978255714	1
0	5720	1403.350703418783	0
0	5726	1403.388412656267	1
0	5728	1403.535645279324	0
0	5758	1410.071621192792	1
0	5759	1410.399159534742	0
0	5799	1420.204732875554	1
0	5800	1420.497286507331	0
0	5833	1431.726142903702	1
0	5834	1432.912210926867	0
0	5847	1433.763280306156	1
0	5848	1433.808803911205	0
0	5856	1434.653758000461	1
0	5857	1434.827357582106	0
0	5912	1451.346382305666	1
0	5914	1452.276291165252	0
0	5920	1452.300427641301	1
0	5924	1453.91907118682	0
0	5948	1467.335126176158	1
0	5951	1467.765083725039	0
0	5982	1470.172175186802	1
0	5983	1470.888655893025	0
0	6019	1482.334078094273	1
0	6022	1485.122227133726	0
0	6053	1492.976297169701	1
0	6055	1493.132271792387	2
0	6056	1493.445917523969	1
0	6064	1494.539163402356	0
0	6086	1498.556167221457	1
0	6090	1502.927048688018	2
0	6091	1503.894616532046	1
0	6098	1507.16697493448	0
0	6104	1507.477784503327	1
0	6107	1508.065438421194	0
0	6128	1510.316737804254	1
0	6129	1511.399031063048	0
0	6141	1512.00544606438	1
0	6143	1512.684622425235	0
0	6151	1513.165036612054	1
0	6152	1513.929016738324	0
0	6175	1519.079038537808	1
0	6179	1520.720019454366	2
0	6181	1521.030724510084	3
0	6185	1522.160961510281	4
0	6186	1522.535722778889	3
0	6191	1523.433426735736	2
0	6199	1525.022022226326	1
0	6204	1526.387804481589	0
0	6227	1530.06959112468	1
0	6231	1531.484324572528	2
0	6232	1531.80729744033	1
0	6239	1532.87364964533	0
0	6251	1533.631322999436	1
0	6255	1534.605898139021	0
0	6273	1535.835659009928	1
0	6275	1536.565366465641	0
0	6297	1541.043568836047	1
0	6298	1541.124294088777	0
0	6315	1545.633028376532	1
0	6317	1545.869024026567	0
0	6338	1550.601966575679	1
0	6343	1552.581893907822	2
0	6344	1552.988246214977	1
0	6349	1553.424795557481	0
0	6355	1553.48762665322	1
0	6360	1554.484840833074	2
0	6362	1554.584309629748	3
0	6363	1556.115626586235	2
0	6369	1557.472325662424	1
0	6374	1557.538520719439	0
0	6402	1561.598716156976	1
0	6404	1561.60847341729	2
0	6405	1561.820354749549	1
0	6411	1564.82517873361	0
0	6440	1572.757807149879	1
0	6443	1573.089839029486	0
0	6480	1582.355942128422	1
0	6483	1583.331778317665	2
0	6484	1584.521387870958	1
0	6490	1585.006311917003	0
0	6503	1585.737346786976	1
0	6507	1586.371377259938	2
0	6508	1586.673945549729	1
0	6513	1586.761223846413	0
0	6614	1615.362567266596	1
0	6622	1620.957709688406	0
0	6628	1621.149287442997	1
0	6629	1621.201708172901	0
0	6641	1624.633167540172	1
0	6644	1624.900059173303	0
0	6651	1626.221623716138	1
0	6653	1627.03589606886	0
0	6690	1638.359887150161	1
0	6694	1638.924107039803	2
0	6695	1640.565696664005	1
0	6700	1640.724527698738	0
0	6712	1641.439140366952	1
0	6720	1644.077423638392	2
0	6721	1644.077969671883	1
0	6728	1644.761175485435	2
0	6729	1645.138740325331	1
0	6734	1646.515349449307	0
0	6761	1651.797902561827	1
0	6762	1651.812953796858	0
0	6787	1658.00783237746	1
0	6794	1661.770050883256	2
0	6795	1661.952456027086	1
0	6801	1661.986498859549	2
0	6805	1666.260021007248	1
0	6813	1667.140894553137	0
0	6825	1668.391340200447	1
0	6828	1673.120640748018	0
0	6846	1676.99290521295	1
0	6849	1677.685954094058	2
0	6850	1678.771072499529	1
0	6855	1679.736747982994	0
0	6870	1686.522733606047	1
0	6873	1686.622968227718	2
0	6876	1686.713779512926	1
0	6882	1686.957093162149	0
0	6895	1689.052707081148	1
0	6898	1690.082354610384	0
0	6937	1701.302887943982	1
0	6942	1703.359391560137	0
0	6952	1703.930879281941	1
0	6953	1704.38137419658	0
0	6970	1707.238162363071	1
0	6972	1707.324486071767	2
0	6974	1707.522378242603	3
0	6978	1708.648475209751	4
0	6979	1709.415686192978	3
0	6984	1710.285123386452	2
0	6993	1712.864192413895	1
0	7000	1713.015363976464	2
0	7001	1713.338065788405	1
0	7009	1714.800461819284	2
0	7010	1715.042872393038	1
0	7015	1715.063118557671	0
0	7021	1715.461848121065	1
0	7023	1717.301526494944	0
0	7051	1723.51282150285	1
0	7053	1724.412117282031	0
0	7059	1725.069536343738	1
0	7060	1725.295515968341	0
0	7067	1727.094870176001	1
0	7069	1728.338809210247	0
0	7115	1736.068103236811	1
0	7123	1741.064669235242	0
0	7156	1747.062635524517	1
0	7158	1747.553337811682	2
0	7160	1747.576150699772	3
0	7162	1748.290733099022	4
0	7163	1748.377463155383	3
0	7169	1748.616874160187	4
0	7171	1749.928370387964	3
0	7178	1750.054898277651	4
0	7179	1750.123465625161	3
0	7185	1751.093640815972	4
0	7186	1751.10282263816	3
0	7192	1753.789323978315	4
0	7193	1754.759625452757	3
0	7198	1755.314750422607	2
0	7203	1755.770519952563	1
0	7207	1755.853635245736	2
0	7210	1756.523488582767	1
0	7215	1759.0281383782	0
0	7221	1760.411264708438	1
0	7223	1760.587734086285	2
0	7227	1761.43149318514	1
0	7234	1763.096612436855	0
0	7270	1772.191451202854	1
0	7274	1773.575192223814	2
0	7276	1773.627805562809	3
0	7277	1774.049646247825	2
0	7282	1775.758719710478	1
0	7286	1775.888004661702	2
0	7290	1777.715204413389	1
0	7295	1777.752876692022	0
0	7337	1793.973291192107	1
0	7338	1795.22224104842	0
0	7404	1818.691225601112	1
0	7406	1819.997470222646	0
0	7420	1821.238074689653	1
0	7425	1822.619998904034	0
0	7465	1832.015331950232	1
0	7466	1832.619009949527	0
0	7479	1833.903848530581	1
0	7480	1834.371825543023	0
0	7487	1834.974604544239	1
0	7488	1835.527205194168	0
0	7527	1846.448188327673	1
0	7528	1846.776891564686	0
0	7534	1846.837262139991	1
0	7537	1847.12363210946	2
0	7538	1847.724328645544	1
0	7543	1847.754826057813	0
0	7580	1855.234531401304	1
0	7582	1855.901279202013	2
0	7589	1861.016525070648	1
0	7595	1861.265701620622	2
0	7598	1862.343753739378	1
0	7604	1863.205180422663	0
0	7617	1868.521168811393	1
0	7618	1868.809848533531	0
0	7632	1872.302396963343	1
0	7636	1873.730652070329	0
0	7657	1882.152463513473	1
0	7659	1883.437609906504	2
0	7661	1883.779944222158	3
0	7662	1884.89929258147	2
0	7667	1885.098549697312	1
0	7672	1885.200017800086	0
0	7683	1887.35637424283	1
0	7685	1889.161121839148	0
0	7705	1894.461235536419	1
0	7706	1895.341875454093	0
0	7755	1908.192910165709	1
0	7756	1908.863902963865	0
0	7844	1939.466660059365	1
0	7845	1939.51854995182	0
0	7860	1942.850962753357	1
0	7862	1943.16741278863	2
0	7864	1943.410285467797	3
0	7867	1943.996622311446	2
0	7872	1944.100706838948	1
0	7878	1944.167658058752	2
0	7880	1945.637132111372	1
0	7885	1945.818819280338	0
0	7915	1951.517573320185	1
0	7916	1952.578312551907	0
0	7932	1955.314539214054	1
0	7938	1956.045587102329	0
0	7955	1958.200140390947	1
0	7957	1958.62376692944	2
0	7963	1960.659293481475	3
0	7964	1960.730428424447	2
0	7971	1962.608498582468	1
0	7978	1964.135250767729	0
0	8078	1988.334056813159	1
0	8079	1989.999396565924	0
0	8102	1997.300156831403	1
0	8103	1998.187979333434	0
0	8109	1998.620325516729	1
0	8110	2000.341184946222	0
0	8144	2008.471251933479	1
0	8146	2009.003800556726	0
0	8157	2009.327917658598	1
0	8162	2010.481071421362	0
0	8220	2020.642626437971	1
0	8225	2021.840886989672	0
0	8235	2022.715155396461	1
0	8238	2023.16550833521	0
0	8253	2027.434259974059	1
0	8254	2028.448467597573	0
0	8287	2038.838974438671	1
0	8291	2040.595249403034	2
0	8293	2041.31377519629	3
0	8294	2042.898603701349	2
0	8302	2043.099409174336	1
0	8307	2044.558783080104	0
0	8315	2046.759144175723	1
0	8317	2046.894630047098	2
0	8318	2047.612569958515	1
0	8328	2050.908627941414	2
0	8331	2052.378708174483	1
0	8338	2053.925890237874	2
0	8342	2054.479415651759	3
0	8348	2055.816788810237	4
0	8349	2056.81769163701	3
0	8356	2057.714507002928	4
0	8357	2057.739750865139	3
0	8362	2058.720815430532	2
0	8370	2059.405860270255	3
0	8371	2059.816686034139	2
0	8378	2060.860256020255	1
0	8385	2062.779775790409	2
0	8388	2065.460048687839	1
0	8397	2066.709036723139	0
0	8411	2068.400608081513	1
0	8413	2069.791449156799	0
0	8433	2070.900798874121	1
0	8434	2071.270014224632	0
0	8440	2071.587908046998	1
0	8441	2071.596768560082	0
0	8449	2072.538763591542	1
0	8450	2072.616250853261	0
0	8470	2075.137563957363	1
0	8471	2075.484374758246	0
0	8499	2081.911099330146	1
0	8505	2083.798944578701	2
0	8506	2084.150531725768	1
0	8516	2086.850625027908	2
0	8518	2087.099880776886	3
0	8519	2088.902611564733	2
0	8527	2091.581179898047	3
0	8533	2092.551539116115	2
0	8540	2093.186546039086	1
0	8545	2093.707612682935	0
0	8589	2104.931919249484	1
0	8591	2105.144897812636	2
0	8594	2105.330379731606	1
0	8599	2105.931954072933	0
0	8608	2106.105588901651	1
0	8610	2106.297741860669	2
0	8613	2107.542428114032	1
0	8620	2108.453151142431	0
0	8642	2111.590305575826	1
0	8646	2112.684784199236	2
0	8648	2114.324498380134	1
0	8654	2116.975295427288	0
0	8686	2128.273952595294	1
0	8687	2128.588859652681	0
0	8701	2131.47927974659	1
0	8703	2131.494451328619	2
0	8706	2131.61475308147	1
0	8711	2132.240388920373	0
0	8729	2138.809743147736	1
0	8731	2139.018466944843	2
0	8732	2139.560350796234	1
0	8739	2139.982062936791	2
0	8740	2140.15261289685	1
0	8746	2141.489516989352	0
0	8776	2147.386773260241	1
0	8777	2147.951948991861	0
0	8809	2155.275238190769	1
0	8810	2155.594052259492	0
0	8840	2163.89797536157	1
0	8841	2164.153074064262	0
0	8857	2166.365334913758	1
0	8859	2166.893496754109	2
0	8860	2167.884573233161	1
0	8866	2170.075948606518	0
0	8898	2180.636928026983	1
0	8899	2180.792529773108	0
0	8916	2184.687106937252	1
0	8917	2184.871532678159	0
0	8941	2192.166483273847	1
0	8945	2193.288617713495	0
0	8996	2206.555927092636	1
0	8998	2207.863198883219	0
0	9017	2211.074203096502	1
0	9019	2211.465091242106	2
0	9023	2213.858697847716	1
0	9035	2217.643064809202	0
0	9048	2219.49659778448	1
0	9049	2219.679704892639	0
0	9099	2230.458110176784	1
0	9100	2230.724224604057	0
0	9115	2234.264264562596	1
0	9116	2234.771131616262	0
0	9160	2246.019926306732	1
0	9161	2246.281936946124	0
0	9176	2249.091456889099	1
0	9177	2249.936072799791	0
0	9214	2261.904139611672	1
0	9219	2262.559329428623	0
0	9226	2263.972210827505	1
0	9229	2265.458602141408	0
0	9237	2268.551176020105	1
0	9243	2270.011065820666	2
0	9245	2271.85289709961	3
0	9246	2272.169004336529	2
0	9253	2274.337360509335	1
0	9261	2277.459710216007	2
0	9263	2278.166049270273	3
0	9266	2278.428146137292	2
0	9272	2279.484971796792	1
0	9278	2280.57383065387	0
0	9301	2282.374411790028	1
0	9303	2284.749046524947	0
0	9310	2286.394170931772	1
0	9311	2286.594039428696	0
0	9338	2288.21990022088	1
0	9340	2288.312725123543	2
0	9341	2288.323901744637	1
0	9347	2288.869391249266	0
0	9360	2292.188557983049	1
0	9361	2292.390707128406	0
0	9385	2295.993410192782	1
0	9386	2296.096035662937	0
0	9401	2298.809806169506	1
0	9405	2299.011369335911	2
0	9406	2299.280107419059	1
0	9411	2300.008654680655	0
0	9434	2303.127250710266	1
0	9435	2303.14057742954	0
0	9473	2311.66555765429	1
0	9474	2311.96710350313	0
0	9491	2317.432430336647	1
0	9497	2321.71661020535	0
0	9549	2338.100911436672	1
0	9550	2339.069050862795	0
0	9564	2342.802200875922	1
0	9566	2343.805571857468	0
0	9588	2347.515782108091	1
0	9591	2349.653766672415	0
0	9609	2351.351485669583	1
0	9610	2351.699910183224	0
0	9641	2359.549440887117	1
0	9642	2361.338511685607	0
0	9657	2363.063109952421	1
0	9659	2363.074647937741	2
0	9660	2363.404563304922	1
0	9666	2363.642018823335	2
0	9668	2363.776322729774	3
0	9669	2364.669552120268	2
0	9674	2364.759293366561	1
0	9679	2365.364302542224	0
0	9696	2368.732921057372	1
0	9698	2369.316918804085	2
0	9707	2372.62887697125	3
0	9709	2372.674022726398	4
0	9710	2373.339996588477	3
0	9718	2375.080108160367	4
0	9719	2376.456812488843	3
0	9725	2378.416587800013	2
0	9731	2378.687470316472	3
0	9735	2381.493249763028	4
0	9738	2382.673152821267	3
0	9745	2383.319586841574	2
0	9753	2385.714718348905	1
0	9760	2386.525875421347	2
0	9761	2387.501038145921	1
0	9767	2387.817939592079	0
0	9797	2392.006505085526	1
0	9798	2392.178189882059	0
0	9805	2392.76076633865	1
0	9808	2393.352437429492	0
0	9848	2399.928305681824	1
0	9851	2400.945892805382	2
0	9852	2402.563522524503	1
0	9857	2403.290047017283	0
0	9864	2406.075500297252	1
0	9866	2407.08867107017	0
0	9939	2432.000949824023	1
0	9940	2432.029935717094	0
0	9949	2433.440668352681	1
0	9952	2434.016313579342	0
0	9958	2434.243001768545	1
0	9959	2434.602826801905	0
0	9970	2436.673884567995	1
0	9973	2438.206767290606	0
0	9979	2438.691685471982	1
0	9982	2439.310283267916	0
0	9998	2444.421722409008	1
0	9999	2447.212731097631	0
0	10005	2447.320661296161	1
0	10008	2448.998342758078	0
0	10145	2482.144563442114	1
0	10147	2482.218772009602	2
0	10148	2482.491428249708	1
0	10157	2484.484424828946	2
0	10159	2485.678551688109	3
0	10161	2486.303870914391	4
0	10162	2486.420797851693	3
0	10167	2487.045336963773	2
0	10173	2487.234349687335	3
0	10175	2487.959710642902	2
0	10182	2488.501084910096	1
0	10187	2488.799272635326	0
0	10195	2489.816387723046	1
0	10196	2489.972536071458	0
0	10202	2490.571945742241	1
0	10204	2490.741916708105	2
0	10209	2491.816626974205	1
0	10221	2495.438109459642	0
0	10238	2497.836824306905	1
0	10240	2498.22913526866	2
0	10241	2498.517693471967	1
0	10248	2500.952856379542	0
0	10254	2501.586464207261	1
0	10255	2502.030718299297	0
0	10338	2522.735153094333	1
0	10340	2523.314134901913	2
0	10341	2525.958467421834	1
0	10347	2528.2492682254	0
0	10353	2528.345607652873	1
0	10358	2531.293932578181	2
0	10359	2531.466087292076	1
0	10365	2532.732840825208	0
0	10418	2556.652161695098	1
0	10420	2556.979856344017	2
0	10421	2557.002786221371	1
0	10428	2557.56756271408	0
0	10440	2558.517460796359	1
0	10442	2561.247969780323	0
0	10454	2565.967275714597	1
0	10458	2568.463330244221	0
0	10464	2568.537159889778	1
0	10467	2569.045192263656	0
0	10490	2573.510854417515	1
0	10492	2574.823324064904	0
0	10538	2583.701818650424	1
0	10539	2583.897957764052	0
0	10573	2594.351575537976	1
0	10576	2595.044355853788	2
0	10579	2595.107512522601	1
0	10586	2597.826201116605	0
0	10608	2600.722779276168	1
0	10612	2601.303104848577	2
0	10613	2601.782764939126	1
0	10618	2602.132599206782	0
0	10649	2610.547746241943	1
0	10650	2610.643655607231	0
0	10659	2612.032766791479	1
0	10660	2612.225731043037	0
0	10667	2613.000605079139	1
0	10668	2614.766811473876	0
0	10674	2615.095558057456	1
0	10675	2615.362680643759	0
0	10717	2636.222493318962	1
0	10719	2636.351249667378	2
0	10720	2636.576593969834	1
0	10726	2636.663899727647	2
0	10729	2637.634837642205	3
0	10731	2638.481684773518	4
0	10733	2639.608532233475	3
0	10739	2640.120676312496	2
0	10744	2640.578846124738	1
0	10749	2640.722795271481	0
0	10790	2653.193353885285	1
0	10792	2654.104933270831	2
0	10793	2654.30862081282	1
0	10799	2654.335366162944	2
0	10800	2654.35552600478	1
0	10811	2659.077551421704	0
0	10818	2659.268946437539	1
0	10819	2659.638496764195	0
0	10889	2688.882801614258	1
0	10892	2689.104151102264	0
0	10924	2693.194928336882	1
0	10926	2694.410067556203	2
0	10931	2698.565036350489	3
0	10932	2699.520864784312	2
0	10939	2700.444850346084	1
0	10947	2701.387528765508	0
0	10967	2704.019283201777	1
0	10971	2704.564121707366	0
0	10999	2709.40094245084	1
0	11003	2711.339530547011	0
0	11043	2721.357196388328	1
0	11047	2722.654783833798	0
0	11053	2722.761041723497	1
0	11055	2723.851959115693	2
0	11056	2724.010508392643	1
0	11062	2725.1121322551	0
0	11069	2726.261443137697	1
0	11070	2726.655919546071	0
0	11076	2726.661452717225	1
0	11077	2727.29550069103	0
0	11146	2753.573740156441	1
0	11147	2753.763150823873	0
0	11210	2769.148421317304	1
0	11211	2769.804431768893	0
0	11245	2776.114646470123	1
0	11247	2776.267738761593	2
0	11248	2778.511523550919	1
0	11254	2781.279964071282	0
0	11261	2782.007246019242	1
0	11264	2782.544472927832	2
0	11265	2782.634353181778	1
0	11271	2783.112726767275	2
0	11275	2785.13363192639	1
0	11281	2785.40586088492	2
0	11282	2785.44679947835	1
0	11289	2786.33841342117	2
0	11292	2787.888500052615	1
0	11298	2788.197609692634	2
0	11299	2788.329366477534	1
0	11304	2789.92542199472	0
0	11310	2790.029662589972	1
0	11312	2790.575367024596	2
0	11313	2790.907815573725	1
0	11321	2792.017017892601	0
0	11333	2793.809000984242	1
0	11340	2796.752360658681	2
0	11342	2797.20297058786	1
0	11350	2797.400605698736	0
0	11356	2797.615577417223	1
0	11362	2798.579759392102	2
0	11363	2799.117459990095	1
0	11371	2801.4586282993	0
0	11393	2803.854630826087	1
0	11394	2804.172706968916	0
0	11429	2809.974287310684	1
0	11433	2811.031115831139	2
0	11435	2812.233709781839	1
0	11443	2812.795228843515	2
0	11445	2814.022445794607	1
0	11450	2815.424201900194	0
0	11475	2822.347730828988	1
0	11478	2822.690181194216	0
0	11484	2823.412853195134	1
0	11485	2823.584401195837	0
0	11526	2831.060816966374	1
0	11528	2832.906649160717	0
0	11534	2832.963114455637	1
0	11536	2834.125312767759	0
0	11553	2835.874688475087	1
0	11556	2838.864169446109	0
0	11565	2841.342059286681	1
0	11569	2847.196062563114	2
0	11570	2847.530942902334	1
0	11576	2847.649561081651	2
0	11580	2848.901535788377	1
0	11585	2849.409820129628	0
0	11597	2850.291026543954	1
0	11601	2851.256241156033	0
0	11616	2854.435043561969	1
0	11621	2855.912151030631	0
0	11638	2856.678089692229	1
0	11639	2857.042427490385	0
0	11658	2861.124383935311	1
0	11659	2861.647335311616	0
0	11678	2864.0715396819	1
0	11683	2865.202040746853	2
0	11685	2866.392352119529	3
0	11690	2872.370747894281	4
0	11692	2872.988653299398	5
0	11693	2875.429490538267	4
0	11699	2876.027373643601	5
0	11700	2876.274412189832	4
0	11709	2879.556350553573	3
0	11714	2879.686807396772	2
0	11721	2880.223000339753	1
0	11728	2881.557332316794	2
0	11731	2881.729285765594	3
0	11733	2881.770968324613	4
0	11740	2882.872200838039	3
0	11746	2883.407478910949	2
0	11751	2884.100515646336	1
0	11757	2884.453867320053	0
0	11766	2884.709276644533	1
0	11767	2885.242517402398	0
0	11779	2886.389560667003	1
0	11783	2887.812825806866	2
0	11784	2887.871126473449	1
0	11789	2887.872462997199	0
0	11810	2890.762099056905	1
0	11812	2891.843308938704	0
0	11827	2895.182062054046	1
0	11832	2896.266294321248	0
0	11873	2910.795255002114	1
0	11875	2911.036581372942	2
0	11878	2913.531966186211	1
0	11884	2913.544760801701	2
0	11886	2914.556771705015	1
0	11892	2916.05010906666	2
0	11894	2916.595384266385	3
0	11896	2916.98972538675	2
0	11901	2917.132959392043	1
0	11906	2917.427778063063	0
0	11956	2930.679069191613	1
0	11961	2934.503657061583	0
0	11967	2934.826295924049	1
0	11969	2935.878084115408	0
0	11975	2936.839640770981	1
0	11977	2937.071393425279	2
0	11980	2938.748482102169	1
0	11986	2939.55344992141	2
0	11987	2939.639683626554	1
0	11992	2939.767733044304	0
0	11998	2939.96607085683	1
0	12001	2940.385740842617	2
0	12004	2940.977680732356	3
0	12005	2940.99983004441	2
0	12014	2942.006933956415	1
0	12021	2943.520854409365	0
0	12033	2945.555035619734	1
0	12036	2948.115463552398	0
0	12048	2949.241945289878	1
0	12049	2949.278668336492	0
0	12069	2952.199807977109	1
0	12070	2952.787921642189	0
0	12092	2954.974802693064	1
0	12094	2955.742059952463	0
0	12121	2961.825466047667	1
0	12123	2961.977025666267	2
0	12124	2962.445375784044	1
0	12132	2962.902142294804	0
0	12138	2963.099315366873	1
0	12140	2963.586281512109	0
0	12156	2964.881418462337	1
0	12158	2965.428813038079	0
0	12165	2967.274840210094	1
0	12166	2967.874512193963	0
0	12178	2972.501274595118	1
0	12179	2972.518322045794	0
0	12193	2973.797148116967	1
0	12197	2976.30515470971	2
0	12199	2977.794498468321	3
0	12201	2977.854226977262	4
0	12203	2978.662913773294	5
0	12209	2980.892298144947	6
0	12210	2981.045378569959	5
0	12216	2982.335356373571	4
0	12222	2982.695730717141	5
0	12223	2982.8382018273	4
0	12230	2984.177145765958	3
0	12235	2984.219385999114	2
0	12241	2985.442950928564	3
0	12245	2985.759612294148	4
0	12247	2986.460143801407	3
0	12252	2986.692914879554	2
0	12258	2988.278440204376	1
0	12265	2989.651245231433	0
0	12277	2991.903483419021	1
0	12278	2992.487600377832	0
0	12301	2994.552159077694	1
0	12304	2995.393900428825	0
0	12337	3001.681602759061	1
0	12339	3003.489137562801	0
0	12355	3005.058188926615	1
0	12359	3006.632482011491	0
0	12444	3030.995219679354	1
0	12445	3031.587244110577	0
0	12451	3032.109621584192	1
0	12452	3032.147229110059	0
0	12458	3032.446113826174	1
0	12467	3034.116145148449	0
0	12474	3034.876483641475	1
0	12477	3038.494521452839	0
0	12495	3042.668799441149	1
0	12497	3042.770075454209	2
0	12498	3043.592796229433	1
0	12503	3045.566887750092	0
0	12509	3046.282369997716	1
0	12511	3046.614028748956	2
0	12512	3046.896196519683	1
0	12517	3047.802946635763	0
0	12543	3055.13733573094	1
0	12546	3055.378897327061	0
0	12565	3056.954887425406	1
0	12566	3057.655970493099	0
0	12572	3057.741640402382	1
0	12574	3057.854577683016	2
0	12576	3058.538565650086	1
0	12581	3058.879091382996	0
0	12598	3062.200591387805	1
0	12600	3063.627272830095	0
0	12607	3064.093073013153	1
0	12608	3064.454839104496	0
0	12622	3068.286471796028	1
0	12623	3068.744108551555	0
0	12630	3072.333074638573	1
0	12631	3072.702590348572	0
0	12643	3076.122720461613	1
0	12646	3076.612137726516	0
0	12653	3078.709112215051	1
0	12654	3078.776962348501	0
0	12661	3079.198012683209	1
0	12665	3080.813654375641	2
0	12666	3082.410269312675	1
0	12671	3082.474448826802	0
0	12680	3083.529642294201	1
0	12685	3086.351298944853	0
0	12700	3087.563773948709	1
0	12702	3087.812318330611	2
0	12703	3087.867771071169	1
0	12709	3088.710038424152	0
0	12778	3105.957475745042	1
0	12779	3106.026727644117	0
0	12785	3106.298656823809	1
0	12788	3107.068075046377	2
0	12789	3107.912744583846	1
0	12795	3108.417077540337	2
0	12799	3108.54153966809	3
0	12800	3108.561753627221	2
0	12806	3108.668350388657	3
0	12807	3109.013664571001	2
0	12814	3110.140484575328	3
0	12816	3110.695209786174	4
0	12818	3111.45637930625	3
0	12824	3111.833268904091	4
0	12826	3112.686152816429	3
0	12833	3112.819422552268	4
0	12834	3113.274195979724	3
0	12839	3113.349107377188	2
0	12845	3113.732639427872	3
0	12848	3114.682569859452	4
0	12850	3114.879304861208	3
0	12855	3115.312203644432	2
0	12860	3115.352851126129	1
0	12867	3115.610187888661	0
0	12885	3120.253004820059	1
0	12886	3120.254739797548	0
0	12931	3130.083235802193	1
0	12932	3130.138859125708	0
0	12945	3133.376350889734	1
0	12947	3133.870227848011	2
0	12949	3134.267277706045	3
0	12951	3135.63975565474	4
0	12953	3135.801422557254	5
0	12954	3136.394532830962	4
0	12959	3136.410601189643	3
0	12967	3137.113504766505	4
0	12969	3137.198749325897	5
0	12972	3138.06902526197	6
0	12974	3138.389776542162	5
0	12979	3138.445096678225	4
0	12987	3140.126228151009	3
0	12992	3141.451720760356	2
0	13002	3143.678101601367	3
0	13003	3143.755127250162	2
0	13008	3144.205726879403	1
0	13013	3144.441366667641	0
0	13019	3145.856279630473	1
0	13022	3147.488345394124	0
0	13088	3164.424320045414	1
0	13089	3164.442273774717	0
0	13134	3172.864631991789	1
0	13135	3173.760422500703	0
0	13141	3174.007014397839	1
0	13143	3174.303955427214	0
0	13156	3175.175525848318	1
0	13159	3176.596826666512	2
0	13163	3178.073069062517	3
0	13165	3178.109782274767	4
0	13167	3178.461770820658	5
0	13169	3178.501375157386	6
0	13170	3178.944216613718	5
0	13176	3179.326342916141	6
0	13177	3179.606054390595	5
0	13183	3180.629916377767	4
0	13193	3182.337891485067	3
0	13202	3184.005566369508	4
0	13205	3185.711423770022	5
0	13207	3185.902704080243	6
0	13208	3186.601115261794	5
0	13215	3188.381168002881	6
0	13216	3189.924810664381	5
0	13222	3190.849232584281	4
0	13229	3191.862781972388	5
0	13231	3192.027127876451	6
0	13233	3192.039099563194	7
0	13235	3194.226137970595	8
0	13236	3194.271181280223	7
0	13244	3195.672110145219	6
0	13249	3195.704853690524	5
0	13254	3196.240389431507	4
0	13261	3196.622546092817	3
0	13270	3197.454073007804	4
0	13271	3198.028336056457	3
0	13276	3198.291871845897	2
0	13281	3198.490184410863	1
0	13286	3200.570974005842	0
0	13360	3216.634602412445	1
0	13362	3218.323500031218	2
0	13365	3221.674175192114	1
0	13371	3221.841465894865	0
0	13395	3224.42361367109	1
0	13399	3227.852817273766	0
0	13408	3228.609629523132	1
0	13412	3230.218719483592	2
0	13416	3231.038319898254	3
0	13423	3232.366892288039	4
0	13425	3233.215860239996	3
0	13431	3234.470756370871	2
0	13437	3236.562211540509	1
0	13446	3237.962583724267	0
0	13454	3238.313472512327	1
0	13455	3238.67331613874	0
0	13480	3243.998634562927	1
0	13481	3244.630008138522	0
0	13487	3245.22039231582	1
0	13490	3246.88754111844	2
0	13492	3247.617534580961	3
0	13493	3248.55087363703	2
0	13499	3249.350105803815	1
0	13506	3250.875439704262	0
0	13530	3255.270246760631	1
0	13533	3256.6592434777	0
0	13539	3257.26153972176	1
0	13540	3257.414767240542	0
0	13549	3257.929182259285	1
0	13552	3259.616164058871	0
0	13599	3269.17580248919	1
0	13600	3269.250547129779	0
0	13606	3269.536768021677	1
0	13610	3271.081468928615	0
0	13621	3272.109208342319	1
0	13624	3273.55091717304	2
0	13625	3274.09271650085	1
0	13631	3274.413727775333	0
0	13647	3276.055041060338	1
0	13648	3276.239888321319	0
0	13672	3280.691054983766	1
0	13674	3280.817693387138	2
0	13675	3282.065077213052	1
0	13682	3285.096956652577	0
0	13722	3295.797678652033	1
0	13726	3298.531152102668	0
0	13778	3308.629684694911	1
0	13779	3309.377093161894	0
0	13785	3310.464083870347	1
0	13786	3311.863881972622	0
0	13834	3326.722462769662	1
0	13835	3327.23571605275	0
0	13884	3341.317776022596	1
0	13886	3341.850329702932	2
0	13887	3344.80292781364	1
0	13893	3344.852169280511	2
0	13895	3345.051978440217	3
0	13896	3345.801862904247	2
0	13906	3347.676416735705	1
0	13913	3348.883451309973	0
0	13954	3357.59841859527	1
0	13959	3358.434527510402	2
0	13962	3360.59697173788	1
0	13970	3363.852035629563	2
0	13971	3364.429332790308	1
0	13979	3366.302580109841	2
0	13981	3366.690413516224	3
0	13984	3367.605178767557	2
0	13989	3367.883765488605	1
0	13995	3368.138320278356	2
0	13996	3368.680174717609	1
0	14002	3368.795520595111	2
0	14004	3370.143088913858	1
0	14009	3370.225297889987	0
0	14048	3375.629081741096	1
0	14050	3375.976247152164	2
0	14054	3376.518665700305	3
0	14056	3376.828880388612	2
0	14062	3378.536036720849	1
0	14071	3380.752634324236	0
0	14077	3380.75851366954	1
0	14078	3381.055671539485	0
0	14099	3385.312395989396	1
0	14100	3385.315084948777	0
0	14108	3387.12876944714	1
0	14109	3387.731326256408	0
0	14138	3393.078667364834	1
0	14141	3394.631179732769	2
0	14144	3394.880336476441	3
0	14146	3395.203949614161	4
0	14147	3395.223160857845	3
0	14152	3395.473686241642	2
0	14160	3396.364253948978	3
0	14163	3397.282439111275	2
0	14170	3397.933945671419	1
0	14175	3398.576577908197	0
0	14197	3402.043879528594	1
0	14200	3403.915893289463	0
0	14240	3411.583267468743	1
0	14242	3411.625055015667	2
0	14244	3413.031866019703	3
0	14245	3413.549772153375	2
0	14250	3413.647897357244	1
0	14255	3413.675877175499	0
0	14262	3415.127912132652	1
0	14264	3415.422096310798	2
0	14265	3415.981031014298	1
0	14270	3416.371155636359	0
0	14295	3418.627607423083	1
0	14301	3421.949627734473	0
0	14328	3428.456858705749	1
0	14329	3428.792274139959	0
0	14354	3432.539787162017	1
0	14356	3432.888288149027	2
0	14357	3434.137647583908	1
0	14362	3435.13425852572	0
0	14397	3443.196917103513	1
0	14398	3443.437325005514	0
0	14415	3446.023646331358	1
0	14416	3446.428756762047	0
0	14435	3449.048254124675	1
0	14438	3449.632125197275	0
0	14465	3454.566249318787	1
0	14468	3457.953385910856	0
0	14491	3463.753244511582	1
0	14493	3464.918651919534	2
0	14497	3465.513896386844	3
0	14498	3466.328927124835	2
0	14504	3466.386588603865	3
0	14508	3467.277479022739	2
0	14515	3468.570333250088	3
0	14519	3469.339846606221	2
0	14526	3469.504534072209	3
0	14529	3470.848627434107	2
0	14540	3473.172890017034	1
0	14545	3473.33018084329	0
0	14576	3478.694279623131	1
0	14577	3479.097652526149	0
0	14585	3479.894061703054	1
0	14587	3480.255153487241	2
0	14589	3480.370512617913	3
0	14593	3480.607956828395	4
0	14597	3481.232073294524	3
0	14603	3482.444322201872	4
0	14605	3484.277396271933	5
0	14607	3484.421750778129	6
0	14608	3485.281229913526	5
0	14617	3486.437899690433	6
0	14618	3487.289772970626	5
0	14626	3487.934025943142	4
0	14632	3488.765735100213	5
0	14636	3490.562177937948	4
0	14645	3492.717055100434	5
0	14647	3493.224020050049	6
0	14648	3494.979551124622	5
0	14654	3495.611837410417	6
0	14655	3496.140742755931	5
0	14660	3498.2008948692	4
0	14665	3498.886561844253	3
0	14672	3500.636456141018	2
0	14677	3502.113603636994	1
0	14683	3502.136770841382	2
0	14686	3503.06684133624	1
0	14692	3503.265850178258	2
0	14696	3504.481754322058	3
0	14697	3505.301068409175	2
0	14703	3506.299820484737	3
0	14704	3506.601581262714	2
0	14709	3507.274942607588	1
0	14715	3507.467390391742	2
0	14716	3508.141346118156	1
0	14723	3509.328061934219	0
0	14729	3511.583525367479	1
0	14734	3512.946135742012	0
0	14747	3515.774262867381	1
0	14748	3516.015025599374	0
0	14795	3523.550566129117	1
0	14797	3523.904421578682	2
0	14798	3524.261201970563	1
0	14807	3525.131288488379	2
0	14808	3525.309465697034	1
0	14813	3525.5956702022	0
0	14829	3528.858044210427	1
0	14833	3531.531797178937	2
0	14834	3533.501666888397	1
0	14840	3534.45091508767	0
0	14846	3534.638740056762	1
0	14847	3535.788757345052	0
0	14858	3536.968319744282	1
0	14860	3537.672598874525	2
0	14864	3539.447011595173	1
0	14870	3539.774011885526	0
0	14886	3542.084680000762	1
0	14890	3542.605825452738	0
0	14897	3542.97509549556	1
0	14899	3543.369754837907	0
0	14927	3550.147098216507	1
0	14929	3550.4336981	0
0	14935	3552.036069277202	1
0	14938	3553.090274469178	2
0	14941	3556.095368406641	1
0	14946	3556.139252351701	0
0	14954	3558.833931615455	1
0	14958	3559.947278777394	0
0	14964	3560.205244564157	1
0	14967	3562.015594272325	0
0	14978	3562.426198463453	1
0	14987	3566.211127366694	2
0	14988	3568.39648723919	1
0	14995	3569.77688041139	0
0	15025	3575.693218981762	1
0	15026	3576.36917509985	0
0	15044	3577.784979151666	1
0	15046	3578.093107720128	2
0	15049	3579.676863030361	3
0	15051	3579.716180498701	4
0	15052	3579.866542442416	3
0	15059	3580.787511781085	4
0	15063	3583.759771772862	5
0	15064	3583.793835161177	4
0	15070	3585.092010067963	3
0	15075	3585.098215039953	2
0	15080	3585.745070811845	1
0	15087	3586.769303315023	0
0	15112	3592.455541316788	1
0	15113	3592.461054253053	0
0	15126	3592.983918348345	1
0	15127	3593.143171995787	0
0	15138	3594.173217795233	1
0	15140	3594.576996770301	0
0	15156	3596.823181337348	1
0	15158	3596.8489011697	2
0	15162	3598.432511547577	3
0	15164	3601.235656948214	2
0	15169	3601.451012463297	1
0	15174	3601.793301431793	0
0	15183	3602.841031090054	1
0	15190	3608.23182431154	2
0	15192	3608.735802346443	3
0	15194	3608.830225698634	4
0	15195	3608.841059613173	3
0	15201	3609.220876081486	2
0	15207	3609.531094350894	1
0	15214	3610.057109860827	2
0	15215	3610.429006270321	1
0	15221	3611.041421574907	0
0	15258	3618.265458978347	1
0	15260	3618.747595197375	0
0	15286	3627.054200541236	1
0	15289	3629.343271013544	0
0	15331	3631.924972658085	1
0	15332	3633.021779867105	0
0	15339	3633.96926942581	1
0	15340	3634.794928268535	0
0	15430	3654.01060879418	1
0	15431	3655.108255809921	0
0	15533	3685.667126107823	1
0	15535	3685.892782616744	2
0	15538	3686.837267823904	3
0	15540	3688.607505933529	2
0	15545	3689.598544764774	1
0	15551	3690.165046154957	0
0	15564	3691.93064796624	1
0	15566	3692.083357183466	2
0	15568	3693.034163713652	1
0	15574	3693.69515514613	0
0	15600	3699.625060852264	1
0	15601	3700.071470284712	0
0	15631	3709.164420327394	1
0	15634	3712.298138326536	0
0	15640	3712.925875170103	1
0	15642	3712.934696943165	2
0	15643	3712.947148052791	1
0	15648	3712.951485950756	0
0	15661	3715.21061614845	1
0	15663	3716.195157971414	0
0	15700	3724.719813293833	1
0	15701	3726.175267559167	0
0	15729	3737.059030033415	1
0	15732	3738.524005529856	2
0	15735	3740.206399737991	1
0	15740	3740.682219857611	0
0	15749	3741.638244011184	1
0	15757	3745.314587291111	0
0	15785	3756.514445924884	1
0	15789	3757.285096895209	2
0	15790	3758.201662296589	1
0	15795	3758.415363968044	0
0	15913	3803.242850167286	1
0	15914	3803.666079816777	0
0	15949	3813.849753830336	1
0	15951	3815.250747874015	0
0	15964	3817.177158246209	1
0	15965	3817.365339164618	0
0	15979	3820.021770429132	1
0	15980	3820.796192676292	0
0	15995	3824.714327956159	1
0	15999	3826.2324224643	2
0	16001	3828.332825495528	3
0	16003	3828.474658469043	4
0	16004	3828.984499183275	3
0	16009	3829.475855940037	2
0	16015	3830.070150342672	3
0	16016	3834.071677465654	2
0	16021	3835.788514139904	1
0	16029	3837.81696068115	2
0	16033	3839.066524565277	1
0	16039	3839.19891816671	2
0	16041	3839.568277696945	1
0	16047	3839.826408202499	0
0	16066	3843.247866379454	1
0	16072	3845.000115353532	2
0	16075	3845.637755007121	3
0	16079	3846.824639423663	2
0	16084	3847.266630593551	1
0	16091	3848.077641015113	2
0	16092	3848.280652820821	1
0	16098	3848.345614671316	2
0	16100	3849.023532450984	1
0	16106	3849.040951574468	2
0	16108	3849.081756984605	3
0	16109	3849.10187616032	2
0	16115	3849.77858997509	3
0	16116	3850.076802251919	2
0	16122	3850.896778434904	1
0	16128	3851.614470890657	0
0	16152	3858.751267841952	1
0	16153	3859.423173558275	0
0	16160	3860.747981862238	1
0	16161	3862.311276407233	0
0	16199	3868.445849420064	1
0	16200	3871.204398203017	0
0	16223	3876.127799051971	1
0	16225	3877.142069076421	0
0	16264	3887.931157764889	1
0	16265	3888.861978293516	0
0	16308	3901.879696009045	1
0	16309	3901.929650948795	0
0	16315	3901.943302165389	1
0	16318	3903.278943630983	0
0	16340	3910.420200415633	1
0	16344	3911.316247762282	0
0	16350	3911.350740083053	1
0	16354	3913.07918508804	0
0	16383	3920.395637152428	1
0	16387	3920.953720627252	0
0	16395	3921.252170409002	1
0	16400	3922.744221191469	2
0	16401	3922.788870291478	1
0	16406	3924.832282305495	0
0	16443	3929.895465791675	1
0	16446	3930.039813704815	0
0	16458	3931.638544145352	1
0	16463	3932.322156582389	2
0	16464	3932.808557797102	1
0	16472	3934.390846060524	0
0	16485	3936.544488309352	1
0	16486	3936.659155061267	0
0	16492	3936.744793333878	1
0	16495	3938.479287565576	2
0	16496	3939.387790731021	1
0	16501	3940.522686226969	0
0	16517	3943.170045768266	1
0	16520	3943.980004939448	0
0	16533	3944.491548644866	1
0	16536	3945.288660899227	2
0	16537	3945.475588757664	1
0	16545	3946.352612603918	2
0	16550	3948.580098978903	1
0	16556	3949.171780147135	0
0	16562	3949.59678935574	1
0	16564	3950.462790611367	2
0	16565	3950.503456864832	1
0	16572	3950.658437401332	0
0	16591	3954.512472406483	1
0	16593	3955.096509733922	2
0	16595	3956.535984929555	3
0	16597	3958.014889437492	4
0	16601	3961.907840502195	5
0	16603	3962.742991315959	4
0	16608	3962.989348997873	3
0	16615	3963.566501550625	4
0	16616	3963.678666359234	3
0	16622	3963.827180601503	4
0	16624	3964.39416025141	3
0	16630	3965.034275849748	2
0	16634	3965.564066054292	3
0	16638	3968.345634763674	4
0	16639	3968.61896829422	3
0	16652	3972.971386366614	4
0	16654	3973.048381241965	5
0	16655	3973.877444605681	4
0	16660	3975.677049617919	3
0	16665	3976.318508020372	2
0	16671	3977.082203222383	1
0	16676	3977.87338756148	0
0	16687	3979.180753063327	1
0	16688	3979.814078361286	0
0	16692	3980.135905677479	1
0	16694	3980.465895848252	2
0	16709	3987.77985660193	1
0	16714	3987.927357038104	0
0	16732	3989.169254299656	1
0	16734	3989.373120466553	2
0	16738	3990.956369758384	3
0	16743	3997.678281323646	2
0	16750	4000.123689822935	1
0	16755	4000.252997354647	0
0	16790	4005.032498318243	1
0	16792	4005.44858089612	2
0	16795	4006.379993788393	1
0	16802	4007.802264594826	2
0	16806	4009.014201433245	3
0	16807	4009.156210666267	2
0	16815	4009.859662272543	1
0	16820	4010.524182308025	0
0	16851	4015.259363161024	1
0	16857	4019.565958514271	2
0	16858	4020.265492264369	1
0	16865	4021.812200676564	0
0	16877	4023.191547672924	1
0	16878	4024.495667755649	0
0	16896	4029.572923192469	1
0	16899	4030.913962283416	0
0	16916	4033.272118296338	1
0	16923	4036.411233309593	2
0	16924	4037.13559991008	1
0	16930	4038.208290633924	0
0	16939	4038.322191266729	1
0	16940	4040.808193162934	0
0	16952	4042.266405508309	1
0	16955	4043.339218828842	0
0	16996	4055.977917804647	1
0	17002	4058.828057796275	2
0	17005	4060.658125144298	1
0	17010	4061.550925819507	0
0	17016	4061.707331495892	1
0	17017	4062.215109870688	0
0	17035	4065.399972042017	1
0	17036	4065.430658996569	0
0	17050	4070.403365216766	1
0	17053	4072.329774447122	0
0	17060	4073.248671732643	1
0	17061	4073.561067866587	0
0	17076	4077.300054231431	1
0	17078	4077.669857722856	2
0	17083	4079.549022226986	1
0	17089	4079.885054194975	0
0	17101	4080.282399437571	1
0	17105	4080.590701056293	2
0	17106	4080.621360384866	1
0	17112	4080.786245673557	2
0	17115	4082.296844637204	1
0	17120	4082.343526777899	0
0	17127	4083.261740605649	1
0	17131	4084.299490976596	2
0	17132	4085.724187500665	1
0	17137	4085.811062457961	0
0	17143	4086.647427903281	1
0	17153	4091.431468973288	0
0	17175	4095.84734590173	1
0	17176	4096.837493050123	0
0	17188	4097.094068115187	1
0	17190	4097.773906525126	2
0	17192	4097.92111544587	3
0	17194	4098.951832531035	4
0	17199	4101.272089875176	3
0	17204	4101.297738550241	2
0	17212	4102.117275856252	1
0	17217	4102.539061237565	0
0	17223	4102.70458347009	1
0	17227	4103.634237456709	0
0	17262	4110.508989383357	1
0	17272	4115.17354870697	0
0	17302	4121.390851892957	1
0	17305	4123.255368099763	0
0	17314	4123.870201208382	1
0	17316	4124.374063347723	2
0	17321	4129.217282101413	3
0	17324	4129.536837228194	4
0	17326	4130.792310178397	3
0	17331	4131.22579113898	2
0	17338	4132.319397920298	1
0	17344	4132.796916731733	0
0	17351	4133.297439028084	1
0	17354	4135.109369807044	0
0	17362	4136.850838335934	1
0	17363	4139.175860808937	0
0	17371	4142.771570816636	1
0	17372	4144.171877392307	0
0	17388	4145.251403584449	1
0	17390	4145.278123702432	2
0	17395	4146.897538752113	1
0	17400	4147.038874704098	0
0	17452	4161.187285642456	1
0	17453	4161.938711821576	0
0	17459	4162.140993149191	1
0	17462	4163.592693699992	2
0	17463	4164.341705667398	1
0	17468	4164.606529781691	0
0	17494	4170.85010986365	1
0	17496	4172.647989787572	2
0	17501	4177.326175074565	1
0	17506	4178.448041365558	0
0	17568	4208.839677592805	1
0	17569	4209.108053221127	0
0	17584	4210.306955389961	1
0	17586	4210.311386571695	2
0	17587	4211.125018007197	1
0	17593	4212.798600818305	0
0	17645	4223.030267899562	1
0	17647	4224.957620174276	2
0	17652	4225.523437131984	1
0	17657	4225.900343323138	0
0	17676	4230.523879241223	1
0	17680	4231.010538719797	2
0	17681	4231.920040615655	1
0	17686	4232.805980061144	0
0	17699	4238.43288465423	1
0	17705	4239.537413296356	2
0	17711	4242.26464789191	1
0	17717	4243.133146133537	0
0	17741	4246.735273959722	1
0	17742	4247.092377003421	0
0	17748	4247.890092419116	1
0	17749	4248.029415761264	0
0	17762	4251.146082713247	1
0	17764	4251.648800721404	2
0	17773	4256.192116240395	1
0	17778	4256.956528494346	0
0	17809	4263.028222152913	1
0	17811	4263.31948494714	2
0	17816	4263.918101567555	3
0	17819	4264.97128919003	4
0	17821	4266.37610231026	5
0	17825	4268.305794394995	6
0	17827	4269.18552500186	7
0	17829	4270.412207190216	8
0	17830	4270.77777762893	7
0	17835	4271.179863440488	6
0	17840	4271.474895950019	5
0	17845	4271.902204688179	4
0	17851	4273.772427990533	3
0	17857	4274.355165445451	4
0	17859	4274.754693014612	5
0	17860	4277.647779028399	4
0	17867	4278.050398843566	3
0	17872	4278.947075349837	2
0	17878	4280.077762168066	3
0	17879	4280.467419106103	2
0	17885	4281.227146524427	3
0	17889	4282.458934122359	4
0	17890	4282.642053616983	3
0	17896	4282.793444743642	4
0	17899	4283.588525021207	3
0	17905	4283.940710541049	4
0	17907	4284.838804823947	3
0	17911	4287.811832054283	4
0	17914	4288.070497904012	3
0	17926	4291.046862075008	4
0	17930	4296.234461798471	3
0	17936	4296.82589322687	4
0	17937	4297.790368422649	3
0	17944	4298.629810371552	2
0	17950	4299.820747730988	3
0	17951	4299.879820937964	2
0	17957	4301.036924274734	1
0	17967	4305.466841513848	0
0	17991	4308.992931501432	1
0	17992	4309.324259725031	0
0	18011	4312.37535007194	1
0	18013	4313.04701945475	2
0	18014	4315.47622205919	1
0	18021	4315.876599780727	2
0	18022	4316.309492789198	1
0	18030	4317.97179735505	0
0	18042	4320.242415539285	1
0	18044	4320.442988524754	2
0	18045	4321.149606513446	1
0	18054	4325.422629491253	0
0	18077	4329.543694319482	1
0	18078	4329.817472899484	0
0	18093	4333.181674195954	1
0	18094	4333.651228281553	0
0	18106	4334.913589731494	1
0	18108	4338.10642625582	2
0	18109	4340.016432657553	1
0	18114	4340.550586526871	0
0	18121	4340.831609293878	1
0	18122	4341.391029839963	0
0	18139	4344.247287555302	1
0	18141	4345.097650637176	2
0	18145	4345.874376961998	3
0	18146	4346.11354204655	2
0	18152	4348.023398825262	1
0	18158	4351.599449990098	0
0	18192	4358.401067383583	1
0	18196	4358.732607972872	2
0	18198	4359.136431700472	1
0	18204	4359.518785512112	2
0	18206	4361.047911469009	1
0	18211	4361.053544532056	0
0	18236	4364.725084845358	1
0	18238	4365.223680057171	2
0	18239	4366.294628911059	1
0	18245	4366.393429087176	2
0	18246	4366.548331750753	1
0	18252	4367.38019263758	0
0	18280	4374.552890050443	1
0	18281	4375.087523371042	0
0	18322	4390.034701876774	1
0	18323	4390.353009935314	0
0	18355	4397.804965965605	1
0	18358	4399.301707883888	0
0	18370	4401.331916093383	1
0	18372	4404.109487682793	2
0	18373	4404.953961786339	1
0	18378	4405.070201396062	0
0	18405	4416.452263137335	1
0	18409	4418.472287036005	2
0	18411	4418.604310294094	3
0	18413	4418.762779193815	4
0	18417	4419.767277402415	5
0	18419	4420.522503331632	6
0	18420	4421.196694713472	5
0	18430	4424.911248354218	4
0	18435	4425.310543755954	3
0	18440	4426.013802595014	2
0	18447	4427.65284929021	3
0	18453	4428.467400122181	4
0	18455	4428.558584509912	5
0	18458	4431.851876049186	6
0	18459	4433.601745633083	5
0	18464	4433.915015660962	4
0	18469	4434.237618231991	3
0	18476	4434.975384740459	2
0	18482	4436.361190111491	1
0	18487	4436.877335846253	0
0	18495	4438.542867860234	1
0	18496	4438.559679164493	0
0	18502	4438.726827992731	1
0	18505	4439.710630580653	2
0	18508	4439.989637271105	1
0	18515	4440.980975628771	0
0	18535	4443.544402294977	1
0	18537	4444.856990964037	2
0	18538	4444.879856023608	1
0	18545	4445.559282716011	2
0	18547	4446.13767374208	1
0	18552	4446.358210357896	0
0	18564	4446.921191017419	1
0	18565	4447.097679350596	0
0	18575	4449.031542922806	1
0	18580	4450.789800199206	0
0	18600	4454.301139559261	1
0	18604	4455.890343325626	2
0	18605	4456.403912948227	1
0	18610	4456.684721093308	0
0	18644	4466.589160173722	1
0	18645	4466.666003159932	0
0	18659	4468.017692399236	1
0	18660	4468.498641399638	0
0	18673	4471.010226678446	1
0	18675	4471.547509529228	2
0	18677	4471.659670279516	3
0	18679	4472.293572746325	4
0	18681	4472.805361651313	3
0	18686	4473.031738302391	2
0	18691	4473.17855884108	1
0	18697	4475.925176907077	0
0	18723	4480.916297809941	1
0	18724	4481.523370499752	0
0	18769	4494.315754325466	1
0	18772	4495.919051752531	0
0	18799	4510.411173910127	1
0	18800	4512.183798899308	0
0	18806	4512.372429683764	1
0	18811	4515.705293486582	0
0	18869	4526.459791085103	1
0	18870	4526.487586872707	0
0	18912	4533.749535761455	1
0	18914	4535.906017895673	0
0	18920	4536.315497335362	1
0	18925	4538.115140444313	2
0	18928	4539.639362554435	1
0	18934	4539.893886339797	0
0	18956	4543.166207311128	1
0	18959	4544.48512235452	0
0	18965	4545.931567665826	1
0	18967	4546.35495596449	2
0	18968	4547.222122784457	1
0	18976	4551.551076218833	0
0	19025	4561.863052368107	1
0	19026	4562.047699222196	0
0	19035	4563.850377361502	1
0	19036	4563.863740516866	0
0	19049	4564.886712851621	1
0	19050	4565.010239332967	0
0	19056	4565.232214079186	1
0	19057	4565.242425538669	0
0	19061	4565.667814684944	1
0	19065	4566.519896062416	2
0	19066	4566.95663585335	1
0	19073	4567.947908346626	0
0	19079	4568.277675309322	1
0	19082	4569.235885928708	0
0	19086	4569.297589728984	1
0	19090	4569.965398046557	0
0	19108	4574.41010270184	1
0	19112	4575.715781027098	2
0	19114	4578.732799734074	3
0	19116	4579.490211401456	4
0	19117	4579.867895500769	3
0	19123	4580.767971751554	2
0	19132	4582.157286299281	1
0	19138	4582.454718284085	2
0	19140	4582.583109278102	3
0	19142	4583.075942134527	4
0	19144	4583.157233352272	5
0	19147	4584.095341652933	4
0	19153	4585.128721155543	5
0	19154	4585.330023417816	4
0	19159	4585.34496172564	3
0	19165	4585.659495063969	4
0	19166	4586.282553635604	3
0	19171	4586.321610058388	2
0	19178	4587.541016502292	3
0	19179	4588.045452072059	2
0	19185	4588.451956040387	1
0	19191	4588.649783120724	0
0	19237	4597.880429359457	1
0	19238	4597.93231153039	0
0	19269	4600.927365519852	1
0	19273	4602.6223551386	0
0	19282	4603.080250517883	1
0	19286	4603.798188311528	2
0	19288	4604.061884979775	3
0	19289	4604.388057504839	2
0	19295	4604.676464440158	1
0	19300	4605.040767793248	0
0	19312	4605.720487997822	1
0	19313	4606.491809665437	0
0	19329	4611.001037181707	1
0	19333	4612.378466919527	0
0	19339	4612.685959582475	1
0	19341	4613.531558904311	0
0	19355	4617.086672604787	1
0	19358	4620.535073296757	0
0	19362	4621.947962822385	1
0	19368	4622.565039709459	2
0	19370	4623.085220619607	3
0	19372	4624.420641637048	4
0	19378	4625.751787931028	5
0	19380	4625.798546113705	4
0	19387	4628.532982680591	3
0	19392	4631.14842467342	2
0	19397	4632.371236531404	1
0	19401	4633.068116308326	2
0	19403	4634.161432477081	3
0	19407	4635.030339370031	2
0	19412	4635.30749178219	1
0	19419	4637.110982280955	0
0	19485	4660.30490087109	1
0	19486	4660.310934596988	0
0	19509	4665.68133635819	1
0	19511	4666.977281569734	0
0	19543	4675.987899657934	1
0	19545	4676.087708165282	2
0	19546	4676.721434662663	1
0	19553	4677.163192454343	0
0	19569	4682.25654041213	1
0	19570	4685.346820194118	0
0	19590	4687.806543995426	1
0	19592	4688.199163262787	2
0	19593	4689.165302835528	1
0	19600	4691.765623010109	0
0	19606	4692.106768270873	1
0	19607	4692.994567325648	0
0	19611	4693.212810432475	1
0	19614	4695.620055303432	0
0	19660	4706.273322533948	1
0	19662	4706.979423752519	2
0	19664	4707.666476880542	3
0	19666	4708.064957233275	2
0	19671	4708.25535698224	1
0	19677	4708.394746252969	0
0	19684	4708.910196443243	1
0	19687	4709.424458390074	0
0	19693	4709.969362810324	1
0	19694	4710.075076305074	0
0	19708	4711.123091771616	1
0	19711	4712.40393239048	0
0	19722	4712.749652668536	1
0	19727	4715.40306494905	0
0	19733	4715.560481492667	1
0	19734	4715.886189744169	0
0	19799	4722.851649558969	1
0	19802	4724.513565057672	0
0	19808	4724.622755688699	1
0	19809	4725.868242586431	0
0	19840	4733.033900537502	1
0	19844	4733.937132342548	2
0	19846	4734.07567557437	3
0	19847	4734.50309984774	2
0	19854	4735.979650253909	1
0	19862	4738.045470940715	0
0	19894	4741.063531137337	1
0	19895	4741.301631590088	0
0	19917	4747.066020648399	1
0	19919	4747.259566146625	2
0	19920	4747.415675946057	1
0	19927	4748.041137349952	0
0	19933	4748.102756209738	1
0	19935	4748.581243188777	0
0	19998	4767.687569380156	1
0	20000	4768.245022841724	2
0	20003	4769.842327647923	1
0	20008	4769.855623872316	0
0	20049	4779.334385477689	1
0	20050	4780.30273811155	0
0	20067	4784.835883049074	1
0	20074	4787.200792834678	2
0	20075	4788.276744924464	1
0	20080	4788.536393032667	0
0	20106	4793.396881241914	1
0	20113	4794.835153304832	0
0	20129	4795.446723970332	1
0	20131	4795.5402778128	2
0	20134	4798.653999407667	1
0	20139	4798.691644833885	0
0	20167	4805.415109719405	1
0	20171	4806.130762463778	0
0	20184	4808.02477138192	1
0	20186	4808.223331038143	2
0	20187	4808.994936679252	1
0	20197	4809.795564392219	2
0	20198	4810.39615310005	1
0	20203	4810.514056379545	0
0	20216	4812.754491866134	1
0	20217	4812.907247268183	0
0	20231	4814.579610468675	1
0	20233	4816.306115028272	2
0	20234	4816.876888327309	1
0	20239	4817.610077085682	0
0	20291	4833.824144434638	1
0	20293	4835.990856828033	2
0	20296	4837.726058778697	1
0	20302	4840.325730558051	0
0	20308	4840.918204655669	1
0	20309	4841.437187135053	0
0	20315	4841.756863257935	1
0	20316	4842.09696907855	0
0	20355	4850.633809944649	1
0	20356	4851.176009066643	0
0	20430	4867.476162777561	1
0	20432	4867.533197436228	0
0	20439	4868.16072299573	1
0	20442	4868.698319439642	0
0	20455	4870.982593679674	1
0	20457	4871.343623836958	2
0	20458	4871.762698684286	1
0	20463	4872.157858249851	0
0	20476	4873.788158981401	1
0	20478	4874.51772309391	2
0	20483	4876.050041833243	1
0	20489	4876.527264388893	0
0	20510	4878.669285862227	1
0	20511	4878.953513120132	0
0	20602	4920.116325418589	1
0	20603	4920.407853796043	0
0	20609	4920.547345528659	1
0	20610	4920.696109968195	0
0	20633	4927.728833617774	1
0	20635	4927.907849998862	2
0	20637	4927.917745916221	3
0	20638	4928.209268677846	2
0	20643	4928.427695530709	1
0	20653	4929.455142818969	0
0	20660	4930.131342120101	1
0	20662	4930.529997858081	2
0	20664	4930.910866224257	3
0	20665	4931.580434000104	2
0	20671	4932.161042825641	1
0	20677	4932.832490774518	0
0	20697	4936.006678706901	1
0	20699	4937.493266753189	2
0	20700	4937.635538263862	1
0	20706	4937.653217710935	2
0	20709	4938.09019126536	1
0	20714	4938.187051046411	0
0	20751	4946.26953821276	1
0	20758	4948.751411771595	2
0	20759	4948.834021403984	1
0	20764	4950.100598693238	0
0	20811	4961.052359812882	1
0	20812	4961.254284745321	0
0	20826	4964.648078674811	1
0	20827	4966.214620050316	0
0	20841	4971.686156261824	1
0	20842	4972.306204382697	0
0	20855	4973.910076685056	1
0	20859	4975.623422118278	0
0	20870	4977.035167662884	1
0	20872	4977.991058641022	0
0	20888	4978.993891984154	1
0	20891	4979.740835873893	2
0	20894	4981.858917422739	3
0	20896	4982.786677621869	4
0	20898	4983.050062115932	5
0	20902	4983.995088834847	6
0	20904	4985.849025061541	7
0	20906	4987.199658680886	8
0	20907	4987.949813641719	7
0	20912	4988.296699267724	6
0	20918	4988.327448795243	7
0	20920	4988.843967082919	6
0	20926	4990.943425269015	5
0	20932	4991.934730986291	4
0	20938	4992.481524494918	5
0	20939	4992.788835285042	4
0	20952	4996.626526012987	3
0	20960	4997.511536193843	2
0	20966	4998.167837787052	3
0	20967	4998.539144676807	2
0	20973	4999.707593373071	3
0	20975	5000.977584053655	4
0	20976	5001.789689862673	3
0	20981	5006.815020999312	2
0	20988	5007.413237649745	3
0	20996	5010.161349527092	2
0	21002	5010.978208404714	3
0	21003	5011.057985284469	2
0	21010	5011.908238080189	1
0	21016	5012.068375164236	0
0	21072	5018.056675599909	1
0	21075	5018.676196738957	0
0	21090	5020.491549565789	1
0	21093	5022.961866172166	0
0	21126	5040.582480297599	1
0	21127	5041.695970655712	0
0	21133	5043.094561765454	1
0	21134	5043.439606363726	0
0	21175	5047.847617011133	1
0	21179	5049.395546815613	0
0	21213	5062.721251627754	1
0	21214	5062.725982369228	0
0	21255	5071.698754590737	1
0	21256	5072.516455443614	0
0	21269	5074.004491476628	1
0	21271	5074.007552202291	2
0	21273	5074.149295361763	3
0	21278	5079.345484488543	2
0	21283	5079.405813418346	1
0	21289	5079.733595035697	2
0	21290	5079.816844246761	1
0	21296	5080.176100664231	0
0	21302	5080.328475130797	1
0	21304	5080.747091718694	0
0	21352	5089.350435807486	1
0	21354	5090.885826586659	2
0	21356	5091.502819208025	3
0	21360	5092.028871509264	2
0	21366	5092.836476581409	1
0	21371	5092.843841915815	0
0	21377	5093.058091487767	1
0	21378	5093.830828965132	0
0	21414	5106.085285544698	1
0	21415	5108.50210108811	0
0	21421	5108.8097876768	1
0	21423	5108.934190166653	2
0	21424	5109.81975761938	1
0	21429	5110.083533131184	0
0	21435	5110.290054296067	1
0	21436	5110.336009280841	0
0	21449	5111.985916107258	1
0	21451	5112.744973145982	0
0	21474	5117.476092667678	1
0	21478	5118.320708421094	0
0	21487	5119.844987917925	1
0	21491	5121.370207317028	0
0	21516	5130.745367671549	1
0	21518	5130.935775396207	2
0	21519	5131.29695569612	1
0	21524	5131.36965267264	0
0	21532	5131.800237432185	1
0	21533	5132.210361709431	0
0	21542	5134.19772952364	1
0	21546	5135.042964154006	2
0	21548	5135.553613945582	1
0	21553	5135.823463857064	0
0	21568	5138.092702722511	1
0	21569	5138.147452545425	0
0	21575	5138.477021540393	1
0	21576	5138.802489949298	0
0	21636	5150.545982543771	1
0	21637	5150.717184222993	0
0	21661	5160.825672838535	1
0	21665	5161.123765245019	0
0	21741	5174.84911172519	1
0	21742	5178.449323262382	0
0	21748	5178.779088548299	1
0	21749	5178.82778651732	0
0	21774	5186.240471508023	1
0	21775	5186.553017894693	0
0	21792	5188.427051502116	1
0	21794	5189.152990203658	2
0	21796	5189.464528665951	3
0	21797	5190.412010803915	2
0	21802	5191.505247224384	1
0	21809	5192.83007279307	0
0	21835	5199.607589842322	1
0	21837	5199.879931375693	2
0	21839	5200.942394448456	3
0	21840	5202.036623028136	2
0	21847	5202.338312629053	1
0	21853	5203.377899564597	0
0	21882	5206.386092608797	1
0	21883	5208.591069123653	0
0	21898	5210.088146338465	1
0	21899	5210.783579558498	0
0	21920	5215.091810091842	1
0	21922	5215.386446575971	2
0	21924	5216.171292874281	1
0	21930	5217.189323114628	0
0	21958	5222.347548028316	1
0	21959	5225.416314509929	0
0	21982	5230.307737221647	1
0	21984	5231.030877822705	2
0	21988	5234.149029164473	3
0	21989	5234.764246832307	2
0	21994	5234.768256115896	1
0	22001	5235.141414023044	2
0	22008	5239.002659206734	3
0	22009	5241.098401737715	2
0	22015	5241.873810926136	1
0	22021	5242.787387603473	0
0	22033	5243.92242374494	1
0	22036	5247.88611575322	2
0	22037	5248.091333465441	1
0	22045	5249.437563548726	0
0	22119	5273.270366518188	1
0	22121	5274.814809541226	2
0	22123	5276.59807444523	3
0	22124	5278.60117153618	2
0	22129	5279.465112765949	1
0	22134	5279.535870936333	0
0	22171	5289.555038110238	1
0	22172	5290.017124358364	0
0	22181	5290.668855468659	1
0	22182	5291.95887340374	0
0	22202	5296.622440164018	1
0	22204	5296.630879844897	2
0	22206	5298.440023091128	3
0	22207	5300.272098138569	2
0	22212	5300.579097854399	1
0	22220	5301.484623820849	0
0	22265	5310.404375387083	1
0	22266	5310.939895030649	0
0	22299	5316.773602777842	1
0	22300	5317.058359265801	0
0	22360	5333.898940739544	1
0	22362	5334.282013114997	2
0	22363	5335.088067814496	1
0	22372	5335.938813889051	2
0	22375	5336.595715167675	1
0	22384	5338.613769192759	0
0	22394	5341.225830278202	1
0	22395	5341.395301923724	0
0	22410	5342.133185557111	1
0	22415	5343.700633362818	2
0	22420	5345.125272214766	3
0	22421	5345.294799615437	2
0	22427	5348.119449036817	1
0	22432	5348.477688612245	0
0	22438	5349.126036346335	1
0	22440	5350.116526685835	0
0	22448	5350.564308909318	1
0	22450	5350.977777480801	2
0	22452	5351.028853125813	3
0	22453	5351.795572365483	2
0	22459	5352.490888228218	3
0	22460	5353.95990984797	2
0	22466	5356.048687904467	3
0	22468	5356.388373789055	4
0	22472	5358.014975359075	5
0	22473	5358.152786009943	4
0	22478	5358.663382276323	3
0	22485	5360.571373945189	2
0	22491	5362.212220989504	3
0	22492	5363.341716714788	2
0	22498	5364.435519363168	1
0	22503	5364.782053805515	0
0	22525	5369.983868881288	1
0	22526	5370.256307561597	0
0	22551	5375.79368307892	1
0	22552	5376.338201290211	0
0	22560	5377.128563655519	1
0	22561	5377.243273635281	0
0	22565	5377.247492603293	1
0	22570	5378.654290315551	2
0	22573	5380.46339988856	3
0	22574	5380.58577335397	2
0	22580	5381.110079932884	1
0	22588	5381.556277580485	0
0	22594	5382.256344195367	1
0	22595	5382.858232380095	0
0	22607	5383.362355990508	1
0	22609	5384.585708761556	2
0	22611	5384.740972097677	3
0	22613	5384.850888898888	4
0	22614	5384.954844189838	3
0	22620	5385.163155102711	4
0	22625	5387.256515881448	5
0	22627	5388.41300429062	4
0	22637	5389.501122726461	5
0	22638	5390.579427109252	4
0	22643	5390.932457176654	3
0	22649	5391.616123846042	2
0	22654	5391.753057782082	1
0	22660	5392.696379695547	0
0	22682	5395.086659269462	1
0	22684	5396.132115443243	2
0	22693	5400.254480341152	1
0	22698	5400.303591030872	0
0	22704	5400.869504672312	1
0	22708	5401.229434257618	2
0	22710	5402.092898754581	3
0	22711	5402.342927728545	2
0	22716	5402.646666588334	1
0	22727	5404.129770492605	0
0	22733	5405.459766098416	1
0	22735	5405.742664065477	2
0	22737	5406.602171289342	1
0	22746	5407.179653179954	0
0	22761	5410.535056524764	1
0	22763	5411.912338517554	2
0	22765	5415.268490929406	3
0	22770	5417.531151903699	2
0	22775	5417.69911842938	1
0	22782	5419.190366585085	0
0	22789	5419.747471121255	1
0	22790	5419.979094625802	0
0	22799	5421.510981559249	1
0	22802	5422.326910238698	0
0	22808	5423.18986574603	1
0	22810	5423.609291814624	0
0	22817	5424.448130216518	1
0	22821	5425.339340675339	0
0	22835	5427.391036965859	1
0	22836	5427.68563240648	0
0	22848	5428.607211505009	1
0	22854	5431.47267957254	2
0	22857	5436.049073407067	1
0	22864	5437.189041757123	0
0	22871	5437.857519801384	1
0	22873	5437.919008938025	2
0	22880	5440.613283205427	1
0	22887	5441.38609629957	0
0	22894	5443.085493711566	1
0	22895	5443.364063460504	0
0	22914	5446.140775527115	1
0	22917	5448.483657676584	0
0	22962	5456.470970388446	1
0	22966	5457.428605412355	2
0	22968	5458.717612725378	3
0	22970	5459.610882427144	4
0	22971	5460.347991526259	3
0	22977	5460.60674805249	4
0	22978	5461.7290755595	3
0	22984	5462.125858939696	4
0	22986	5462.191436943449	3
0	22993	5463.057686920049	4
0	22999	5464.370822785132	3
0	23005	5465.273908416489	2
0	23011	5465.519496218287	1
0	23016	5465.879051056664	0
0	23036	5469.010790433252	1
0	23048	5471.376857024231	2
0	23049	5472.782810911507	1
0	23061	5473.442844365081	0
0	23088	5478.881185499001	1
0	23091	5479.986246728051	0
0	23101	5481.584589677904	1
0	23104	5481.819089688001	0
0	23123	5485.939774277861	1
0	23128	5490.499050884781	0
0	23139	5491.034542854613	1
0	23140	5491.346582029474	0
0	23151	5493.673859758949	1
0	23155	5494.818448474277	2
0	23157	5495.191106134142	3
0	23158	5495.869631085666	2
0	23163	5497.045675165364	1
0	23169	5497.332882081234	2
0	23171	5497.515838071382	3
0	23176	5499.468681494419	2
0	23183	5500.138475428285	1
0	23188	5500.148870107441	0
0	23195	5501.554837046169	1
0	23196	5501.711831658598	0
0	23204	5502.52437888842	1
0	23205	5503.527313403067	0
0	23222	5507.355414731567	1
0	23226	5507.970207238636	2
0	23229	5511.799526621005	1
0	23237	5513.713587671988	0
0	23255	5515.665046209685	1
0	23258	5516.180808044201	0
0	23264	5516.896963114439	1
0	23272	5521.386991858457	0
0	23292	5523.283372084989	1
0	23297	5524.800338776201	2
0	23300	5526.855721765523	1
0	23305	5527.087043982622	0
0	23311	5527.258156595855	1
0	23317	5530.539523579736	2
0	23318	5530.816105374071	1
0	23323	5530.872959358053	0
0	23336	5536.640601640128	1
0	23339	5537.118130696724	0
0	23348	5537.663451784357	1
0	23351	5539.741945896966	0
0	23357	5540.194433302754	1
0	23361	5541.241681761667	2
0	23363	5541.864092951016	1
0	23370	5543.581995445143	0
0	23376	5543.850536237171	1
0	23381	5544.432051761734	0
0	23393	5548.38658489429	1
0	23395	5548.55395581072	2
0	23396	5549.357003652585	1
0	23405	5550.656930637686	0
0	23411	5551.081998424174	1
0	23413	5551.08363193597	2
0	23415	5551.457774832187	1
0	23421	5552.025983645206	0
0	23469	5561.835566804013	1
0	23471	5563.520211990684	0
0	23480	5565.614575943689	1
0	23482	5565.899949172257	2
0	23483	5565.953067414038	1
0	23488	5566.095087377436	0
0	23495	5566.620726287374	1
0	23497	5566.777850232413	2
0	23499	5567.659797629446	3
0	23501	5567.837796722055	2
0	23506	5568.329669159102	1
0	23512	5569.229378169602	0
0	23523	5571.107708247441	1
0	23525	5571.17055088168	2
0	23526	5572.351797580544	1
0	23534	5574.314520689419	0
0	23562	5581.279007465567	1
0	23565	5582.207077245638	0
0	23590	5585.671587026502	1
0	23594	5586.790070582386	0
0	23608	5588.796811454141	1
0	23613	5589.161562199445	0
0	23648	5593.942758246737	1
0	23650	5594.639315146394	0
0	23659	5595.426611905113	1
0	23664	5598.332322611739	2
0	23666	5598.774225706551	3
0	23668	5598.83587556993	4
0	23670	5599.601767256143	5
0	23671	5600.008369697278	4
0	23676	5600.487625634133	3
0	23681	5600.531754533898	2
0	23687	5600.650448760781	3
0	23688	5601.664506088502	2
0	23696	5602.816708127702	3
0	23697	5603.005961696921	2
0	23702	5604.972142521588	1
0	23707	5605.405660750219	0
0	23719	5607.769522935828	1
0	23721	5608.721500777124	0
0	23732	5609.273260637481	1
0	23734	5609.971459779456	2
0	23735	5610.011913029818	1
0	23739	5610.520582703005	2
0	23745	5612.148416349423	3
0	23746	5612.20301041807	2
0	23751	5612.551714320067	1
0	23758	5613.563065746625	2
0	23764	5614.66104554206	1
0	23771	5615.420929412593	0
0	23797	5620.266012957976	1
0	23803	5623.080884494676	2
0	23805	5625.564931554018	1
0	23812	5625.722114118854	2
0	23813	5627.027288345447	1
0	23819	5627.870269650527	0
0	23847	5629.743268521982	1
0	23851	5632.23677420779	0
0	23870	5634.04044347681	1
0	23872	5636.097487401716	0
0	23881	5637.814277652537	1
0	23884	5638.141532866374	0
0	23897	5640.885311330326	1
0	23901	5643.630595832852	2
0	23902	5643.678847553373	1
0	23908	5645.534337166464	0
0	23925	5650.222746173285	1
0	23927	5651.08768186045	2
0	23931	5654.011083210951	3
0	23932	5654.524474896509	2
0	23937	5654.783055256974	1
0	23944	5655.219799325023	2
0	23945	5655.448546341434	1
0	23953	5657.012318210926	2
0	23954	5657.115334314918	1
0	23959	5657.449504336862	0
0	24054	5682.518648687933	1
0	24055	5683.062844222059	0
0	24061	5683.087662101254	1
0	24063	5683.696809825659	0
0	24077	5688.42440990582	1
0	24078	5689.152449637653	0
0	24092	5691.340120429448	1
0	24093	5691.631461773252	0
0	24101	5692.596723953415	1
0	24102	5693.581931649924	0
0	24108	5693.787602118258	1
0	24112	5696.644966536349	0
0	24133	5700.247058346192	1
0	24136	5701.809572003597	2
0	24138	5702.395105718163	3
0	24140	5705.082325026704	4
0	24142	5705.256975783363	5
0	24143	5705.545016807428	4
0	24150	5705.877227399877	5
0	24154	5707.062440230902	6
0	24155	5708.018266948917	5
0	24162	5708.928926240994	4
0	24167	5709.060906206452	3
0	24175	5710.143871370019	2
0	24182	5710.548846263446	1
0	24189	5711.443365565279	0
0	24238	5723.83597672975	1
0	24241	5725.940701502437	2
0	24244	5726.376335180053	1
0	24249	5726.782364547187	0
0	24293	5732.458405010929	1
0	24296	5733.23195497022	2
0	24298	5734.168172059975	3
0	24299	5734.98121632577	2
0	24304	5735.766867597846	1
0	24309	5736.99468979276	0
0	24330	5739.144241035096	1
0	24332	5739.558885521735	2
0	24334	5739.919746282472	1
0	24342	5741.805945517075	0
0	24348	5742.292975526347	1
0	24349	5742.630400453904	0
0	24430	5759.674826778005	1
0	24431	5760.755453719505	0
0	24477	5769.047614170853	1
0	24481	5769.325443413637	2
0	24483	5770.025956159142	1
0	24489	5770.952373296117	0
0	24497	5772.51584676211	1
0	24501	5773.474905965988	2
0	24502	5773.513520727995	1
0	24510	5774.155323048964	0
0	24533	5776.203239471237	1
0	24540	5783.192309334041	0
0	24578	5793.155752403868	1
0	24584	5795.253789067596	0
0	24599	5796.573970003093	1
0	24601	5797.551135758292	2
0	24604	5798.523364619844	1
0	24610	5799.952756578212	0
0	24624	5802.173272791379	1
0	24625	5802.274040178563	0
0	24654	5805.576052292536	1
0	24655	5805.920474992897	0
0	24690	5814.268443465878	1
0	24694	5816.154354513216	0
0	24709	5818.398156624166	1
[...]
5	120385	28636.061538267356	0.323991963205
5	120392	28640.289773553731	0.355847711536
5	120402	28645.444417994315	1.232365819224
5	120417	28648.844895417846	0.881496683544
5	120424	28650.91271423568	0.535495749286
5	120438	28654.147707353743	2.638951650725
5	120446	28656.653732602643	4.928513314444
5	120452	28658.584803249848	4.857766539157
5	120457	28658.622307255116	4.874789836529
5	120466	28659.111149054976	4.11762033298
5	120473	28659.529458340583	0.549572411155
5	120480	28663.400467914047	4.365918394816
5	120498	28667.77582205648	8.594182981689
5	120503	28667.841756304329	3.600088555126
5	120508	28668.786951429448	2.572378365534
5	120515	28671.130305029174	4.650020836223
5	120522	28673.975900512986	7.159551554885
5	120529	28674.505335806062	1.461333366708
5	120536	28675.250002677348	0.931980874667
5	120541	28677.352249689902	2.397672877817
5	120555	28679.28388007481	0.649681270864
5	120585	28684.603409786444	1.165037749646
5	120593	28685.358729045484	0.345915826907
5	120603	28691.282277804676	0.302508298475
5	120610	28692.235368090664	0.265106120665
5	120626	28697.028024549908	2.659548729008
5	120631	28697.855673151121	1.545973305378
5	120653	28701.15014443671	1.537251996665
5	120672	28703.350672677052	2.014980008639
5	120680	28704.662002662302	2.961161901421
5	120686	28705.159175070342	1.70857043052
5	120702	28706.579041396398	0.39369636722
5	120710	28710.109337187179	0.789042652946
5	120717	28710.52522638581	0.329853183334
5	120733	28716.896196253199	0.57057890931
5	120748	28721.010311398223	0.272132603947
5	120757	28722.389244147753	1.118876599387
5	120765	28724.053606732143	1.412571717135
5	120772	28726.896247950751	0.174288604242
5	120781	28730.817809921757	0.833516473606
5	120802	28734.806990270443	2.32969198484
5	120818	28745.183262933732	2.567661628367
5	120824	28745.529223112158	2.460941730291
5	120842	28748.79481289535	1.648319161553
5	120847	28749.215053699425	1.810808027308
5	120855	28749.546007582909	0.154305580548
5	120863	28754.664223338838	1.146419316521
5	120879	28761.27058854348	1.574656437504
5	120889	28762.555916031474	0.881816285061
5	120901	28765.482477181505	2.97240433967
5	120922	28768.572543204302	1.357481147026
5	120926	28768.991981050902	0.870197851184
5	120934	28772.799761768781	0.893491067785
5	120979	28789.184690062283	0.453569645806
5	120986	28789.488739042111	0.253153432062
5	120999	28793.32762348476	1.737789861552
5	121006	28793.501404801002	1.225818489388
5	121010	28793.511890520339	0.098898083943
5	121023	28794.95307805526	0.68351010752
5	121041	28810.986854518787	0.234800374364
5	121059	28820.826824308024	2.089522591946
5	121080	28825.494724148954	1.551422504333
5	121086	28826.384568575444	1.753283584261
5	121093	28826.436185107733	1.763828756692
5	121108	28831.097105003761	2.58139153554
5	121113	28832.043494572623	1.261339282956
5	121126	28836.624743870419	0.567536296189
5	121141	28841.152358799327	2.231126610117
5	121150	28841.928509767621	1.969579724352
5	121155	28843.076862117675	1.185866657905
5	121162	28843.528528636081	0.115057133835
5	121179	28845.62674887208	0.63149949698
5	121184	28845.634257292965	0.502562494578
5	121202	28847.47506163301	0.087288920333
5	121232	28856.631006977625	0.704851482414
5	121239	28858.714174857446	2.682140035704
5	121245	28859.596281307467	3.417558605967
5	121258	28862.869858858249	0.661244801681
5	121268	28866.812766036619	2.343309726783
5	121298	28876.327297560584	3.967359311502
5	121304	28877.003913424613	4.504672907839
5	121309	28877.170537816445	1.573671305816
5	121323	28883.264274006595	0.426544321036
5	121344	28889.111002744288	4.071960369788
5	121358	28890.648296555566	0.747982084819
5	121381	28896.266703523509	2.553997307033
5	121395	28898.470988154292	3.52030126549
5	121400	28898.480508987257	1.270134093667
5	121405	28899.035042106901	1.630801941493
5	121430	28903.095820584084	2.998993514429
5	121438	28905.280151594728	2.43918144972
5	121452	28907.615832977961	1.217943758776
5	121493	28911.999746626768	1.088632545948
5	121497	28912.365203251815	0.433259993446
5	121513	28916.000877178067	0.082475745241
5	121525	28918.519990192337	2.352248658801
5	121544	28921.074539070169	0.643778252336
5	121553	28923.893750777548	1.430927347719
5	121560	28925.42803050776	0.16520142132
5	121583	28933.085804269386	0.59079208314
5	121592	28934.991966028255	1.874683334108
5	121623	28943.688065926004	4.210912160333
5	121633	28945.248895394811	3.344066564601
5	121639	28946.200085627732	3.631414433752
5	121644	28946.331257817016	1.252391921081
5	121654	28947.293387493439	2.187230177592
5	121664	28950.688389086845	3.424147501347
5	121669	28951.025965044659	1.336610698242
5	121690	28955.163546257259	2.282567362673
5	121695	28955.841629263958	2.537919107792
5	121711	28963.167859916042	4.951067107231
5	121729	28967.748350512841	3.205913822174
5	121737	28968.712881110781	3.728200864123
5	121753	28971.842999684709	2.000014708455
5	121758	28972.826619215498	1.67904850279
5	121784	28977.301056116929	4.445589584917
5	121789	28978.213974748533	5.158517254731
5	121797	28979.447723804069	4.646732791289
5	121804	28980.104285564933	4.757752010329
5	121810	28980.226961861358	4.184516843692
5	121817	28980.567865651801	0.85614614175
5	121842	28986.271086868781	5.025007488095
5	121848	28987.226814750591	5.95581088143
5	121854	28987.879934381903	5.925315346573
5	121859	28988.08066709841	2.34403228276
5	121867	28989.939167805412	3.933488103812
5	121892	28995.642289559138	3.106142790157
5	121904	28997.749090159464	3.757914974812
5	121910	28998.834983497359	3.004916940037
5	121918	29000.92611729547	3.350780806886
5	121923	29001.201309353714	2.158812145018
5	121935	29001.622967522487	0.292965174869
5	121954	29006.084342763761	0.143841726979
5	121962	29006.974056298441	0.360531510882
5	121978	29014.646670795822	0.331834857175
5	122002	29018.958393406798	3.524002763806
5	122011	29021.468296096009	4.365972011743
5	122017	29022.905758314163	5.625223718942
5	122024	29023.279812741232	4.444958923579
5	122035	29024.770437868343	1.68099502865
5	122045	29025.219711366237	0.555220768985
5	122050	29025.802595663089	0.975833712871
5	122055	29026.053198899137	0.929300664534
5	122084	29037.898938555645	0.565381578541
5	122094	29040.859215902156	2.46584040057
5	122104	29041.980925274355	0.369233437329
5	122109	29042.1603486335	0.456929013896
5	122116	29043.140283687583	0.151799353654
5	122124	29045.064701293499	0.095262450702
5	122150	29051.469499871201	0.291293682315
5	122167	29052.863002504307	0.410768130995
5	122185	29054.111300837276	1.096247781595
5	122193	29057.158581767963	3.510294252804
5	122203	29058.644644747442	4.672483995724
5	122209	29060.08886697094	2.669796944833
5	122221	29060.540148147703	0.070489456012
5	122236	29068.23351535222	2.302034189165
5	122241	29068.258192297925	0.401390658576
5	122254	29072.797890719989	0.609699905015
5	122300	29083.922538345734	4.232281657737
5	122305	29083.945825220152	2.245902506856
5	122325	29089.679057045054	2.331714778835
5	122343	29094.999666441034	3.95414069207
5	122359	29097.790427417654	2.013135007665
5	122368	29099.580876548415	0.941485010425
5	122387	29107.301334299754	3.091197674273
5	122393	29109.027947528391	4.05365732086
5	122401	29111.90871082056	1.088585690866
5	122409	29115.129965213165	0.953533075088
5	122435	29120.536919499299	4.006022194626
5	122441	29121.535264764575	2.444137883943
5	122448	29121.885343893769	2.673042960584
5	122456	29125.234906257582	5.426232294875
5	122463	29125.774572305105	1.143674036862
5	122470	29127.81357345215	2.278767131247
5	122486	29132.999969013606	6.859904919866
5	122491	29133.794778100798	5.037557126483
5	122496	29135.506104234453	4.183568787936
5	122511	29138.650130573697	5.826473800347
5	122522	29141.28006684432	5.177923277217
5	122552	29149.692356426903	5.959059311368
5	122557	29150.239567453995	5.642167037435
5	122587	29157.158033547049	3.226948037759
5	122613	29162.056291931708	2.211041734255
5	122621	29162.872641526342	2.018046983034
5	122662	29177.811936762704	0.937151294343
5	122673	29181.336679730174	1.216929595796
5	122682	29181.652925863846	0.710701591569
5	122692	29183.033099185643	1.467640528651
5	122707	29184.676136735629	1.163902487246
5	122735	29191.737249465964	0.691969560408
5	122755	29198.62896501814	5.234447268793
5	122760	29199.312957930069	3.197761732438
5	122780	29202.651561557161	0.95245651987
5	122794	29206.870283461164	0.462302157365
5	122805	29208.067760608084	0.255822108759
5	122813	29210.668331555555	0.464506707892
5	122821	29213.228201841022	1.338833614729
5	122831	29214.937200121776	1.297873126032
5	122835	29216.43054136957	1.944831088364
5	122842	29218.466780984566	0.587787745907
5	122852	29224.636362749682	5.19851672521
5	122861	29227.92685640865	3.894805666435
5	122876	29231.96358042856	6.723906759147
5	122884	29233.557936886479	4.483207213222
5	122889	29234.968997401592	5.654314586759
5	122894	29237.527917864062	7.931182220092
5	122921	29244.023161858358	6.052159542011
5	122929	29245.579857619347	4.740413128908
5	122935	29245.907774700347	1.523584768189
5	122974	29257.415372496077	1.886725293345
5	122981	29258.86333937031	0.061925885567
5	122995	29261.470957102916	1.267972686687
5	123011	29264.833688106747	1.712711567117
5	123023	29268.602818708449	0.989480085784
5	123028	29269.233325462389	1.462419590443
5	123063	29277.594105465268	3.647013974259
5	123068	29277.634248831187	2.638503260966
5	123076	29278.187660567725	1.552554017199
5	123081	29278.499131032534	1.819653822914
5	123102	29285.912642426549	5.529288238873
5	123114	29290.660867097889	7.460619163898
5	123119	29292.115564709751	7.552441709552
5	123124	29292.178008642117	4.847618396685
5	123133	29293.220988154761	4.563899403287
5	123146	29296.541411035926	6.644665061898
5	123158	29299.211433542489	6.47149564123
5	123165	29300.353090792144	5.333561710363
5	123170	29300.365278760597	4.577643828429
5	123176	29301.45662048539	2.905869605652
5	123189	29302.814219188826	1.228533229264
5	123213	29307.318672473785	1.634155517527
5	123219	29307.793209510871	1.743528257305
5	123231	29308.167158334629	0.322893746759
5	123247	29309.860893291043	0.830512467342
5	123271	29317.468462625878	6.443198879443
5	123280	29322.310267644941	9.164906204348
5	123285	29323.413903542978	9.75069559783
5	123290	29323.999888479198	7.642568314979
5	123296	29327.28066432332	9.658328450409
5	123328	29334.284853595122	2.280306469274
5	123346	29335.854934319245	0.886695530117
5	123355	29336.803617807831	1.147765929103
5	123368	29338.692304109275	1.681754479264
5	123381	29340.384015818218	1.205759699719
5	123391	29341.47058772776	1.822105885031
5	123398	29342.310871662179	2.584008034126
5	123403	29342.493486431717	1.588810618777
5	123428	29347.779738277428	0.824741307302
5	123450	29352.307195944355	1.841456420443
5	123474	29358.691724234379	0.719957157695
5	123480	29359.454903825061	1.3164603989
5	123502	29365.96570702722	0.356132995348
5	123528	29380.225866093816	3.930234213091
5	123546	29384.335233510922	2.712548859977
5	123574	29388.432177456094	0.831903050102
5	123579	29388.49667128101	0.561623926005
5	123585	29389.384539441166	1.304663649368
5	123591	29389.576336017743	1.172291632994
5	123631	29402.798231938551	2.473325490548
5	123641	29404.667203963618	3.434060376093
5	123647	29405.447688765528	2.728608379462
5	123652	29406.41988215564	2.512892830665
5	123666	29409.113212791323	0.023294227049
5	123697	29412.986339748465	0.467037678825
5	123705	29419.407504702643	1.405911237932
5	123720	29427.971995152232	0.106772123098
5	123729	29433.227036873369	1.487992236744
5	123748	29441.433639113175	5.84468329823
5	123768	29444.464560011243	2.473897904533
5	123773	29444.478600593081	1.495807618905
5	123795	29452.282850035597	1.042777984001
5	123799	29452.646688592519	0.843131751739
5	123807	29454.500214907122	0.577222271747
5	123817	29457.325358714341	1.232780584495
5	123826	29462.578615621569	1.842532491383
5	123834	29463.979493446185	0.67266397549
5	123847	29465.19020205336	0.986223026451
5	123862	29468.865270632914	1.64548427206
5	123874	29471.070306520545	1.451459612498
5	123883	29474.116657095404	1.003339338507
5	123894	29477.437034486161	0.646118238613
5	123899	29478.273960902086	1.247321475736
5	123920	29482.238330652632	2.779716198631
5	123925	29482.730500400131	1.543851949911
5	123938	29485.995778412605	1.054811123346
5	123958	29490.040527041515	3.201685937524
5	123963	29490.165472523835	2.522451067364
5	123968	29491.126452261809	1.684729649974
5	124020	29508.226682285339	1.535791435025
5	124024	29509.063895681719	0.928194753008
5	124038	29510.173016239033	0.178863591528
5	124045	29512.535038146793	0.532060062449
5	124057	29519.11717564124	2.679423987493
5	124067	29520.744687190401	0.345124494202
5	124084	29526.175314427073	0.564957122722
5	124111	29535.004873747055	3.21909409926
5	124121	29536.022419656077	1.035636951228
5	124132	29538.746060995882	3.673260347104
5	124137	29538.908213205156	3.265401529932
5	124145	29540.892507501659	3.481493688893
5	124154	29541.220908798227	2.575525298346
5	124159	29541.445998989041	0.495178001736
5	124183	29545.68186502523	0.652141553701
5	124198	29549.165326961399	1.67066474859
5	124213	29551.690907404536	0.671687938755
5	124221	29557.113887447889	2.535000555491
5	124248	29561.157724747552	2.208573004013
5	124255	29562.39336317497	2.72609504233
5	124260	29562.461058224269	1.690217265721
5	124267	29564.434757266572	3.552264127087
5	124272	29564.621410868355	2.415748735549
5	124292	29569.79496140125	3.309020216616
5	124300	29570.119766050676	2.20924329133
5	124312	29571.147701399766	1.313642269842
5	124317	29571.592337090912	0.671560021617
5	124329	29575.19260052613	4.046989058799
5	124335	29575.927593227997	2.995964980501
5	124345	29579.865315595501	5.12857139875
5	124350	29579.928823087771	3.55695128563
5	124359	29580.75853449165	1.280615094786
5	124365	29582.042515084469	1.56598009056
5	124387	29584.743862263275	2.559180220664
5	124394	29586.037924682701	3.339825055298
5	124399	29586.419091553535	2.220790279607
5	124406	29587.220357679968	2.665111254213
5	124412	29588.259349512205	3.199046319883
5	124440	29595.056664047995	3.452217019814
5	124445	29596.02448605271	1.697349426048
5	124460	29609.518309358662	0.114220609839
5	124476	29614.505993104013	2.829504849709
5	124483	29615.964548135644	0.878334064848
5	124509	29622.266511365744	0.635673014233
5	124519	29624.099388479822	0.399781297836
5	124527	29625.184890798198	0.685339926736
5	124538	29628.569209205468	0.931795795243
5	124546	29629.785340414906	1.4684421816
5	124562	29633.856251892985	4.319040776369
5	124568	29634.832269458157	3.33808334758
5	124573	29635.212137985931	3.075550698582
5	124578	29635.847614159288	3.313888428797
5	124582	29636.904968037509	4.149549142408
5	124589	29637.248709510486	0.07191900884
5	124596	29639.134311788213	0.074343600316
5	124637	29650.193561424966	0.061797210498
5	124653	29654.824226567054	0.71845749993
5	124663	29658.732736101319	2.977503990328
5	124677	29662.800091172417	0.666762344851
5	124691	29668.88771250056	5.746603316804
5	124697	29671.252369198868	6.705014087393
5	124711	29673.719814157562	0.387627243689
5	124724	29675.327304758468	1.433549950686
5	124731	29677.5530940713	2.889642504556
5	124740	29678.978148060053	4.094438207778
5	124745	29679.725741154569	3.172480481363
5	124818	29698.202455897477	8.276832527646
5	124823	29698.268213579011	7.272830400238
5	124830	29699.515632585947	6.780670732649
5	124835	29699.779723222723	5.377251222412
5	124846	29702.25264547301	7.466454347968
5	124851	29702.289026926747	6.818899745572
5	124860	29702.890063145697	6.037809326205
5	124868	29704.529786490145	6.83746508218
5	124876	29706.089767937998	3.86967825705
5	124889	29707.765039030652	1.62212276466
5	124903	29710.415091183189	1.467200997908
5	124917	29712.031890228734	1.161715635883
5	124954	29720.252933748455	2.815395085684
5	124991	29728.317034424508	1.720234609557
5	124999	29729.11934015695	1.372337261209
5	125015	29731.844345215755	1.92220407593
5	125024	29733.62567239391	1.81860899104
5	125029	29733.769631949449	1.526814547966
5	125038	29735.780534868935	2.943627464399
5	125043	29736.220016982502	0.821478771783
5	125063	29738.599566988133	2.341063480139
5	125073	29741.543484331006	3.908195512479
5	125081	29743.000804007605	2.95538170041
5	125086	29743.942202030126	3.728580683002
5	125093	29744.453655936811	2.43397857267
5	125135	29750.27176470984	4.729444749604
5	125140	29750.391851483715	3.60323749388
5	125146	29750.721273306618	3.889359208391
5	125159	29751.981696583543	0.806442780542
5	125169	29755.880120076917	0.955348457967
5	125177	29756.708154121711	0.810777038564
5	125195	29759.58403207361	0.481858715516
5	125200	29760.88156357794	1.381788177979
5	125224	29770.774125958877	3.772187976805
5	125232	29771.344526600051	0.649943116029
5	125238	29772.198834867869	1.067950014089
5	125256	29778.835431598765	0.65715167168
5	125265	29782.839692156175	1.322308343348
5	125275	29787.069438196023	0.479056873404
5	125280	29787.803462464765	0.952227410471
5	125290	29791.258855360052	2.542453710359
5	125335	29801.969004993167	3.389174490553
5	125345	29806.572832114764	6.457703067324
5	125358	29808.104356264939	1.363019437588
5	125376	29809.316814680253	1.04816029953
5	125390	29814.459729445713	3.335989513856
5	125398	29816.434964103717	4.729408252093
5	125403	29816.731561119968	1.314385825183
5	125423	29819.155533749092	0.723136182207
5	125435	29824.813275951597	1.19843863187
5	125441	29825.197215616678	0.398160588662
5	125459	29832.542725982867	4.583986269751
5	125467	29835.546111631818	3.158789332362
5	125473	29836.368754598919	2.080191936044
5	125480	29836.795613991906	0.343765052087
5	125494	29842.992728818165	1.725193634253
5	125500	29846.344134440901	4.54200794553
5	125522	29850.506950341604	0.138247859357
5	125559	29865.742289948626	3.278044548779
5	125565	29866.171310537383	2.298354724147
5	125581	29868.784783511671	0.654411091419
5	125614	29880.964487847911	10.303359591611
5	125621	29881.791513971804	11.128554773456
5	125628	29884.024448786997	13.115551104397
5	125633	29884.203308949632	6.364671352347
5	125645	29886.648066059553	6.802628500281
5	125650	29886.992388849161	6.065703822572
5	125655	29887.022685834701	2.225936817674
5	125665	29890.94030483306	5.542142793833
5	125686	29894.300476449372	2.239751000947
5	125693	29894.365343365945	2.114832171238
5	125700	29895.563155280923	1.574022419376
5	125708	29896.755273873156	2.643890120083
5	125718	29899.763800206355	5.458752149265
5	125723	29900.082657591188	2.065966126901
5	125744	29902.246041062482	1.855201191948
5	125767	29905.737242827305	1.044610916385
5	125780	29912.123137501132	1.649219591031
5	125787	29912.726397846665	0.232869937051
5	125795	29915.621940516486	0.066570322865
5	125803	29916.23629111421	0.189362927735
5	125825	29920.724901394117	3.204134296705
5	125832	29921.373721751399	2.992695447873
5	125836	29921.583047786452	2.403559353447
5	125847	29924.341420134719	2.033836316623
5	125855	29924.803790041645	1.723887324786
5	125866	29925.990446728314	1.50833352518
5	125875	29927.917008505892	2.373236049287
5	125880	29928.211641457828	1.84798443906
5	125906	29932.763486994216	1.238504274303
5	125911	29932.88593852098	0.789260151638
5	125935	29937.325761988471	2.341020139515
5	125954	29944.502962896042	6.132310539564
5	125959	29944.606531412322	1.135270087667
5	125964	29944.648748809058	1.03540023616
5	125990	29951.587199315369	0.337424760446
5	125998	29953.293009115763	1.285293980974
5	126010	29962.252083415919	3.935990265713
5	126017	29966.107862575195	0.950710468551
5	126036	29972.338763968904	2.625757842333
5	126048	29974.952382051909	4.205087794453
5	126056	29976.095215010071	3.661993645654
5	126061	29976.754020118824	1.808306940108
5	126071	29978.480704291053	3.510490413834
5	126076	29978.684070508959	0.692953749918
5	126080	29978.921236017366	0.714610685279
5	126093	29982.841528605015	0.975638394155
5	126112	29988.389460327955	2.931439969824
5	126117	29988.485486290756	1.150543375092
5	126131	29992.180305184161	2.664184058915
5	126139	29993.377434055693	0.279532330558
5	126150	29995.918820068015	1.392614752422

