version 2
run Second-n5-17-20191016-17:04:56-8620
attr configname Second-n5
attr datetime 20191016-17:04:56
attr experiment Second-n5
attr inifile omnetpp.ini
attr iterationvars ""
attr iterationvarsf ""
attr measurement ""
attr network org.omnetpp.queueing.Pizza
attr processid 8620
attr repetition 17
attr replication ""
attr resultdir results
attr runnumber 17
attr seedset 17
param **.PS.maxInventoriedPS 5
param **.U1.interArrivalTime exponential(3s)
param **.U2.interArrivalTime exponential(5s)
param **.PS.serviceTimeForInventoryU1 exponential(1.0s)
param **.PS.serviceTimeForInventoryU2 exponential(1.2s)
param **.PS.serviceTimeDirectU1 exponential(1.4s)
param **.PS.serviceTimeDirectU2 exponential(1.4s)
param **.PS.probabilityProducing 0.7
param **.CS.serviceTimeU1 exponential(1.1s)
param **.CS.serviceTimeU2 exponential(1.4s)

vector 0 Pizza.EntryQueueU1 queueLength:vector ETV
attr interpolationmode sample-hold
attr title "queue length, vector"
vector 1 Pizza.CS queueLength:vector ETV
attr interpolationmode sample-hold
attr title "queue length, vector"
vector 2 Pizza.EntryQueueU2 queueLength:vector ETV
attr interpolationmode sample-hold
attr title "queue length, vector"
vector 3 Pizza.sink lifeTime:vector ETV
attr interpolationmode none
attr title "lifetime of arrived jobs, vector"
attr unit s
vector 4 Pizza.sink lifeTimeU2:vector ETV
attr interpolationmode none
attr title "lifetime of arrived jobs, vector"
attr unit s
vector 5 Pizza.sink lifeTimeU1:vector ETV
attr interpolationmode none
attr title "lifetime of arrived jobs, vector"
attr unit s
0	0	0	0
0	5	1.047247255701	1
0	7	1.685048182551	2
0	15	5.771218478445	1
0	20	6.258382831417	0
0	33	8.276072354561	1
0	35	8.380819496546	2
0	42	11.480673859992	1
0	47	11.481910844286	0
0	67	14.674626647659	1
0	69	14.845103984812	2
0	70	15.389760241758	1
0	77	15.770095728749	0
0	86	17.032174435107	1
0	88	17.289958607118	2
0	90	17.486420221813	3
0	93	17.728109229284	2
0	98	17.866817922706	1
0	105	19.848784397119	2
0	110	21.510520232944	1
0	115	21.567010201154	0
0	132	24.636391486921	1
0	133	25.500199534336	0
0	158	30.362829056506	1
0	160	31.282946486525	0
0	174	35.691239931638	1
0	176	36.230962060855	2
0	178	36.278424107608	3
0	179	37.29244545204	2
0	187	37.599177465768	3
0	188	38.900468474799	2
0	193	39.44978042398	1
0	198	39.746435543812	0
0	219	43.767378934271	1
0	221	44.083078006596	0
0	275	63.121885378216	1
0	276	63.308662986789	0
0	298	68.995937869917	1
0	299	69.327970356865	0
0	332	81.031804651445	1
0	335	83.00152401242	0
0	341	83.207468183948	1
0	343	83.320477659208	2
0	346	85.042790899212	1
0	351	86.718517203165	0
0	446	109.537848021614	1
0	449	111.201956945891	2
0	450	111.261163116008	1
0	455	111.308839824616	0
0	491	119.436117093886	1
0	492	120.154406300787	0
0	544	133.277946151242	1
0	549	136.264548014996	0
0	561	140.613951153089	1
0	562	141.592638146156	0
0	630	169.714031845069	1
0	632	170.372099282842	2
0	635	170.853687351365	1
0	640	171.296409358617	0
0	653	173.924943057775	1
0	655	174.730225552665	2
0	658	175.220680259522	3
0	659	175.628148751178	2
0	665	178.439732922325	1
0	673	179.403122947471	0
0	686	180.717521756026	1
0	688	180.925244655268	2
0	690	181.508722196473	1
0	695	181.678354758866	0
0	715	185.495252704936	1
0	718	187.20329215046	0
0	725	188.849256691512	1
0	726	189.357150265747	0
0	733	190.076089184832	1
0	735	191.052651868469	2
0	736	193.146349386579	1
0	741	193.259439466066	0
0	747	194.291022247927	1
0	749	194.918286467047	0
0	776	207.334367439805	1
0	780	208.25563783236	2
0	782	208.795716669158	3
0	784	209.98795708034	4
0	785	212.199777796697	3
0	790	212.525151126501	2
0	795	213.319174772231	1
0	802	214.335475002131	0
0	808	214.574268926676	1
0	809	218.051353858375	0
0	815	218.899320170147	1
0	817	220.048882327101	0
0	845	229.159594767052	1
0	849	231.185781238445	0
0	861	232.866510376783	1
0	862	233.272670882798	0
0	876	237.627240579068	1
0	877	237.967730756027	0
0	895	241.758527281137	1
0	896	241.919942890939	0
0	904	242.491811455178	1
0	905	242.620801513538	0
0	927	249.909572868368	1
0	929	249.967373152697	2
0	931	251.669017058449	1
0	940	253.166857178022	2
0	941	253.581951806217	1
0	946	253.638157379778	0
0	958	254.364757200899	1
0	962	255.375901101013	2
0	964	256.106001719885	1
0	969	256.447605763211	0
0	981	257.169443680107	1
0	983	257.428437170221	2
0	985	258.609576778541	1
0	991	258.96390568187	2
0	995	261.020871344937	1
0	1000	261.394039551937	0
0	1029	267.954601927642	1
0	1031	268.679555790132	0
0	1076	281.132359705219	1
0	1079	282.74273871416	0
0	1085	283.058381462403	1
0	1086	283.496028379731	0
0	1105	288.125545348834	1
0	1107	289.138621422076	0
0	1122	291.920160347141	1
0	1123	292.480785569976	0
0	1182	316.304645587762	1
0	1184	316.506423839081	2
0	1185	318.18949684688	1
0	1191	318.514718093589	2
0	1193	319.265443647504	3
0	1195	319.459195405406	4
0	1196	320.221372507387	3
0	1202	321.189760498232	2
0	1211	322.023256332607	1
0	1216	322.909134686289	0
0	1242	326.299470396857	1
0	1244	327.683091318905	2
0	1245	328.439631633749	1
0	1254	329.626377012681	0
0	1272	333.964559693532	1
0	1274	335.930384012922	2
0	1276	337.140891144003	3
0	1277	337.876262335659	2
0	1283	337.903085259221	3
0	1284	337.967292003511	2
0	1289	338.462025558032	1
0	1295	339.841708335319	2
0	1297	340.496975962747	1
0	1304	340.966723150261	2
0	1307	341.782552653523	3
0	1309	342.305204712608	2
0	1315	343.178831869258	3
0	1316	344.27315682869	2
0	1327	349.000817962763	1
0	1332	350.1075318835	0
0	1344	352.556317662385	1
0	1345	352.711607345283	0
0	1400	371.604888655422	1
0	1402	373.25324297898	2
0	1404	373.765461660337	3
0	1410	375.9525436238	4
0	1412	376.028174779167	5
0	1414	376.94181353419	4
0	1421	377.995334805687	5
0	1423	378.314782639833	6
0	1427	378.783715942747	7
0	1428	378.827653909763	6
0	1435	380.759965768626	7
0	1436	380.904321930397	6
0	1441	381.83025674608	5
0	1449	384.029795365081	4
0	1455	384.347766528737	3
0	1461	385.058902002073	4
0	1462	385.314292771478	3
0	1468	385.854179056397	4
0	1469	386.248104124027	3
0	1476	386.493960525775	4
0	1477	386.555895660909	3
0	1483	386.698188889626	2
0	1492	389.336209090487	1
0	1497	389.362843150016	0
0	1503	389.511092957068	1
0	1504	390.200484666403	0
0	1539	395.270576802885	1
0	1540	395.720715109668	0
0	1546	395.78080454336	1
0	1548	396.199300671814	0
0	1626	417.955200323157	1
0	1628	418.181022232307	2
0	1629	418.78801717021	1
0	1636	419.049243313348	2
0	1637	419.492288878447	1
0	1643	419.981228145241	0
0	1655	420.814213415265	1
0	1657	421.327009128028	2
0	1658	421.366707132456	1
0	1664	422.288197363738	0
0	1706	430.503910523743	1
0	1707	430.726865715199	0
0	1795	464.749887364483	1
0	1797	465.241609257465	2
0	1798	466.906660359628	1
0	1803	467.659769963147	0
0	1848	475.973689405257	1
0	1850	477.775981686265	2
0	1852	478.661944901713	3
0	1854	480.507063717824	4
0	1855	480.635475682921	3
0	1860	480.7161294429	2
0	1865	480.722396615416	1
0	1871	481.322938604756	2
0	1872	482.210434474618	1
0	1880	483.135896935111	2
0	1884	484.362449315629	3
0	1887	485.089560594257	2
0	1892	485.177991431201	1
0	1899	486.569577959919	0
0	1940	495.391038094382	1
0	1942	495.399217332529	2
0	1943	495.546866444575	1
0	1948	495.664484262466	0
0	1971	499.999673993664	1
0	1972	500.282572048557	0
0	1982	503.985459167149	1
0	1985	505.567770247025	0
0	2004	508.396764743238	1
0	2005	508.585020837553	0
0	2020	510.422321753257	1
0	2024	512.38998843246	0
0	2038	514.959789812635	1
0	2040	515.152845668378	2
0	2041	516.05284821365	1
0	2046	517.078479885218	0
0	2053	518.101716873494	1
0	2054	518.202119636149	0
0	2140	541.703402423027	1
0	2141	541.72462971025	0
0	2174	550.406547169195	1
0	2178	552.355537411331	2
0	2181	552.918943208371	3
0	2182	553.634174672542	2
0	2187	553.815787429463	1
0	2192	553.935518025762	0
0	2205	555.58434726351	1
0	2208	555.994605232293	0
0	2260	568.072127160825	1
0	2261	568.366115955423	0
0	2292	575.757790998342	1
0	2298	576.639452362577	2
0	2299	576.705600759574	1
0	2304	576.807873171032	0
0	2333	585.343880455566	1
0	2334	586.159403615782	0
0	2344	590.282515015563	1
0	2348	594.877552425371	2
0	2354	595.7630636589	3
0	2359	596.998544657009	2
0	2365	597.463756242552	1
0	2370	597.993212199103	0
0	2412	606.651105864313	1
0	2414	607.456005957432	2
0	2416	607.475825350013	3
0	2417	608.431850728409	2
0	2422	608.444485721597	1
0	2430	609.465732460567	0
0	2445	613.7639163428	1
0	2447	615.629883652008	0
0	2472	620.736957061847	1
0	2475	622.996107419988	0
0	2482	623.353640558206	1
0	2483	623.501152179384	0
0	2495	625.831427563231	1
0	2501	627.7341532728	2
0	2502	627.849521480978	1
0	2509	628.199648493492	0
0	2522	629.833187939759	1
0	2523	630.325395651123	0
0	2548	636.254064040798	1
0	2550	636.420457670424	2
0	2551	636.978833458862	1
0	2557	637.156062211215	0
0	2600	647.132987307042	1
0	2601	649.813594841647	0
0	2607	650.005150632648	1
0	2609	650.367274572106	0
0	2623	652.474525320091	1
0	2626	652.903993897388	0
0	2675	664.002518341214	1
0	2678	664.330096666464	0
0	2701	667.312080418164	1
0	2703	667.716993785204	2
0	2704	668.302459951147	1
0	2711	669.285332242377	0
0	2748	678.293862248441	1
0	2752	678.46124918742	2
0	2753	678.557043889547	1
0	2760	678.918416439185	2
0	2761	679.51604080178	1
0	2766	680.136083515702	0
0	2773	680.19672709073	1
0	2775	681.056264586597	0
0	2795	682.418896481433	1
0	2799	683.290845498201	2
0	2803	684.240750655412	1
0	2809	685.594063036743	0
0	2828	687.975951222181	1
0	2829	688.219544688864	0
0	2838	690.741202691349	1
0	2839	692.02143806937	0
0	2847	692.862888761307	1
0	2850	693.180785669398	0
0	2885	702.292463392458	1
0	2886	702.350060130487	0
0	2894	703.143909575186	1
0	2896	703.850566235385	2
0	2897	704.036701048055	1
0	2902	704.270511115661	0
0	2918	709.788789313588	1
0	2919	709.799725384238	0
0	2934	711.365964189356	1
0	2937	712.258184717092	0
0	2944	713.307995297966	1
0	2945	713.986506142763	0
0	2972	717.342737044556	1
0	2973	717.841432121208	0
0	3019	726.570016529089	1
0	3020	728.059748581355	0
0	3049	731.96319043982	1
0	3051	732.785668901363	0
0	3074	736.244026599045	1
0	3075	736.879611996803	0
0	3081	736.892112590497	1
0	3083	737.129872646937	2
0	3085	737.551779977604	1
0	3090	737.870996074628	0
0	3130	744.650780671662	1
0	3131	745.281722767834	0
0	3137	745.65273153728	1
0	3138	746.370422155497	0
0	3169	760.144877544655	1
0	3172	760.59105642268	2
0	3175	760.77813859317	3
0	3178	761.905224722108	2
0	3183	761.93985774195	1
0	3189	763.269247310664	0
0	3212	769.766797391105	1
0	3213	769.869723817379	0
0	3225	770.897030126587	1
0	3226	771.133664137477	0
0	3232	771.374470105321	1
0	3233	771.391651361275	0
0	3257	774.811306282002	1
0	3261	778.198661677395	0
0	3361	807.772380691128	1
0	3362	808.237270618906	0
0	3397	823.032336632748	1
0	3398	823.310244806641	0
0	3418	828.570442035407	1
0	3420	828.946184387683	2
0	3421	829.996108265393	1
0	3428	830.636406033335	2
0	3429	830.74821421346	1
0	3437	831.856975452498	0
0	3504	848.487589691684	1
0	3505	848.647906813616	0
0	3535	858.420173041385	1
0	3537	859.089570356764	0
0	3551	861.129134740657	1
0	3552	861.149023153634	0
0	3572	869.933457827176	1
0	3574	870.123336241575	2
0	3577	872.467550562446	1
0	3583	873.296439149445	0
0	3589	873.948517749853	1
0	3591	874.207030613831	2
0	3596	876.679646488744	1
0	3602	876.743350206354	2
0	3603	876.940445019424	1
0	3614	878.382390884189	0
0	3630	879.410145170695	1
0	3631	880.066159195337	0
0	3645	882.151031251721	1
0	3647	882.969228134619	2
0	3649	883.192428437849	3
0	3650	883.341200635609	2
0	3656	883.656854282135	1
0	3661	883.786459502834	0
0	3695	894.024397322147	1
0	3699	894.854369820086	2
0	3701	896.549596861628	1
0	3707	897.203694838192	2
0	3708	897.21953182913	1
0	3717	900.372865627181	0
0	3724	901.617692603009	1
0	3725	901.956937503819	0
0	3731	902.0837327847	1
0	3736	903.246767185019	2
0	3738	904.889571574842	3
0	3740	906.451119557107	4
0	3741	906.593472506438	3
0	3746	906.74750346016	2
0	3752	907.219085016649	3
0	3754	907.553077618156	4
0	3755	908.003315695176	3
0	3762	908.17236714244	4
0	3763	908.620634921704	3
0	3769	908.880499121355	2
0	3774	909.09708267425	1
0	3779	909.25681636771	0
0	3887	941.406621900875	1
0	3890	942.499003377132	0
0	4011	982.682135375542	1
0	4012	983.370565791653	0
0	4018	984.268012887479	1
0	4020	984.284223335691	2
0	4021	984.365937827914	1
0	4026	984.600947568785	0
0	4044	986.837812426961	1
0	4045	986.990836708772	0
0	4059	990.008290139834	1
0	4063	991.758835668636	2
0	4064	992.703180104442	1
0	4069	992.905829409299	0
0	4171	1012.929973747849	1
0	4172	1013.536230831379	0
0	4186	1016.870506141814	1
0	4187	1017.118977767484	0
0	4209	1019.251494536683	1
0	4211	1019.325535440105	2
0	4212	1019.427083871741	1
0	4222	1021.309258731559	0
0	4235	1024.521512859625	1
0	4236	1024.759612310232	0
0	4276	1035.125207811161	1
0	4279	1035.259898198298	0
0	4288	1036.874817381766	1
0	4290	1037.979388035939	2
0	4291	1039.154686409733	1
0	4298	1041.472099731094	2
0	4302	1044.593701650606	3
0	4303	1045.314999628752	2
0	4308	1045.566356885808	1
0	4315	1045.740217687477	0
0	4323	1047.119050124612	1
0	4325	1047.36803476578	0
0	4335	1048.259450089899	1
0	4336	1049.110921434236	0
0	4347	1049.700446732743	1
0	4350	1050.26141475139	2
0	4355	1052.448816409712	1
0	4360	1052.751461031061	0
0	4383	1055.671812748171	1
0	4384	1055.9877037286	0
0	4411	1060.831407648122	1
0	4413	1061.635851219501	2
0	4415	1061.787075133934	3
0	4417	1062.179446294721	4
0	4420	1064.115271920148	3
0	4427	1066.218944542882	4
0	4428	1067.249068391524	3
0	4434	1068.488742490892	2
0	4441	1069.19917318538	1
0	4446	1069.203558171011	0
0	4504	1079.828563316018	1
0	4506	1079.939672847236	2
0	4508	1080.084679791821	3
0	4511	1084.321717996651	2
0	4517	1085.480621530434	1
0	4523	1086.55771225166	2
0	4524	1086.882397530306	1
0	4529	1087.615116548147	0
0	4550	1093.771387847239	1
0	4551	1094.301469211589	0
0	4730	1140.690366389007	1
0	4731	1142.17046611498	0
0	4745	1145.281968059548	1
0	4746	1145.77300010902	0
0	4808	1170.297302516976	1
0	4809	1171.015843376613	0
0	4834	1175.2864838256	1
0	4836	1176.469610468756	0
0	4860	1181.820221155173	1
0	4862	1182.394474516896	2
0	4863	1182.756170643691	1
0	4868	1183.940045914607	0
0	4874	1185.03694088858	1
0	4876	1185.411448330206	0
0	4913	1189.042120693349	1
0	4914	1189.441205363134	0
0	4944	1196.248990516703	1
0	4946	1196.944914485542	0
0	4977	1202.257452009177	1
0	4978	1202.565698113117	0
0	5043	1216.737299498309	1
0	5045	1219.066426877587	0
0	5090	1236.992976607855	1
0	5094	1238.677818856251	2
0	5098	1239.602611289507	3
0	5100	1240.532725692974	4
0	5103	1242.921158293129	3
0	5108	1243.106991296355	2
0	5115	1244.53434044509	1
0	5121	1245.643238922549	0
0	5132	1246.521581704461	1
0	5133	1246.882408142245	0
0	5149	1249.579861963875	1
0	5154	1250.167604138275	2
0	5158	1252.854442686031	1
0	5165	1256.255468985249	2
0	5166	1258.911847933869	1
0	5172	1259.241858265372	0
0	5226	1269.673559716282	1
0	5227	1269.848734853443	0
0	5250	1273.895008439184	1
0	5252	1274.186573272798	2
0	5255	1276.049564220878	3
0	5256	1276.908380440333	2
0	5263	1278.724939346413	3
0	5269	1280.630079499138	4
0	5270	1280.713576443007	3
0	5275	1281.626164129966	2
0	5281	1283.410353666203	3
0	5284	1284.042371102904	4
0	5285	1284.491462964978	3
0	5291	1285.833350793366	2
0	5296	1286.012711931154	1
0	5301	1286.829912749497	0
0	5308	1288.677355361559	1
0	5310	1289.795360945129	2
0	5311	1290.361197607837	1
0	5316	1290.482891330688	0
0	5320	1291.333234086906	1
0	5322	1292.332842174249	2
0	5330	1297.216485113197	3
0	5332	1297.577302266081	2
0	5338	1299.912924775938	3
0	5341	1301.886173798276	2
0	5346	1302.573065923104	1
0	5352	1304.018052465939	0
0	5378	1307.586856218203	1
0	5379	1307.940211940019	0
0	5393	1310.837552622491	1
0	5394	1311.097926932604	0
0	5410	1313.980623762799	1
0	5412	1314.738479055859	0
0	5424	1315.943638555807	1
0	5426	1317.262432324781	2
0	5428	1317.796007642965	3
0	5429	1319.848595636835	2
0	5436	1320.582527849242	3
0	5437	1320.796176395963	2
0	5442	1320.875627500868	1
0	5450	1321.21562109018	0
0	5514	1338.34326506881	1
0	5515	1339.055090183385	0
0	5522	1339.652770042497	1
0	5523	1340.979063819613	0
0	5549	1348.014575438025	1
0	5550	1348.032520467417	0
0	5651	1373.060139056371	1
0	5653	1373.377580910166	0
0	5704	1384.364956146045	1
0	5705	1384.728932497205	0
0	5712	1385.883416608779	1
0	5714	1387.083714236766	0
0	5735	1387.852671435924	1
0	5736	1388.873974851262	0
0	5751	1391.252428490781	1
0	5753	1392.356364219245	2
0	5755	1392.663770925301	1
0	5763	1393.428843571869	2
0	5766	1394.899466082418	1
0	5771	1395.001226944668	0
0	5786	1396.978344331393	1
0	5792	1398.00653715345	0
0	5838	1415.106174816057	1
0	5839	1415.239677582696	0
0	5854	1423.356515651188	1
0	5856	1423.61205765684	2
0	5858	1424.285777060413	1
0	5863	1424.31996395281	0
0	5921	1440.333330652895	1
0	5922	1440.565323929388	0
0	5944	1444.208359762442	1
0	5945	1444.767915085307	0
0	5961	1448.237445513862	1
0	5962	1448.318912371873	0
0	6029	1460.616712565916	1
0	6032	1461.513225447296	0
0	6038	1461.690759215134	1
0	6042	1462.927322214093	2
0	6044	1463.354065905745	3
0	6049	1465.557465539308	4
0	6051	1466.062045844946	3
0	6058	1467.845858621528	4
0	6059	1467.859475668408	3
0	6066	1468.486844190859	4
0	6069	1468.94989547065	5
0	6070	1468.959717752874	4
0	6075	1469.031861387296	3
0	6080	1470.346708385331	2
0	6087	1470.390824586434	3
0	6088	1470.643783493098	2
0	6094	1471.596224687124	1
0	6099	1475.301162406013	0
0	6134	1478.52161563717	1
0	6138	1479.815527020399	0
0	6150	1481.303107231069	1
0	6155	1482.907258118991	2
0	6156	1483.808546249349	1
0	6162	1484.679706907824	2
0	6164	1485.067140551516	1
0	6169	1485.152507450161	0
0	6175	1485.67050915874	1
0	6176	1485.707163357997	0
0	6184	1486.658051823554	1
0	6186	1487.15647596845	0
0	6192	1487.691639140852	1
0	6195	1488.996107341393	0
0	6213	1493.953012831326	1
0	6217	1495.558944732814	2
0	6218	1496.134720203434	1
0	6223	1496.21418275056	0
0	6231	1497.069934943271	1
0	6232	1497.235120199608	0
0	6260	1503.245940285459	1
0	6261	1503.949852638612	0
0	6318	1514.71360646224	1
0	6319	1515.895096521835	0
0	6330	1518.827738842508	1
0	6331	1519.218749234429	0
0	6378	1532.890861047503	1
0	6380	1535.308488060528	2
0	6381	1536.407202789907	1
0	6386	1536.446800560203	0
0	6395	1539.673320582511	1
0	6396	1539.938936649933	0
0	6408	1543.154730950921	1
0	6409	1543.236521474471	0
0	6416	1543.847625409062	1
0	6417	1544.216308961387	0
0	6448	1548.296503533184	1
0	6453	1549.567685234838	0
0	6493	1558.204045881869	1
0	6496	1558.934866803674	0
0	6502	1558.999995406069	1
0	6504	1559.581537837555	0
0	6538	1568.151163024194	1
0	6539	1568.273127650068	0
0	6545	1569.021179180544	1
0	6547	1569.385464904134	0
0	6555	1569.804367321902	1
0	6557	1569.839119796154	2
0	6561	1570.083509241896	3
0	6564	1571.461503603657	2
0	6570	1572.683942241958	1
0	6575	1572.780245982915	0
0	6586	1573.849314923336	1
0	6588	1573.964692845497	2
0	6590	1575.12020568177	1
0	6595	1575.57796908107	0
0	6604	1576.545148149521	1
0	6606	1577.324625622535	0
0	6612	1577.823072217605	1
0	6613	1577.968575439591	0
0	6628	1581.175844864218	1
0	6633	1583.702845201576	2
0	6634	1583.919369840946	1
0	6640	1584.234234570845	0
0	6654	1587.562089695175	1
0	6658	1590.333249387412	2
0	6660	1590.783498776767	3
0	6661	1598.431415717948	2
0	6668	1599.126145160186	3
0	6670	1599.473019987403	4
0	6671	1599.984859805571	3
0	6676	1600.865636198807	2
0	6681	1601.090606408616	1
0	6686	1601.402455586283	0
0	6762	1618.587815788387	1
0	6763	1619.169200650868	0
0	6783	1625.554699720685	1
0	6785	1626.057638595055	2
0	6789	1626.2485703176	3
0	6790	1626.436990662508	2
0	6795	1626.697188380389	1
0	6800	1626.757348406711	0
0	6807	1627.785797457238	1
0	6810	1629.711548517332	2
0	6812	1631.108325270622	1
0	6817	1631.121475657937	0
0	6883	1653.227696396813	1
0	6885	1653.809938845753	2
0	6886	1653.868523424564	1
0	6892	1654.175034419578	0
0	6916	1662.501436485654	1
0	6917	1662.592133970436	0
0	6930	1663.551991095777	1
0	6932	1664.47982504624	2
0	6933	1664.489226588189	1
0	6940	1665.138215125479	0
0	6969	1677.477908280797	1
0	6970	1677.862939843239	0
0	7024	1686.087227688862	1
0	7027	1687.256622997331	0
0	7040	1689.171462603701	1
0	7042	1689.697900147165	0
0	7049	1690.862679183406	1
0	7051	1693.711043591897	2
0	7052	1694.988523482088	1
0	7057	1695.691707955487	0
0	7061	1697.330229215518	1
0	7063	1698.062584355957	2
0	7068	1699.480863754334	1
0	7073	1701.429268912031	0
0	7081	1703.070911345167	1
0	7082	1703.668696342594	0
0	7093	1704.589413879249	1
0	7094	1705.106205409557	0
0	7100	1705.151688094061	1
0	7102	1705.83782858301	2
0	7105	1706.641560342944	3
0	7107	1707.898348597431	4
0	7113	1709.07418971907	3
0	7121	1711.598356677846	4
0	7122	1713.580480979607	3
0	7128	1714.19196913993	4
0	7129	1715.171646849635	3
0	7134	1715.264813016551	2
0	7141	1718.149476932193	1
0	7148	1720.374460743983	0
0	7179	1724.239734049937	1
0	7180	1724.25148848164	0
0	7204	1730.329796318837	1
0	7208	1731.511641170714	2
0	7210	1733.836796061463	3
0	7212	1734.109562928675	4
0	7213	1734.764296068571	3
0	7218	1735.583386235358	2
0	7225	1736.172327119511	3
0	7227	1736.187105396324	4
0	7230	1738.753435517172	3
0	7236	1738.886465066984	4
0	7238	1739.248806937931	5
0	7240	1739.980244775499	6
0	7242	1742.828560836523	5
0	7248	1742.904253491847	6
0	7249	1743.785346460331	5
0	7255	1744.655775554502	6
0	7257	1745.80536894264	5
0	7262	1746.110122951584	4
0	7268	1746.765542327673	3
0	7273	1747.101214049997	2
0	7281	1747.952698484944	3
0	7285	1748.411849177307	4
0	7286	1748.540564312374	3
0	7294	1749.806565842169	4
0	7295	1750.033831338433	3
0	7301	1750.199050834246	4
0	7302	1750.332277716442	3
0	7306	1750.588613689941	4
0	7311	1751.046033201609	3
0	7317	1751.158627370292	4
0	7318	1752.069750850152	3
0	7323	1752.073489094167	2
0	7328	1752.89378635343	1
0	7333	1753.43126068686	0
0	7340	1754.314612257273	1
0	7341	1755.183190671458	0
0	7345	1757.303713162885	1
0	7347	1757.36961855637	2
0	7353	1760.272066158637	3
0	7354	1761.017687406804	2
0	7360	1762.12455238677	1
0	7367	1762.867171851227	2
0	7369	1763.054192175811	3
0	7370	1763.137665540264	2
0	7375	1763.216160444422	1
0	7380	1764.392122862829	0
0	7384	1764.480780788158	1
0	7387	1765.34815224909	0
0	7393	1766.806397350158	1
0	7395	1767.873327237131	0
0	7409	1768.956642768457	1
0	7411	1769.640160203144	0
0	7417	1769.883837459159	1
0	7418	1769.934821373267	0
0	7478	1788.382916696526	1
0	7479	1788.56334345294	0
0	7495	1790.315868613811	1
0	7498	1792.380578872967	0
0	7515	1795.632539037247	1
0	7518	1796.816183559786	2
0	7520	1797.030961194626	3
0	7521	1797.966844288488	2
0	7526	1798.09922797707	1
0	7532	1798.111936521491	2
0	7536	1800.343695835392	1
0	7542	1802.880950276401	0
0	7554	1804.093795496559	1
0	7556	1806.992870902207	0
0	7578	1808.715091231811	1
0	7579	1808.832850928953	0
0	7620	1821.403415398094	1
0	7621	1822.748134953055	0
0	7675	1836.399283463518	1
0	7680	1837.924986383305	0
0	7689	1838.345046728395	1
0	7690	1840.530327703347	0
0	7732	1844.251320857136	1
0	7733	1844.877669883672	0
0	7772	1859.425428684589	1
0	7777	1861.230517570229	2
0	7779	1861.29557287091	3
0	7784	1864.036590379466	2
0	7792	1866.176070773518	1
0	7797	1866.186080544663	0
0	7828	1871.581967585809	1
0	7829	1871.930092330525	0
0	7842	1873.85815268899	1
0	7843	1874.106319435892	0
0	7897	1885.697174150708	1
0	7898	1885.931766199588	0
0	7906	1886.619474009967	1
0	7910	1887.545374696424	0
0	7935	1894.353111548329	1
0	7937	1894.704373688351	2
0	7938	1895.833110426652	1
0	7943	1896.051489166696	0
0	7988	1909.484786664486	1
0	7991	1910.436910948386	0
0	8008	1911.808048217193	1
0	8009	1911.874299798637	0
0	8030	1914.297985091298	1
0	8032	1914.400438824858	0
0	8048	1915.735786962051	1
0	8050	1917.223967561344	0
0	8063	1919.072280450841	1
0	8064	1919.207570211188	0
0	8086	1923.050363867498	1
0	8089	1923.893843244261	2
0	8090	1924.55452707704	1
0	8097	1925.312913074236	0
0	8108	1925.498844606784	1
0	8110	1925.640988283945	2
0	8111	1925.765842419825	1
0	8121	1926.774107569286	2
0	8125	1927.288022848656	3
0	8126	1927.443419875515	2
0	8131	1927.648623117995	1
0	8137	1928.44962989807	2
0	8138	1928.602162784949	1
0	8143	1928.743723294532	0
0	8147	1929.889414445645	1
0	8154	1931.863218954954	0
0	8166	1934.252731168477	1
0	8171	1935.878240529445	2
0	8174	1937.900148877853	1
0	8180	1937.994736036417	2
0	8184	1939.104588857701	3
0	8187	1939.213444355357	4
0	8188	1939.467197061292	3
0	8194	1940.177545797084	2
0	8200	1942.450369305277	1
0	8208	1942.636176868776	2
0	8209	1944.197858104082	1
0	8215	1944.420694036744	2
0	8219	1945.613297145172	1
0	8225	1946.8970459393	0
0	8232	1948.016377539423	1
0	8235	1948.74468464775	0
0	8267	1958.507930947852	1
0	8270	1959.78014263857	0
0	8287	1963.226400313338	1
0	8291	1964.268348785898	2
0	8292	1965.993473980792	1
0	8299	1966.351917021496	0
0	8317	1973.186811510245	1
0	8320	1973.660998359088	0
0	8326	1974.587049896546	1
0	8328	1975.478377844188	0
0	8371	1990.741511430948	1
0	8373	1990.78536070074	2
0	8377	1994.478266838696	1
0	8382	1995.24168345628	0
0	8409	2000.443198705707	1
0	8411	2000.492087314624	2
0	8415	2001.215110533295	3
0	8417	2003.042048705118	2
0	8422	2003.201515504433	1
0	8427	2004.168307847448	0
0	8456	2009.402723149756	1
0	8462	2013.52123739903	2
0	8464	2013.662382796955	1
0	8470	2015.19735148423	0
0	8477	2015.80902268872	1
0	8478	2016.095314791956	0
0	8490	2017.082759738247	1
0	8491	2017.139646818345	0
0	8505	2019.3358641686	1
0	8511	2022.496076739487	0
0	8525	2023.322547003979	1
0	8527	2023.435842956821	2
0	8528	2025.113926273351	1
0	8534	2025.690451746949	0
0	8618	2048.211091257022	1
0	8619	2049.233668324001	0
0	8626	2049.912903995146	1
0	8628	2050.229725751134	2
0	8630	2050.261132181028	3
0	8631	2051.047745980513	2
0	8638	2051.904778013767	1
0	8644	2052.197421837118	0
0	8693	2065.969712771862	1
0	8694	2065.981733387262	0
0	8724	2073.771860749993	1
0	8725	2073.841974087906	0
0	8739	2075.976240656245	1
0	8741	2076.17871183629	2
0	8744	2077.639731449873	1
0	8749	2078.330606394086	0
0	8767	2081.740965937371	1
0	8769	2081.783615115325	2
0	8770	2084.80516450109	1
0	8776	2085.321438763759	0
0	8804	2091.492978782352	1
0	8806	2092.511926307985	0
0	8820	2096.258658629244	1
0	8822	2096.680807479859	2
0	8823	2096.985297558508	1
0	8830	2097.577565062947	0
0	8871	2102.802871780747	1
0	8874	2103.429550363726	0
0	8880	2103.81022491642	1
0	8881	2104.37904628308	0
0	8938	2130.716838073984	1
0	8940	2132.542001173597	2
0	8943	2133.672904797836	1
0	8948	2133.706428846202	0
0	8962	2135.064622598506	1
0	8964	2135.771426463457	2
0	8969	2136.416699113101	3
0	8972	2136.966031909296	4
0	8973	2138.373633718468	3
0	8978	2139.643374721073	2
0	8984	2140.365032400377	1
0	8990	2141.354127062535	2
0	8992	2143.120369677459	1
0	8998	2144.136565250524	2
0	8999	2144.977513050252	1
0	9004	2145.433902580236	0
0	9016	2146.025356696725	1
0	9017	2146.242675956224	0
0	9035	2154.959692779936	1
0	9037	2155.929390739259	2
0	9038	2156.577950958392	1
0	9043	2156.944164394283	0
0	9114	2179.262906833499	1
0	9116	2179.720376046987	2
0	9119	2182.530679336671	1
0	9128	2183.482002834795	2
0	9133	2185.86234764126	1
0	9139	2185.9734615	2
0	9141	2186.197861556563	3
0	9142	2186.296367796805	2
0	9150	2186.666061283333	3
0	9151	2186.76529305955	2
0	9157	2186.920842052586	3
0	9161	2188.292405861322	2
0	9166	2188.397894209847	1
0	9171	2188.511099926758	0
0	9187	2190.800583171256	1
0	9191	2191.882288676675	0
0	9195	2192.355335083696	1
0	9201	2193.405977541225	2
0	9210	2193.876994990318	3
0	9211	2194.186428329285	2
0	9219	2197.647688807635	1
0	9224	2197.911448041386	0
0	9242	2199.453398340417	1
0	9244	2199.978993019088	0
0	9292	2206.576721294594	1
0	9293	2207.322873734777	0
0	9300	2208.454613463502	1
0	9301	2210.168431022893	0
0	9315	2211.474142394599	1
0	9319	2212.081845785016	2
0	9320	2212.184055807109	1
0	9329	2212.961737829197	2
0	9332	2214.706277214343	1
0	9341	2220.252161236142	2
0	9342	2220.348295575394	1
0	9348	2220.701057685518	0
0	9364	2221.394352700293	1
0	9366	2221.614583964431	2
0	9369	2222.116655550275	3
0	9372	2222.412192205956	2
0	9379	2223.867800775339	1
0	9385	2223.992871499402	2
0	9387	2224.056159876311	3
0	9389	2224.214611592235	2
0	9394	2224.58277133519	1
0	9399	2224.980050537559	0
0	9405	2225.943528777547	1
0	9410	2226.913148004229	2
0	9411	2226.972705360255	1
0	9418	2228.450111679743	0
0	9430	2230.748432200007	1
0	9433	2230.986636093135	0
0	9452	2232.464822781722	1
0	9454	2233.318526953073	2
0	9455	2233.388413909051	1
0	9462	2235.131848312731	0
0	9477	2241.034792751124	1
0	9478	2242.641088041786	0
0	9493	2247.745621928098	1
0	9495	2248.22178824714	0
0	9518	2251.875269443669	1
0	9521	2254.216459881131	2
0	9524	2255.652617749589	1
0	9529	2256.644077293801	0
0	9555	2260.006283280316	1
0	9556	2260.184362591072	0
0	9569	2260.407434998358	1
0	9575	2262.952580314704	2
0	9578	2263.917034230569	3
0	9579	2264.198293367049	2
0	9584	2264.794457089657	1
0	9591	2265.697771538154	2
0	9592	2266.867974241784	1
0	9596	2267.301719496104	2
0	9606	2268.598699780685	3
0	9607	2269.097390311135	2
0	9614	2270.211084532501	3
0	9615	2270.446830938782	2
0	9620	2271.154376613771	1
0	9625	2271.623097770015	0
0	9631	2274.588332133697	1
0	9634	2275.500934926199	0
0	9641	2276.905894487752	1
0	9642	2277.039928009162	0
0	9667	2281.712055823929	1
0	9670	2282.639485793199	0
0	9687	2286.743960042337	1
0	9688	2286.936570745168	0
0	9694	2286.962132910256	1
0	9698	2289.321406148093	0
0	9712	2292.29439024118	1
0	9713	2292.72362263353	0
0	9719	2292.971977122452	1
0	9722	2293.493346615478	2
0	9724	2295.418165950972	1
0	9730	2296.044249422604	2
0	9731	2296.335976925014	1
0	9737	2297.08291524272	0
0	9755	2298.797076818008	1
0	9760	2299.960851506711	2
0	9762	2302.470549067866	1
0	9767	2303.909791223309	0
0	9774	2304.141885203882	1
0	9775	2304.148392480073	0
0	9792	2305.352262304948	1
0	9795	2306.923882123522	0
0	9801	2306.962264211668	1
0	9802	2307.002320505621	0
0	9809	2307.340770519093	1
0	9811	2307.743754198568	2
0	9814	2308.305951503644	3
0	9816	2308.810282986689	2
0	9822	2310.258571681106	1
0	9829	2311.748672100675	0
0	9850	2317.863977168465	1
0	9851	2317.921348069604	0
0	9859	2319.822918573225	1
0	9862	2322.298756519502	0
0	9883	2327.748686344458	1
0	9884	2327.800782367663	0
0	9908	2334.504770567823	1
0	9910	2335.86517764017	0
0	9932	2341.167658206281	1
0	9934	2343.589905349368	2
0	9935	2343.814962562523	1
0	9942	2344.458227560326	0
0	9960	2346.885124692623	1
0	9961	2347.341708629015	0
0	10026	2359.994588472841	1
0	10027	2361.104145109703	0
0	10033	2361.144620422029	1
0	10034	2361.198120626062	0
0	10092	2375.978714626197	1
0	10093	2376.081450066349	0
0	10115	2377.797921716672	1
0	10116	2377.942557573424	0
0	10145	2385.413989061028	1
0	10146	2386.443081665967	0
0	10176	2399.098576175986	1
0	10177	2400.486154733311	0
0	10204	2407.525653428481	1
0	10206	2408.297909190344	2
0	10208	2410.198521173018	3
0	10212	2411.203997060063	2
0	10218	2411.689264482032	3
0	10222	2412.586496902827	2
0	10228	2413.412088028248	1
0	10236	2415.233050200979	0
0	10279	2429.665922809129	1
0	10281	2429.906930437021	2
0	10282	2430.162304395731	1
0	10288	2430.509304872146	2
0	10292	2431.578719855867	1
0	10299	2432.879656366945	2
0	10300	2433.337440181086	1
0	10306	2435.758223117736	0
0	10329	2436.915109262068	1
0	10332	2439.858922614057	0
0	10393	2455.182168822642	1
0	10395	2456.678117316066	2
0	10396	2457.288341307601	1
0	10401	2457.933776080768	0
0	10439	2462.910673072949	1
0	10442	2463.241592837334	0
0	10450	2463.878420362311	1
0	10452	2464.005234410625	2
0	10454	2464.265644053211	3
0	10456	2464.523439300387	2
0	10462	2464.582138422883	3
0	10463	2464.85710216338	2
0	10470	2466.262668977656	1
0	10475	2466.53973159698	0
0	10486	2468.372115546029	1
0	10488	2468.880739697313	2
0	10490	2468.941147807124	3
0	10493	2470.448431148652	2
0	10500	2473.88501784231	1
0	10506	2474.003936157122	2
0	10508	2474.287671283772	1
0	10514	2474.42523189922	2
0	10518	2476.277633509292	1
0	10523	2476.648868408352	0
0	10531	2477.590788700373	1
0	10535	2479.084246099978	2
0	10537	2480.247914427829	1
0	10543	2480.483010027959	2
0	10544	2480.82517347734	1
0	10549	2481.685640050691	0
0	10590	2488.285962613737	1
0	10592	2488.80934899915	2
0	10594	2488.989335011223	3
0	10595	2489.538025347858	2
0	10600	2489.759669870347	1
0	10605	2491.290401255591	0
0	10618	2492.193775604999	1
0	10622	2492.239486737429	2
0	10625	2492.458066475524	1
0	10631	2493.006476897743	2
0	10632	2493.014275062864	1
0	10637	2493.493503241417	0
0	10653	2498.138686395273	1
0	10657	2499.408120051985	0
0	10665	2502.890378296365	1
0	10669	2505.001985257801	2
0	10672	2507.049975004937	3
0	10674	2508.202499401661	2
0	10679	2508.219852717483	1
0	10684	2508.39384230728	0
0	10692	2510.762101510253	1
0	10698	2514.546469419725	2
0	10699	2514.983923845542	1
0	10710	2516.825018475108	2
0	10713	2518.942445068533	3
0	10714	2519.311196805855	2
0	10719	2519.530375400976	1
0	10728	2524.030646108199	0
0	10748	2525.353107700292	1
0	10750	2525.905550471486	2
0	10754	2529.594109731962	1
0	10760	2530.346516976027	2
0	10762	2530.454615684872	3
0	10763	2530.646112703933	2
0	10768	2531.143523390246	1
0	10773	2531.785089805751	0
0	10779	2532.523403343907	1
0	10784	2535.127239955686	0
0	10795	2535.729234730424	1
0	10797	2537.270094741792	2
0	10798	2537.755082220374	1
0	10804	2538.48956368664	0
0	10818	2541.003784983751	1
0	10820	2541.650238022569	0
0	10841	2543.804716635036	1
0	10842	2543.944131151121	0
0	10885	2554.486815070053	1
0	10886	2555.223294482608	0
0	10894	2556.18893484476	1
0	10896	2556.986027996425	0
0	10908	2559.461123107029	1
0	10914	2567.491645172345	2
0	10917	2568.750958364543	1
0	10926	2569.627293016184	2
0	10928	2569.819474896312	3
0	10929	2570.875371624861	2
0	10935	2572.848625874617	1
0	10941	2573.135551270153	0
0	10950	2574.166030728666	1
0	10951	2574.181750688804	0
0	10969	2575.486783152792	1
0	10970	2575.557444178695	0
0	10976	2576.059615839068	1
0	10978	2576.83734397315	0
0	11001	2579.016205528514	1
0	11002	2579.464730899378	0
0	11029	2585.508537269961	1
0	11030	2586.070386881038	0
0	11044	2588.057363184735	1
0	11046	2588.52500127924	2
0	11050	2590.031905712438	1
0	11056	2590.304509473393	0
0	11097	2603.371442712336	1
0	11099	2604.323699282135	0
0	11121	2610.540350883319	1
0	11123	2610.791049506913	2
0	11124	2612.935232801377	1
0	11129	2613.029091160812	0
0	11176	2620.647792401978	1
0	11177	2621.132283498429	0
0	11186	2622.573920990553	1
0	11189	2624.926744677249	0
0	11198	2626.111570252126	1
0	11200	2626.644807273526	2
0	11201	2626.882394272031	1
0	11208	2627.276501510584	2
0	11210	2629.55376304423	3
0	11212	2629.596725181233	4
0	11215	2631.823677340662	3
0	11221	2632.570390127918	2
0	11226	2632.693234941383	1
0	11231	2632.771427625442	0
0	11276	2639.405331204596	1
0	11280	2641.420805932745	0
0	11287	2642.168958560089	1
0	11290	2644.070343999779	0
0	11321	2650.828179074806	1
0	11323	2651.035451897967	2
0	11324	2651.21120684577	1
0	11337	2655.140447095791	2
0	11338	2655.849853122199	1
0	11345	2658.024018760183	2
0	11346	2658.280244032694	1
0	11352	2660.554026513381	0
0	11377	2664.222570283464	1
0	11381	2665.322189378796	2
0	11385	2665.716631730197	1
0	11393	2667.270862582287	0
0	11400	2667.575965413713	1
0	11401	2668.000759611958	0
0	11413	2671.479961013239	1
0	11418	2672.735395348081	0
0	11424	2672.77267358117	1
0	11427	2674.129387071083	2
0	11428	2675.378856629664	1
0	11433	2675.459308859187	0
0	11442	2677.83909807198	1
0	11443	2677.928191479339	0
0	11477	2684.337030806818	1
0	11479	2685.55066556421	2
0	11480	2685.585244874746	1
0	11486	2685.810886591715	0
0	11499	2687.198256019291	1
0	11502	2688.699836235628	0
0	11510	2690.186783665927	1
0	11511	2690.540659669335	0
0	11518	2691.282520186419	1
0	11519	2691.453540117255	0
0	11531	2693.916685558231	1
0	11534	2699.660371865409	0
0	11546	2702.92495331503	1
0	11548	2703.13224381756	2
0	11550	2703.399981475612	3
0	11551	2704.095792674379	2
0	11556	2704.786549557757	1
0	11564	2709.011231578198	0
0	11584	2712.505755418632	1
0	11589	2714.154151010698	0
0	11596	2715.20316920646	1
0	11597	2717.986449767327	0
0	11604	2718.583498897152	1
0	11605	2719.487306413998	0
0	11611	2719.840289928614	1
0	11612	2720.151687494271	0
0	11621	2722.898852382572	1
0	11623	2723.771260672601	2
0	11627	2725.731000061841	1
0	11632	2725.835562107085	0
0	11670	2738.559511637144	1
0	11671	2738.652021127017	0
0	11730	2752.88214759273	1
0	11732	2753.131523635089	2
0	11734	2753.280721309412	3
0	11735	2753.490286051593	2
0	11740	2754.070634462428	1
0	11746	2754.156593595981	2
0	11748	2754.281882345857	1
0	11753	2754.430262273323	0
0	11804	2772.268860738677	1
0	11806	2773.11404247616	2
0	11808	2774.822434711634	3
0	11810	2774.923478325891	4
0	11814	2777.897837677706	5
0	11816	2779.070302598046	6
0	11817	2779.863347879994	5
0	11823	2781.493528141674	4
0	11832	2783.990106472383	3
0	11843	2787.58612507121	2
0	11849	2787.984458614809	1
0	11854	2789.113051711071	0
0	11884	2794.086822920937	1
0	11885	2795.414569427517	0
0	11907	2798.89798970135	1
0	11908	2799.61948207105	0
0	11914	2800.182253608961	1
0	11915	2800.346549987048	0
0	11926	2801.222134542735	1
0	11928	2801.312523682664	2
0	11930	2801.61898609689	3
0	11934	2802.394588119315	2
0	11939	2802.866931824991	1
0	11944	2803.516999163465	0
0	11964	2808.431653866843	1
0	11966	2808.472374609074	0
0	11981	2813.461714464483	1
0	11982	2813.664763397789	0
0	11988	2814.500229928102	1
0	11992	2815.741737794511	0
0	11996	2815.906386348016	1
0	11998	2816.03124916061	2
0	12003	2817.478607928179	1
0	12008	2817.772293371183	0
0	12094	2835.360756625709	1
0	12095	2835.689349410874	0
0	12129	2846.227732555793	1
0	12131	2846.28390790264	2
0	12132	2848.512925570903	1
0	12140	2849.609194464548	0
0	12146	2850.148586250523	1
0	12147	2850.319934746576	0
0	12179	2857.42751827026	1
0	12181	2857.595395631922	2
0	12184	2858.641055900069	1
0	12190	2859.290475301658	0
0	12202	2860.104994232184	1
0	12203	2860.166391706328	0
0	12215	2861.195803793157	1
0	12217	2861.606036547117	2
0	12219	2862.858439317009	1
0	12224	2863.462711463585	0
0	12272	2875.585577679429	1
0	12274	2875.763863550438	2
0	12275	2876.055325931694	1
0	12281	2876.291928875414	0
0	12288	2876.549809303287	1
0	12289	2877.166776617183	0
0	12299	2879.052558471739	1
0	12300	2879.227723274478	0
0	12306	2879.339258427217	1
0	12310	2880.611217644117	0
0	12318	2882.295994154714	1
0	12319	2883.542253911408	0
0	12336	2884.84254661958	1
0	12338	2888.531654046033	2
0	12339	2889.206461047572	1
0	12347	2890.840643934753	0
0	12359	2892.395137961711	1
0	12362	2892.59079056976	2
0	12366	2894.963799397473	1
0	12375	2898.037573312688	0
0	12401	2904.418963423484	1
0	12403	2904.592123993124	2
0	12406	2905.649930539863	1
0	12411	2906.213949633347	0
0	12446	2916.018308892673	1
0	12448	2916.874910967865	0
0	12516	2928.658252896291	1
0	12517	2930.254783830575	0
0	12538	2932.037780973528	1
0	12539	2932.496685846555	0
0	12548	2934.609849403761	1
0	12552	2935.536052127457	0
0	12595	2943.586973053269	1
0	12596	2944.324380711214	0
0	12602	2945.15162511285	1
0	12607	2946.648372815342	2
0	12611	2947.219707637129	1
0	12618	2947.434208274701	2
0	12619	2948.708196914209	1
0	12625	2948.716077801048	2
0	12627	2949.550350708632	3
0	12628	2950.104290483974	2
0	12633	2950.515173581515	1
0	12638	2950.945637086767	0
0	12650	2951.733613438853	1
0	12652	2952.014776121415	2
0	12656	2953.047402746991	1
0	12663	2953.576347231518	2
0	12667	2956.038095296032	1
0	12672	2956.163252023285	0
0	12678	2957.473465178703	1
0	12679	2959.62872551133	0
0	12686	2959.912129343125	1
0	12687	2960.568956770858	0
0	12711	2970.217260568606	1
0	12717	2971.669976091666	2
0	12719	2977.077970936291	1
0	12728	2979.242825091872	0
0	12772	2989.383610724531	1
0	12776	2993.034151402758	2
0	12779	2993.814339670612	1
0	12784	2993.817221833159	0
0	12840	3009.167541478256	1
0	12841	3009.526930330133	0
0	12905	3022.041967814913	1
0	12906	3022.981117376719	0
0	12921	3027.098963473867	1
0	12922	3027.323395392478	0
0	12958	3039.346261564137	1
0	12960	3040.168585312798	2
0	12961	3040.494088954719	1
0	12968	3041.879088922579	2
0	12969	3042.072757449795	1
0	12975	3042.378765443448	2
0	12976	3042.654794341285	1
0	12983	3044.223475316182	0
0	13028	3052.511161754962	1
0	13031	3053.308740799632	2
0	13032	3053.493411110904	1
0	13037	3054.057032835909	0
0	13046	3056.56562526455	1
0	13048	3056.76052425411	2
0	13050	3056.904882120764	3
0	13052	3058.532861892017	2
0	13057	3058.988255312253	1
0	13063	3059.471648068878	2
0	13064	3060.735684001734	1
0	13070	3061.122257549032	0
0	13091	3062.471450188744	1
0	13093	3063.106184128697	0
0	13119	3066.029136671828	1
0	13121	3066.64141907764	2
0	13123	3066.68053253812	3
0	13126	3067.506443464496	2
0	13135	3068.645885233722	3
0	13136	3068.700954940056	2
0	13146	3071.438461816471	1
0	13152	3071.717156270728	0
0	13158	3072.262063225081	1
0	13159	3072.599517263533	0
0	13179	3075.030616508905	1
0	13181	3075.41486938061	2
0	13190	3077.96047885718	1
0	13195	3080.735625825913	0
0	13206	3083.867525403263	1
0	13208	3084.906374907547	0
0	13237	3087.833158986675	1
0	13238	3088.508786066068	0
0	13258	3093.36409069878	1
0	13262	3097.158293455707	2
0	13265	3098.516739040984	1
0	13273	3100.686681758143	0
0	13293	3103.898676555508	1
0	13297	3107.267319482275	0
0	13318	3109.88450389093	1
0	13319	3109.994893520799	0
0	13333	3112.158733787176	1
0	13334	3112.35029046423	0
0	13372	3120.20345010219	1
0	13373	3120.667783507569	0
0	13420	3133.073377030886	1
0	13424	3135.109184873709	0
0	13436	3136.789026062202	1
0	13438	3138.616692929151	2
0	13439	3139.002398851831	1
0	13444	3139.314989384319	0
0	13461	3142.425488085426	1
0	13465	3144.500589653986	2
0	13467	3144.98158782124	3
0	13470	3145.814693649913	2
0	13477	3147.148994102025	1
0	13485	3147.894175059025	2
0	13491	3149.196551091384	3
0	13494	3149.853940818779	4
0	13496	3150.225491264724	3
0	13503	3151.961505916402	2
0	13508	3152.018985113014	1
0	13514	3152.075820728959	2
0	13515	3152.076164579473	1
0	13520	3152.526536896958	0
0	13550	3159.776156912082	1
0	13553	3160.027182232938	0
0	13583	3166.553826788411	1
0	13585	3167.103882294189	2
0	13586	3167.694531588923	1
0	13591	3167.801832608894	0
0	13604	3169.574432446448	1
0	13606	3170.275569672976	2
0	13608	3170.477958305022	3
0	13609	3170.686338987309	2
0	13615	3170.75076951905	3
0	13616	3170.923584479902	2
0	13621	3171.120657029998	1
0	13627	3172.382140220555	0
0	13659	3178.616631032587	1
0	13661	3180.927455566397	2
0	13668	3182.900307696049	1
0	13676	3184.446605590234	0
0	13689	3186.098876892815	1
0	13692	3187.6513803586	2
0	13693	3188.267746393605	1
0	13701	3190.298820392345	0
0	13720	3193.043153357059	1
0	13722	3193.43773740114	2
0	13723	3194.309289664461	1
0	13731	3197.878258371705	2
0	13732	3198.116851823639	1
0	13740	3198.835571323286	0
0	13747	3199.520980683083	1
0	13748	3199.644298081648	0
0	13787	3213.166206960221	1
0	13788	3213.632082167865	0
0	13809	3217.224693984199	1
0	13814	3218.406574094602	0
0	13827	3220.497456219656	1
0	13828	3221.050417924805	0
0	13868	3232.870359084931	1
0	13870	3234.165964221346	2
0	13875	3239.179636562822	1
0	13881	3239.949891204734	0
0	13914	3244.214725626311	1
0	13915	3245.366965120392	0
0	13941	3252.6683663482	1
0	13942	3253.209926137459	0
0	13961	3260.572640830618	1
0	13962	3263.254151661685	0
0	13975	3265.023928884409	1
0	13978	3265.229871433534	2
0	13979	3265.382390608555	1
0	13989	3268.139300134521	2
0	13990	3269.649176564364	1
0	13995	3270.609914785741	0
0	14009	3272.612032521809	1
0	14011	3272.83497464024	2
0	14014	3273.676350504942	1
0	14023	3277.136778051637	0
0	14039	3278.133326559509	1
0	14040	3279.931620754423	0
0	14085	3286.282027963594	1
0	14086	3286.373339453374	0
0	14112	3290.723261453071	1
0	14117	3292.464806798733	0
0	14125	3294.759680442934	1
0	14128	3296.324996655957	2
0	14129	3297.239145433112	1
0	14136	3298.190682593943	0
0	14147	3298.676330333197	1
0	14148	3298.799699789144	0
0	14161	3302.517403477105	1
0	14162	3302.76474538526	0
0	14179	3306.871290130459	1
0	14183	3310.014935352718	2
0	14184	3310.328596144576	1
0	14190	3310.430166652646	2
0	14194	3313.69391817631	1
0	14203	3315.58291469267	0
0	14221	3324.516350649129	1
0	14225	3326.376868029174	2
0	14226	3328.751866601574	1
0	14231	3329.295106544675	0
0	14248	3335.26715500717	1
0	14250	3335.340305398802	2
0	14251	3335.817102771119	1
0	14256	3336.233594291834	0
0	14262	3336.415819079215	1
0	14263	3336.590314816024	0
0	14269	3337.486984857288	1
0	14271	3338.165344277105	0
0	14296	3341.383947602987	1
0	14299	3342.406828634585	0
0	14329	3352.000693314618	1
0	14330	3352.48314100848	0
0	14339	3352.858269297323	1
0	14341	3355.551540825703	2
0	14343	3355.989002706365	3
0	14347	3357.515547638138	2
0	14353	3357.815618449377	1
0	14358	3358.164635246037	0
0	14416	3369.262184332451	1
0	14418	3370.610388510944	0
0	14465	3385.818946567735	1
0	14466	3386.0961209155	0
0	14472	3386.169919911214	1
0	14475	3386.944058362353	2
0	14476	3386.993149914437	1
0	14481	3387.074798562085	0
0	14488	3387.370330880479	1
0	14490	3387.701243266321	2
0	14491	3388.290460857827	1
0	14497	3388.705102595482	2
0	14499	3389.570490589113	3
0	14501	3389.81785312531	4
0	14504	3392.520485946311	3
0	14510	3392.848093610853	4
0	14511	3394.047654613442	3
0	14518	3395.363338106723	2
0	14523	3398.179041629921	1
0	14527	3398.440439773094	2
0	14530	3399.438001491215	1
0	14534	3399.750422955739	2
0	14536	3400.583062772467	3
0	14539	3401.750076842492	2
0	14544	3403.743474768239	1
0	14548	3403.855397873443	2
0	14551	3404.105579615785	1
0	14559	3405.598148186559	2
0	14560	3405.74687774949	1
0	14564	3408.092803515808	2
0	14566	3408.331675318489	3
0	14574	3410.689057605606	2
0	14579	3411.22973141396	1
0	14584	3411.418597229397	0
0	14614	3417.11769362328	1
0	14615	3417.238176078674	0
0	14645	3420.643978359492	1
0	14650	3421.350897359495	0
0	14666	3426.671740503951	1
0	14667	3427.308460044703	0
0	14689	3431.713729504361	1
0	14691	3432.732978339437	2
0	14699	3438.226822209625	3
0	14701	3438.813559384688	2
0	14706	3440.497671903713	1
0	14711	3442.094072988058	0
0	14802	3476.292967239221	1
0	14806	3477.338051146896	2
0	14807	3478.067777013761	1
0	14817	3478.876787984317	2
0	14821	3481.11422740984	3
0	14827	3483.321913669407	2
0	14832	3483.857520710103	1
0	14842	3485.40876129076	2
0	14844	3485.866093605614	3
0	14845	3485.932757017237	2
0	14853	3487.47907420347	1
0	14859	3487.57957580226	2
0	14861	3489.29558129239	1
0	14868	3490.36324818632	2
0	14871	3490.820677897992	1
0	14877	3491.729380405955	0
0	14910	3500.071775726151	1
0	14912	3500.16304460915	2
0	14919	3501.613547015458	1
0	14924	3502.519280945489	0
0	14935	3503.381018772279	1
0	14939	3505.068022346192	0
0	14951	3505.803187495844	1
0	14953	3506.239517489744	2
0	14954	3506.631677036091	1
0	14960	3506.863689334249	0
0	14971	3507.247385613738	1
0	14977	3510.427469752677	0
0	15003	3515.556701023001	1
0	15009	3518.279441488989	2
0	15011	3522.23747086688	1
0	15018	3523.31838338346	2
0	15019	3525.470377135132	1
0	15025	3528.909975351073	0
0	15045	3534.518815435017	1
0	15046	3535.335511074856	0
0	15080	3538.474475895801	1
0	15082	3539.371727050857	2
0	15083	3539.397281396632	1
0	15089	3540.067051495832	2
0	15091	3540.280658047139	1
0	15096	3540.35426439363	0
0	15114	3541.064453981083	1
0	15115	3541.368984547152	0
0	15128	3542.769412343791	1
0	15129	3543.302961678403	0
0	15135	3543.999999518747	1
0	15137	3544.543157275927	0
0	15150	3548.11361673366	1
0	15151	3548.243731990408	0
0	15170	3557.345083891533	1
0	15173	3561.783691224194	0
0	15196	3566.410007292767	1
0	15197	3566.747370309124	0
0	15259	3579.617395297599	1
0	15260	3580.08240394197	0
0	15272	3587.793487434655	1
0	15274	3588.889857792001	2
0	15277	3592.03688530808	1
0	15286	3592.779088743134	2
0	15287	3594.281873955121	1
0	15293	3595.011213302161	0
0	15336	3615.699312357542	1
0	15338	3617.584657471212	2
0	15339	3620.038685836088	1
0	15344	3621.170466795206	0
0	15386	3629.602689449381	1
0	15387	3629.708670772943	0
0	15395	3631.407499459373	1
0	15397	3633.702460094839	2
0	15398	3635.339629239423	1
0	15404	3635.930981567231	0
0	15433	3644.459255016793	1
0	15434	3644.607994589735	0
0	15457	3648.786218528792	1
0	15458	3649.059866971191	0
0	15500	3655.026594386368	1
0	15503	3655.476901455435	0
0	15542	3661.537238188516	1
0	15545	3662.133881607014	2
0	15546	3662.519625292768	1
0	15552	3663.534093790187	0
0	15558	3664.243439647452	1
0	15561	3665.4841392941	2
0	15563	3665.861791301645	1
0	15569	3666.433035199274	2
0	15572	3668.121239255958	1
0	15577	3668.376423530038	0
0	15584	3669.474849145697	1
0	15586	3669.51387512814	2
0	15587	3670.867195934179	1
0	15593	3671.306921563582	2
0	15598	3672.092074026468	3
0	15600	3672.5407725007	2
0	15606	3673.074260446413	1
0	15612	3673.674961464752	2
0	15616	3676.225199002662	1
0	15622	3676.255447487215	2
0	15624	3676.299465249929	3
0	15627	3676.640257407668	4
0	15630	3678.471741258488	3
0	15636	3679.091722683636	4
0	15637	3679.197908697627	3
0	15643	3679.99274228653	2
0	15649	3682.995300243332	1
0	15654	3683.105492222124	0
0	15669	3684.007264068854	1
0	15670	3684.604557467389	0
0	15684	3687.131471956643	1
0	15687	3688.282621399267	2
0	15689	3688.886448952446	3
0	15691	3689.530495219571	2
0	15696	3690.222375149037	1
0	15703	3691.868769761174	2
0	15706	3693.267833311163	1
0	15711	3693.497736558919	0
0	15732	3698.91674572082	1
0	15734	3698.966273981783	2
0	15739	3701.814942911304	1
0	15745	3702.678303833636	0
0	15764	3704.821642703298	1
0	15766	3705.246462837671	0
0	15772	3705.311441350698	1
0	15773	3705.565814993611	0
0	15789	3708.929019920122	1
0	15791	3710.465931477381	0
0	15833	3720.786534643452	1
0	15834	3720.970972709396	0
0	15881	3734.861285435001	1
0	15884	3736.974134098886	0
0	15900	3739.792951971172	1
0	15904	3740.188704829763	2
0	15905	3740.221154670808	1
0	15912	3740.523300513954	0
0	15940	3745.079858234783	1
0	15941	3746.466164587234	0
0	15953	3748.014210369204	1
0	15956	3748.428298841774	0
0	15978	3753.831951500634	1
0	15984	3756.005735812983	2
0	15986	3759.729587001783	1
0	15991	3760.003739588284	0
0	16024	3770.100110525955	1
0	16025	3770.674874964359	0
0	16041	3775.582923161116	1
0	16042	3776.073836355069	0
0	16061	3778.978392092206	1
0	16066	3781.637337427438	2
0	16067	3781.680179230432	1
0	16072	3781.877613446383	0
0	16088	3782.918160372625	1
0	16091	3783.202141523797	0
0	16099	3784.297307115606	1
0	16105	3785.040089528884	0
0	16135	3788.982195823513	1
0	16136	3789.711475435946	0
0	16142	3789.936993241833	1
0	16146	3790.879703719212	2
0	16149	3794.276921020074	3
0	16151	3795.079072063779	4
0	16152	3795.312142431303	3
0	16157	3796.603898691776	2
0	16162	3797.342869561181	1
0	16167	3797.496100088498	0
0	16174	3798.113310579185	1
0	16175	3798.257066505119	0
0	16187	3799.295724793319	1
0	16191	3800.657343072253	2
0	16193	3800.828382288371	3
0	16194	3800.935557034465	2
0	16199	3801.254698573064	1
0	16205	3801.904890374217	0
0	16236	3810.200200169573	1
0	16237	3810.516510952851	0
0	16276	3816.767624612554	1
0	16277	3817.122240034582	0
0	16293	3819.246434257966	1
0	16294	3819.875835625315	0
0	16300	3820.890258883307	1
0	16302	3821.023372932588	0
0	16308	3821.036877056994	1
0	16310	3821.512459024836	0
0	16326	3824.369108593595	1
0	16328	3824.755324396794	2
0	16329	3825.677124111526	1
0	16335	3827.809258844871	0
0	16353	3829.893196277524	1
0	16355	3830.619008692903	0
0	16377	3832.684971595668	1
0	16378	3832.80784050049	0
0	16416	3840.034513602573	1
0	16417	3840.33530464128	0
0	16465	3856.210174961945	1
0	16471	3858.692215606347	0
0	16517	3872.293427204954	1
0	16521	3872.842997260589	2
0	16522	3873.796385271057	1
0	16528	3873.80037628804	2
0	16529	3873.88683065641	1
0	16536	3875.583204765599	0
0	16556	3879.991125523183	1
0	16558	3880.365153172725	2
0	16560	3882.295809092616	3
0	16561	3882.627674304697	2
0	16566	3882.839781236594	1
0	16574	3885.042887486873	0
0	16585	3890.223366616118	1
0	16588	3891.015135790087	0
0	16632	3898.810612657278	1
0	16634	3899.141474620961	0
0	16640	3899.696403753009	1
0	16647	3901.655413288366	2
0	16648	3902.428130695961	1
0	16653	3903.043395306073	0
0	16660	3903.938641384457	1
0	16661	3904.10226174314	0
0	16687	3909.096863533395	1
0	16689	3910.031604060466	0
0	16709	3913.45390996886	1
0	16710	3913.764463871529	0
0	16745	3923.24349620085	1
0	16747	3924.077044323299	0
0	16754	3924.943496011012	1
0	16755	3925.034474565378	0
0	16768	3925.768023078957	1
0	16771	3925.971283421437	2
0	16772	3926.074872554387	1
0	16777	3926.275393019501	0
0	16783	3926.368873655828	1
0	16785	3926.562857038209	2
0	16790	3927.832714089674	1
0	16796	3927.920871113563	2
0	16797	3928.266015765939	1
0	16802	3928.793101766366	0
0	16808	3930.833214218639	1
0	16809	3930.977833361369	0
0	16827	3933.60075246063	1
0	16828	3934.634439433156	0
0	16847	3935.86177723946	1
0	16848	3936.011178215787	0
0	16917	3959.510110702131	1
0	16918	3960.714534705029	0
0	16924	3960.898281608038	1
0	16925	3960.955112487011	0
0	16940	3963.013439600815	1
0	16943	3965.047658805283	0
0	16985	3977.495464808154	1
0	16986	3977.82832756057	0
0	17095	4011.194467672844	1
0	17096	4011.361477339788	0
0	17107	4013.427035405759	1
0	17108	4013.644397759398	0
0	17120	4014.736050297523	1
0	17123	4017.743462338948	0
0	17179	4029.131718419744	1
0	17183	4031.194547699931	2
0	17186	4032.413766805369	3
0	17191	4037.911724568865	4
0	17192	4039.600982004293	3
0	17201	4041.621047628667	2
0	17206	4042.147215233487	1
0	17212	4042.292849011778	0
0	17238	4047.726776709157	1
0	17240	4048.178313251334	2
0	17245	4048.769119527919	1
0	17251	4049.18627342813	0
0	17258	4049.907433628266	1
0	17259	4049.937563264415	0
0	17265	4050.40168469917	1
0	17268	4050.606248145442	0
0	17274	4051.428212625332	1
0	17275	4051.431280861158	0
0	17282	4052.313939219182	1
0	17283	4052.550978932452	0
0	17304	4055.767032168125	1
0	17306	4057.545260233314	2
0	17308	4057.723426735573	3
0	17309	4058.867635433064	2
0	17315	4060.794178506383	1
0	17320	4061.277890212223	0
0	17333	4063.000195880176	1
0	17334	4063.379873042873	0
0	17340	4064.748825307851	1
0	17341	4064.950528490093	0
0	17358	4070.023054632024	1
0	17359	4070.505028367054	0
0	17375	4073.035432849117	1
0	17377	4073.890433592577	2
0	17381	4074.793124176207	1
0	17389	4076.127919007013	2
0	17393	4076.712672122443	1
0	17398	4076.833386118201	0
0	17404	4077.641928374914	1
0	17406	4078.059798151851	2
0	17407	4078.338020556552	1
0	17414	4079.857603448696	0
0	17429	4081.641603364989	1
0	17431	4083.094401528191	2
0	17432	4083.527160432345	1
0	17437	4083.828480605897	0
0	17471	4088.791321036148	1
0	17472	4089.209462812425	0
0	17496	4094.295903703826	1
0	17497	4094.553345177258	0
0	17504	4094.744548400564	1
0	17505	4095.635465700933	0
0	17539	4101.670191446384	1
0	17542	4101.788075880194	0
0	17554	4103.04203484035	1
0	17555	4104.383171696022	0
0	17634	4129.790850741931	1
0	17635	4130.739715273599	0
0	17655	4138.327385209709	1
0	17657	4138.346605763329	2
0	17659	4138.699988375222	3
0	17661	4139.306610433273	4
0	17664	4139.862833275328	3
0	17669	4140.076986793008	2
0	17677	4141.27883719255	3
0	17680	4142.048613699382	2
0	17686	4143.109817861821	1
0	17693	4143.81359844589	0
0	17704	4144.14144279406	1
0	17706	4144.977259266129	2
0	17710	4147.68400157924	1
0	17716	4148.452151092153	0
0	17723	4148.533801131186	1
0	17724	4148.763912301291	0
0	17737	4152.570898088854	1
0	17739	4152.924427379323	2
0	17740	4153.091529506803	1
0	17747	4153.626718716413	2
0	17751	4154.042750694837	3
0	17755	4155.889957076375	2
0	17760	4156.128459272774	1
0	17765	4156.158973583599	0
0	17786	4159.370700310582	1
0	17788	4159.94011654068	2
0	17789	4160.145877032277	1
0	17795	4160.995029898296	0
0	17805	4161.812283169402	1
0	17810	4163.876347169668	2
0	17811	4164.448879356733	1
0	17817	4164.838879493201	2
0	17818	4165.692587331319	1
0	17823	4165.826176535098	0
0	17847	4172.838353284252	1
0	17852	4175.847416464615	0
0	17923	4192.104068823091	1
0	17925	4192.592570905215	2
0	17926	4192.615377050725	1
0	17932	4193.078682165862	2
0	17934	4193.506095255041	1
0	17939	4193.762936588556	0
0	17967	4200.12225692434	1
0	17968	4200.352472722253	0
0	17984	4207.123917592886	1
0	17991	4209.466281754467	2
0	17992	4209.60483498865	1
0	17997	4209.709505738681	0
0	18008	4212.876927805249	1
0	18012	4214.442677431029	2
0	18013	4217.48884740639	1
0	18019	4218.211033403881	2
0	18020	4218.297912391154	1
0	18026	4218.950001761858	2
0	18027	4219.056651441785	1
0	18034	4219.759130658309	2
0	18036	4220.246170448028	1
0	18042	4220.787190560078	0
0	18049	4221.648932978388	1
0	18050	4221.754644015449	0
0	18056	4221.81783233962	1
0	18059	4222.089764476674	2
0	18061	4222.562069440573	3
0	18064	4223.978612741378	2
0	18071	4224.70977417496	1
0	18076	4225.071067217957	0
0	18087	4225.863782781713	1
0	18091	4228.052243744852	0
0	18104	4229.160747234656	1
0	18110	4230.770054209164	0
0	18128	4233.267921477207	1
0	18129	4233.545654267171	0
0	18156	4239.167383493746	1
0	18157	4239.788651494532	0
0	18165	4240.66554856225	1
0	18166	4240.731606807366	0
0	18176	4244.156213355916	1
0	18179	4244.914330842315	0
0	18216	4261.151053279486	1
0	18218	4261.366729177793	2
0	18219	4262.432141832121	1
0	18225	4263.700537620956	0
0	18275	4274.282280767816	1
0	18278	4274.624705137473	2
0	18279	4275.027276521044	1
0	18284	4275.477489131642	0
0	18291	4276.837520613991	1
0	18294	4278.191230472739	0
0	18305	4279.933926590063	1
0	18309	4281.621865557095	0
0	18346	4294.485796600959	1
0	18351	4295.980137006685	0
0	18357	4295.991985981311	1
0	18360	4296.966998977967	0
0	18367	4297.636389900925	1
0	18368	4297.728661826257	0
0	18400	4307.35195125091	1
0	18403	4308.812294894014	0
0	18414	4310.411918079324	1
0	18415	4310.746468839245	0
0	18432	4313.146438849657	1
0	18436	4316.143551328505	2
0	18437	4316.305407989485	1
0	18442	4316.934591865897	0
0	18452	4317.748664128549	1
0	18454	4318.132134650566	2
0	18456	4318.581278046133	3
0	18459	4320.050247859838	2
0	18465	4320.456589073889	1
0	18471	4321.019309848879	0
0	18485	4322.4561205028	1
0	18486	4323.680483349851	0
0	18495	4324.369448869879	1
0	18499	4326.071453164201	2
0	18502	4327.469296388439	3
0	18505	4328.948321812133	2
0	18512	4330.095472340157	1
0	18520	4330.994355381607	0
0	18534	4331.798620040632	1
0	18537	4332.096387102528	0
0	18583	4342.221309691175	1
0	18584	4342.544321624286	0
0	18599	4344.913067984131	1
0	18600	4345.851732540184	0
0	18609	4347.655873390829	1
0	18610	4348.216427581313	0
0	18641	4354.233805692287	1
0	18643	4355.185973200386	2
0	18646	4356.675872665352	1
0	18651	4356.948057230052	0
0	18662	4360.393446673449	1
0	18665	4360.968552572744	0
0	18692	4366.555387088177	1
0	18697	4368.651173295868	0
0	18721	4374.63940825368	1
0	18722	4375.043101341455	0
0	18751	4380.052224662879	1
0	18753	4380.702716636525	0
0	18760	4380.839210389367	1
0	18763	4383.417087632729	0
0	18769	4384.104560091922	1
0	18772	4386.274332120982	0
0	18811	4398.522750713584	1
0	18812	4398.970147197114	0
0	18819	4399.579371356502	1
0	18823	4401.496350363095	2
0	18824	4401.960280786594	1
0	18829	4402.30244408725	0
0	18840	4402.551402338493	1
0	18841	4402.973418376388	0
0	18854	4404.35060541441	1
0	18858	4407.661353520827	0
0	18870	4410.290002077489	1
0	18873	4412.407264936287	0
0	18904	4416.359200202645	1
0	18905	4417.154511207516	0
0	18911	4417.312628615951	1
0	18914	4418.344394132746	0
0	18970	4433.398627483777	1
0	18971	4433.444433873284	0
0	19003	4439.537254841696	1
0	19006	4441.58059321548	0
0	19012	4441.873276091147	1
0	19013	4443.001960104194	0
0	19025	4443.557068749332	1
0	19026	4444.619205074788	0
0	19032	4444.907493700573	1
0	19035	4445.839772422071	2
0	19037	4447.089274088156	1
0	19043	4447.26315389568	0
0	19057	4448.56326547988	1
0	19059	4450.37010044977	0
0	19072	4450.612380958603	1
0	19073	4451.836994636737	0
0	19079	4451.999803118457	1
0	19080	4452.17118042751	0
0	19103	4454.813171534063	1
0	19104	4455.021051406124	0
0	19130	4459.934493408075	1
0	19132	4461.094998124763	0
0	19193	4482.359087169927	1
0	19198	4485.36130456336	0
0	19204	4485.813060484294	1
0	19206	4486.38450457145	2
0	19210	4486.87215851402	3
0	19211	4487.617476994868	2
0	19216	4488.040440668714	1
0	19222	4488.700030422564	0
0	19239	4492.922396578126	1
0	19242	4493.263339442277	2
0	19243	4494.785607874177	1
0	19248	4496.253649864535	0
0	19260	4500.521643563692	1
0	19261	4500.924332382982	0
0	19267	4501.829499699579	1
0	19268	4504.98820767034	0
0	19277	4506.211275566904	1
0	19278	4507.184831925997	0
0	19297	4512.922808459246	1
0	19298	4512.948317356756	0
0	19355	4531.058721160196	1
0	19358	4531.432563837625	0
0	19383	4538.888341407711	1
0	19386	4540.496460592372	0
0	19401	4549.610544263309	1
0	19403	4550.261103417293	0
0	19418	4553.07555271749	1
0	19419	4553.261193925505	0
0	19440	4557.377996127951	1
0	19442	4557.616518219288	2
0	19444	4558.106358172427	1
0	19450	4558.400689286843	2
0	19451	4559.262831790195	1
0	19459	4561.126545910545	0
0	19475	4563.312787899964	1
0	19477	4565.741530303928	2
0	19478	4566.612246075826	1
0	19483	4566.699813326508	0
0	19489	4567.405541932316	1
0	19491	4568.03310518363	0
0	19498	4568.922664347788	1
0	19502	4569.662774492442	2
0	19504	4571.748708832102	1
0	19510	4573.70861438448	0
0	19521	4574.118499936238	1
0	19522	4574.524183183951	0
0	19551	4585.898859251114	1
0	19552	4586.018035103692	0
0	19560	4588.373227202056	1
0	19562	4588.90115763525	2
0	19563	4589.05231829334	1
0	19570	4590.061661058342	2
0	19573	4593.396268957163	3
0	19574	4594.522431506514	2
0	19579	4594.658387308095	1
0	19585	4595.223883009926	0
0	19594	4595.778088624534	1
0	19595	4596.003830509646	0
0	19601	4596.076703034747	1
0	19603	4596.125062242428	2
0	19604	4596.221420491209	1
0	19610	4597.763225507352	2
0	19611	4597.765405882966	1
0	19623	4601.527221993754	2
0	19625	4601.855024294549	3
0	19629	4606.156831563445	2
0	19636	4607.086138174766	3
0	19641	4611.146838395912	4
0	19642	4611.540482515682	3
0	19647	4611.845006708039	2
0	19653	4612.937811623529	1
0	19658	4612.953122702974	0
0	19671	4615.240941754315	1
0	19672	4615.312192890775	0
0	19804	4668.518181742331	1
0	19805	4668.575973543168	0
0	19819	4671.324202397309	1
0	19821	4673.69841819722	2
0	19824	4674.179240785988	1
0	19832	4675.376564346781	2
0	19833	4675.776099928918	1
0	19839	4676.112540091503	0
0	19845	4676.215588567429	1
0	19847	4676.295333282499	2
0	19849	4677.244138718048	3
0	19850	4677.891433024039	2
0	19860	4678.710281051509	3
0	19863	4679.66457792457	2
0	19868	4679.821718863118	1
0	19873	4680.12474304912	0
0	19889	4683.642220742762	1
0	19893	4684.888632573441	0
0	19899	4685.232122937362	1
0	19900	4685.500220871819	0
0	19909	4686.709263396014	1
0	19911	4687.257453629681	2
0	19917	4690.352638436406	1
0	19923	4692.171790758567	0
0	19930	4693.316344882324	1
0	19931	4693.650611799689	0
0	19948	4697.017941610932	1
0	19950	4698.31852966337	0
0	20049	4724.206153521969	1
0	20050	4724.269339973404	0
0	20061	4726.85622794081	1
0	20062	4727.764079206398	0
0	20068	4728.471189062112	1
0	20069	4729.375459800233	0
0	20080	4729.762648015711	1
0	20084	4731.592920721603	2
0	20085	4731.816141919066	1
0	20092	4733.523276345954	2
0	20093	4735.93184247856	1
0	20098	4736.127232762963	0
0	20148	4749.841946397854	1
0	20154	4750.939082826761	0
0	20174	4753.569242195117	1
0	20175	4753.582856548966	0
0	20234	4767.435443799989	1
0	20235	4767.69312624449	0
0	20269	4772.188500994893	1
0	20271	4773.616366234291	2
0	20277	4774.976629647303	3
0	20281	4775.380248499951	4
0	20283	4776.057183414583	5
0	20284	4777.301305946742	4
0	20290	4778.112472788165	3
0	20296	4778.300507167746	4
0	20299	4778.413881988892	3
0	20305	4779.039572792816	2
0	20310	4779.065929932858	1
0	20315	4779.314757444562	0
0	20336	4783.718371148401	1
0	20338	4786.079233300252	0
0	20351	4788.032040964495	1
0	20352	4788.642408665136	0
0	20372	4792.658422857094	1
0	20374	4793.203041404121	0
0	20380	4793.62818746483	1
0	20381	4793.663617896563	0
0	20415	4799.001768415431	1
0	20416	4799.056356844131	0
0	20438	4801.881025560745	1
0	20439	4801.95875309108	0
0	20445	4801.97799383897	1
0	20446	4802.664766749316	0
0	20462	4805.552248701701	1
0	20463	4805.885923183795	0
0	20482	4809.797510961101	1
0	20484	4810.776201594384	2
0	20486	4811.135962971369	3
0	20488	4811.823788936711	4
0	20490	4812.423096932918	5
0	20493	4816.049933898154	4
0	20501	4817.962733438675	3
0	20506	4817.977441959356	2
0	20511	4818.492999237979	1
0	20517	4819.990247625088	2
0	20518	4820.194410777614	1
0	20523	4820.322310671119	0
0	20531	4821.676157142427	1
0	20538	4823.596917821387	2
0	20542	4824.453940913737	1
0	20548	4825.364909230398	0
0	20555	4825.848589885792	1
0	20556	4825.849743577207	0
0	20562	4827.009224102439	1
0	20565	4828.996208300919	0
0	20639	4849.842066700661	1
0	20642	4850.790898309839	0
0	20648	4850.794423577203	1
0	20649	4851.466719949707	0
0	20660	4854.388943949141	1
0	20662	4856.117965760142	2
0	20674	4862.284611831031	3
0	20676	4862.884658494337	2
0	20681	4862.912656120132	1
0	20686	4863.396955321294	0
0	20694	4863.52737450603	1
0	20695	4863.858790518495	0
0	20706	4866.145478768705	1
0	20707	4866.157133716174	0
0	20750	4877.532868707725	1
0	20753	4878.1457718417	2
0	20754	4878.37862053311	1
0	20760	4880.83407064696	0
0	20766	4881.156215025534	1
0	20767	4881.507173008116	0
0	20798	4888.735644249577	1
0	20799	4888.88374970894	0
0	20838	4895.673434825372	1
0	20839	4896.338008462561	0
0	20846	4897.339520326207	1
0	20847	4898.555449475516	0
0	20915	4919.211662171882	1
0	20917	4921.058203298636	0
0	20923	4921.496306366998	1
0	20924	4921.674961672079	0
0	20930	4921.741136363302	1
0	20932	4922.792072215052	2
0	20935	4924.127923613581	3
0	20936	4924.279940111717	2
0	20943	4925.498566678012	1
0	20948	4925.680970644349	0
0	20956	4928.389612470371	1
0	20959	4931.716193860857	0
0	20977	4935.000170797491	1
0	20979	4935.5289781503	2
0	20989	4939.769404922413	3
0	20991	4940.920139846899	2
0	20996	4941.026911456921	1
0	21002	4942.15647833809	0
0	21025	4946.811126118983	1
0	21026	4946.997547360463	0
0	21032	4949.853732111477	1
0	21036	4951.390059907072	2
0	21038	4951.662916781956	1
0	21044	4952.417926444942	0
0	21048	4953.710134755404	1
0	21050	4954.586755475381	2
0	21055	4956.266691274293	3
0	21057	4958.122699039949	2
0	21062	4959.759363199415	1
0	21068	4962.229595015793	2
0	21070	4962.67907375671	1
0	21078	4963.930674916479	2
0	21080	4964.724826347556	1
0	21090	4966.513672539792	2
0	21091	4966.532743861824	1
0	21096	4966.61527038438	0
0	21115	4968.573869389765	1
0	21118	4968.937873318089	0
0	21145	4973.612336542147	1
0	21148	4978.455833864981	0
0	21164	4980.403065012467	1
0	21169	4983.025269037421	0
0	21176	4984.065943828571	1
0	21177	4984.559836559621	0
0	21184	4984.863588520001	1
0	21185	4985.931146809555	0
0	21196	4986.186816544482	1
0	21199	4986.861397273691	0
0	21219	4990.795803030265	1
0	21221	4992.249213691828	2
0	21223	4992.718063173752	3
0	21225	4993.351411298184	4
0	21226	4994.272299408774	3
0	21234	4997.981523755095	4
0	21235	4998.674133425335	3
0	21240	4998.943349597265	2
0	21245	4999.585170556608	1
0	21251	5000.471859582667	0
0	21257	5000.543943424368	1
0	21258	5000.685827700528	0
0	21272	5002.173996822658	1
0	21274	5002.187295708956	2
0	21279	5003.127495254216	3
0	21280	5003.130898486949	2
0	21286	5003.806226362203	1
0	21291	5004.103589984906	0
0	21302	5005.473522341518	1
0	21304	5006.211879141517	0
0	21329	5013.59580301243	1
0	21332	5016.071716755474	2
0	21335	5016.401146636257	3
0	21337	5016.818394143428	4
0	21338	5017.263484992455	3
0	21343	5017.522293284799	2
0	21348	5018.079037286693	1
0	21356	5019.099611972333	2
0	21357	5020.329052083887	1
0	21363	5020.631461859896	0
0	21388	5025.300468658084	1
0	21389	5025.349731671075	0
0	21451	5043.538847845109	1
0	21453	5043.856294608214	2
0	21454	5044.624287622163	1
0	21460	5045.347541883604	0
0	21466	5045.403234815559	1
0	21467	5045.504847287342	0
0	21474	5046.361749574871	1
0	21476	5046.4829067487	2
0	21479	5047.324500760666	1
0	21487	5048.099237469087	0
0	21494	5048.413329275307	1
0	21495	5049.390773441578	0
0	21512	5051.742892716281	1
0	21513	5052.704408019166	0
0	21525	5055.90188341962	1
0	21527	5056.203116535681	2
0	21529	5058.026143787629	3
0	21530	5058.107516336221	2
0	21537	5059.669437257345	1
0	21546	5060.859936287092	0
0	21573	5067.115882755011	1
0	21578	5068.481869803207	2
0	21579	5068.611455591035	1
0	21584	5068.645514222036	0
0	21621	5075.537733552509	1
0	21623	5076.302035800969	2
0	21624	5076.374820359362	1
0	21629	5076.634949238862	0
0	21640	5076.855362628509	1
0	21641	5077.086464598604	0
0	21647	5077.768205171813	1
0	21649	5078.92704525239	0
0	21655	5079.463872449272	1
0	21656	5079.668222466718	0
0	21662	5080.316503925047	1
0	21664	5080.415207162072	0
0	21676	5081.603094205083	1
0	21679	5082.941397071404	0
0	21690	5084.712903894919	1
0	21695	5086.123868535859	0
0	21699	5087.150727892622	1
0	21701	5087.714079365175	2
0	21704	5089.067299933634	1
0	21711	5089.539978822232	2
0	21712	5090.795228988722	1
0	21717	5090.996546658569	0
0	21723	5093.982572873876	1
0	21729	5096.20989207168	0
0	21740	5096.323527848827	1
0	21744	5097.163414105993	2
0	21746	5097.418967612425	1
0	21752	5098.341875451417	2
0	21754	5099.064932204015	3
0	21755	5099.233354443377	2
0	21761	5099.384886684777	1
0	21767	5099.646073462533	0
0	21779	5101.158776405671	1
0	21783	5103.223124467121	0
0	21795	5103.51650269275	1
0	21798	5103.654707407015	0
0	21853	5121.637106404321	1
0	21856	5122.388497048888	0
0	21880	5128.617115592364	1
0	21881	5129.391244600604	0
0	21887	5130.130682437002	1
0	21888	5130.60538407668	0
0	21929	5150.755733518131	1
0	21930	5151.165145987026	0
0	21942	5154.245520240942	1
0	21943	5154.446125938796	0
0	21957	5159.255388272441	1
0	21958	5159.86781677226	0
0	21983	5165.207643709539	1
0	21984	5166.480729691664	0
0	21990	5167.076747220449	1
0	21991	5168.289116264982	0
0	22007	5176.298055807686	1
0	22008	5176.383178042249	0
0	22016	5177.440757287597	1
0	22018	5177.730570892395	2
0	22019	5177.98844493971	1
0	22024	5179.067084557339	0
0	22133	5204.3058563929	1
0	22134	5204.37024048761	0
0	22152	5208.516121284367	1
0	22153	5209.010053775631	0
0	22191	5215.503176178006	1
0	22195	5216.563383870534	2
0	22196	5217.835291674184	1
0	22203	5218.598053734964	0
0	22228	5222.243417827146	1
0	22229	5222.844382366104	0
0	22235	5222.932656447084	1
0	22238	5224.537063532496	0
0	22294	5236.026528868921	1
0	22296	5236.218736921718	2
0	22302	5236.869112831738	3
0	22307	5240.867076058079	2
0	22312	5240.965929024179	1
0	22318	5241.069766945466	2
0	22319	5241.5658939151	1
0	22324	5241.751817308102	0
0	22352	5246.111034913083	1
0	22353	5247.977089786029	0
0	22366	5250.453425875478	1
0	22371	5252.574539388555	0
0	22399	5257.44491109355	1
0	22401	5258.009615805728	2
0	22405	5258.49647283294	1
0	22411	5258.775878346395	0
0	22433	5263.349701399125	1
0	22436	5264.020746929459	0
0	22469	5271.892448805728	1
0	22470	5272.30750598976	0
0	22476	5272.57278787334	1
0	22478	5272.897987446406	2
0	22480	5273.050140008034	3
0	22481	5273.285005131109	2
0	22487	5274.359964615568	1
0	22492	5274.934344819552	0
0	22508	5278.651735151412	1
0	22511	5278.723401506556	2
0	22512	5278.865387595127	1
0	22517	5279.062349598837	0
0	22567	5290.188006554776	1
0	22568	5290.415914330041	0
0	22613	5303.351718260773	1
0	22615	5304.016215792513	2
0	22617	5304.391216713356	3
0	22620	5305.940686360934	2
0	22625	5306.352353771982	1
0	22630	5307.089231253537	0
0	22642	5308.247002347495	1
0	22644	5308.795159556568	2
0	22645	5309.016167669199	1
0	22650	5309.927015068583	0
0	22674	5312.727381822785	1
0	22675	5313.724586781173	0
0	22728	5330.767672636678	1
0	22729	5331.538160890776	0
0	22742	5336.205355575524	1
0	22747	5337.540778805487	0
0	22790	5348.343011100114	1
0	22791	5348.481281344067	0
0	22920	5386.753018507438	1
0	22922	5388.987678455505	2
0	22923	5389.225719477387	1
0	22929	5391.595640846641	0
0	22950	5399.116906379979	1
0	22952	5400.314334377795	2
0	22954	5401.197377501699	3
0	22955	5403.629325005634	2
0	22961	5405.446295948572	1
0	22967	5406.617817975797	0
0	22981	5408.543369008337	1
0	22984	5411.053259094408	0
0	22996	5411.921718494558	1
0	22998	5412.251730063787	0
0	23019	5415.259108492511	1
0	23021	5418.139824551212	0
0	23051	5421.462069164484	1
0	23053	5422.03307444777	2
0	23057	5423.95484611466	3
0	23058	5424.026871161138	2
0	23064	5424.270390897807	1
0	23071	5426.0272724634	0
0	23078	5426.883841536071	1
0	23081	5426.971024249947	0
0	23087	5427.363295277035	1
0	23090	5428.047992818523	2
0	23092	5428.463667851331	1
0	23097	5430.346443083781	0
0	23110	5431.526127310561	1
0	23112	5431.782450762726	0
0	23118	5432.411215803151	1
0	23120	5435.033015089596	2
0	23121	5435.21064815688	1
0	23126	5435.994141157116	0
0	23133	5436.387741280761	1
0	23136	5437.465297171184	0
0	23143	5438.00971191923	1
0	23145	5438.228421308246	2
0	23147	5438.555527866062	3
0	23150	5440.264603476529	2
0	23157	5441.414834947878	1
0	23163	5442.47264309652	0
0	23190	5445.665558809223	1
0	23191	5445.671905883418	0
0	23201	5448.754286125165	1
0	23202	5449.538777642586	0
0	23230	5463.8518910188	1
0	23235	5464.533649762408	2
0	23236	5465.101463477677	1
0	23241	5466.7005833618	0
0	23271	5471.630024356401	1
0	23273	5472.530906141682	2
0	23274	5473.646477681404	1
0	23280	5474.208893553985	2
0	23284	5474.748217862663	1
0	23289	5474.83467326069	0
0	23296	5476.269915808225	1
0	23297	5476.37364235573	0
0	23309	5478.56886352627	1
0	23311	5478.892839601462	0
0	23334	5483.63968945878	1
0	23338	5485.517422687935	2
0	23340	5485.770626604124	3
0	23345	5488.131075730443	2
0	23350	5488.370921666333	1
0	23357	5488.610297867165	2
0	23358	5488.980155450775	1
0	23363	5489.57223652174	0
0	23369	5489.968112600195	1
0	23371	5490.426068536506	0
0	23427	5504.795669416343	1
0	23431	5506.0421141932	0
0	23446	5509.970065038972	1
0	23449	5512.601421027558	0
0	23522	5530.796310353747	1
0	23523	5531.561993760732	0
0	23566	5539.952909384173	1
0	23567	5541.261938075485	0
0	23598	5549.392940576801	1
0	23600	5549.563421703042	2
0	23601	5550.98224796738	1
0	23606	5551.381341567228	0
0	23654	5561.56298720922	1
0	23656	5563.053663692086	2
0	23657	5563.516968481042	1
0	23665	5564.083678035765	0
0	23673	5564.697227444196	1
0	23676	5565.326449630249	0
0	23710	5573.517533515826	1
0	23711	5574.253517861536	0
0	23723	5577.695084891517	1
0	23724	5578.53447501707	0
0	23779	5603.240041558381	1
0	23780	5603.637362120832	0
0	23853	5627.062638169602	1
0	23855	5627.451399395265	2
0	23858	5628.405603411183	1
0	23863	5629.540037987644	0
0	23891	5634.105923671062	1
0	23892	5634.141599536615	0
0	23927	5643.878572068555	1
0	23929	5643.941196131722	2
0	23930	5644.492244368352	1
0	23938	5647.350949208496	0
0	23958	5650.268156035278	1
0	23961	5650.659912347064	0
0	23991	5658.308234047903	1
0	23993	5659.42786500283	2
0	23995	5659.556547438044	3
0	23996	5659.9272095237	2
0	24001	5660.096212212207	1
0	24006	5661.003253777271	0
0	24014	5662.233829980655	1
0	24016	5662.660405616343	0
0	24032	5663.614257106791	1
0	24034	5663.657929814247	2
0	24042	5666.707529170509	3
0	24043	5667.897460825705	2
0	24048	5669.070125005939	1
0	24053	5669.61993753905	0
0	24059	5669.63068710386	1
0	24062	5670.258579869866	2
0	24067	5671.053749048619	3
0	24068	5671.091918915871	2
0	24073	5671.56344428346	1
0	24081	5672.162289675798	0
0	24111	5675.901890598397	1
0	24113	5678.291056862856	0
0	24119	5678.484036972382	1
0	24121	5678.492302662012	2
0	24122	5678.573277995873	1
0	24127	5678.754910720803	0
0	24140	5680.394472156937	1
0	24141	5680.544199972744	0
0	24149	5680.950354574458	1
0	24150	5681.31677755778	0
0	24159	5682.320875238522	1
0	24163	5684.130849776673	2
0	24170	5686.157041949573	1
0	24175	5686.436813957943	0
0	24183	5686.674032966098	1
0	24184	5686.830696390129	0
0	24203	5690.984378015889	1
0	24206	5692.15570314819	2
0	24207	5692.910516867885	1
0	24212	5693.130224694867	0
0	24285	5720.540514729675	1
0	24292	5725.478194279481	0
0	24331	5739.687607924346	1
0	24333	5740.717211638843	2
0	24339	5743.177120917688	3
0	24340	5744.112630893618	2
0	24349	5744.738459763041	3
0	24350	5745.12649202884	2
0	24357	5745.471224333815	3
0	24359	5745.653251774286	4
0	24360	5745.972265896054	3
0	24367	5746.411960134948	4
0	24368	5747.426638622929	3
0	24375	5748.249077560866	4
0	24377	5748.752752800663	3
0	24384	5749.113970636238	2
0	24392	5752.464871595945	1
0	24398	5753.057684617285	0
0	24410	5754.74702540037	1
0	24411	5755.326334266891	0
0	24427	5758.720548255844	1
0	24429	5759.630941552092	2
0	24430	5761.791740754461	1
0	24436	5762.746943157311	2
0	24440	5764.714672666628	1
0	24446	5765.351264721501	0
0	24452	5766.539855143444	1
0	24453	5766.85706225501	0
0	24466	5770.744569263878	1
0	24467	5770.836056953241	0
0	24481	5772.784469131704	1
0	24485	5773.572488838766	2
0	24486	5773.944848235614	1
0	24492	5774.087418442575	0
0	24498	5774.243226812904	1
0	24501	5775.423497984042	2
0	24503	5776.705590652921	3
0	24506	5777.902392677972	2
0	24511	5777.987834533217	1
0	24519	5779.401070452317	0
0	24526	5780.665421861332	1
0	24527	5781.678937815757	0
0	24587	5799.282299590389	1
0	24592	5799.83134442108	0
0	24606	5802.210821531068	1
0	24607	5802.282369164475	0
0	24613	5802.475933913513	1
0	24614	5802.849011569869	0
0	24630	5808.219717755752	1
0	24634	5808.518009807175	2
0	24639	5811.614879548006	1
0	24644	5811.812284862438	0
0	24652	5812.923922985997	1
0	24653	5812.965793691039	0
0	24673	5814.659766887238	1
0	24674	5814.85626655088	0
0	24691	5818.066961192933	1
0	24694	5819.278313130484	0
0	24701	5819.640898445318	1
0	24702	5819.776888917318	0
0	24739	5827.05441184844	1
0	24742	5829.216583187619	2
0	24744	5829.829171923832	3
0	24746	5829.952157275847	2
0	24752	5831.302754955003	1
0	24758	5831.960195419077	0
0	24820	5846.820447150396	1
0	24821	5848.713814883268	0
0	24827	5849.737523115572	1
0	24828	5850.005485373301	0
0	24858	5858.077249804153	1
0	24860	5858.39425675071	2
0	24862	5858.778058380845	3
0	24866	5859.624398614806	4
0	24867	5859.774348631803	3
0	24872	5860.445259636057	2
0	24878	5860.618360061549	3
0	24879	5861.008925920835	2
0	24884	5861.092314820532	1
0	24895	5863.202078386865	2
0	24896	5863.326224378755	1
0	24901	5863.361273148223	0
0	24934	5869.226574341504	1
0	24936	5869.369954872348	2
0	24937	5870.059516350392	1
0	24942	5870.631892983919	0
0	24972	5880.706953466483	1
0	24974	5881.027385869722	2
0	24977	5884.792909837316	1
0	24982	5884.849550588986	0
0	24996	5887.429987212371	1
0	25001	5889.593129742319	0
0	25015	5890.949938862732	1
0	25017	5892.243553988802	2
0	25018	5893.119654918087	1
0	25023	5893.371182012867	0
0	25029	5894.544403131955	1
0	25031	5894.737752454724	2
0	25036	5896.444153010052	1
0	25042	5896.682568594836	0
0	25057	5898.245770262707	1
0	25058	5898.319539314891	0
0	25076	5900.439592807066	1
0	25078	5900.532007374607	2
0	25080	5901.822105820424	3
0	25082	5902.104381667779	4
0	25085	5903.965927802487	3
0	25090	5904.346988524321	2
0	25095	5904.80680542566	1
0	25100	5905.089396655032	0
0	25133	5909.416451971421	1
0	25138	5910.628525791662	2
0	25139	5910.636831638359	1
0	25145	5910.726974209295	0
0	25225	5929.864920271757	1
0	25227	5929.975819117019	2
0	25229	5930.067419137552	3
0	25230	5930.448196395202	2
0	25236	5930.920747090265	3
0	25237	5931.50678935653	2
0	25244	5932.47373888289	1
0	25249	5933.326849186801	0
0	25262	5935.598471036755	1
0	25264	5937.139837004623	2
0	25265	5937.584954360497	1
0	25271	5937.789551688546	2
0	25274	5938.722894095457	1
0	25281	5939.283139246035	2
0	25286	5940.101624646261	1
0	25292	5940.537579335447	2
0	25296	5942.572357856627	3
0	25297	5942.612318953967	2
0	25304	5944.268723699307	1
0	25313	5947.144974622101	2
0	25314	5947.94024105794	1
0	25319	5948.638397425263	0
0	25344	5954.22739672218	1
0	25350	5956.472574711794	2
0	25351	5956.575420040549	1
0	25357	5956.796223812118	2
0	25359	5957.439015465373	1
0	25364	5957.72637153825	0
0	25411	5969.905455161165	1
0	25413	5970.038373641032	2
0	25414	5970.994950484242	1
0	25419	5971.081549203199	0
0	25436	5974.38350684252	1
0	25438	5975.662979786153	2
0	25439	5976.543566586977	1
0	25445	5976.667229449272	2
0	25447	5977.008835692877	3
0	25449	5978.998302306008	2
0	25455	5982.705840890836	1
0	25460	5983.284381715611	0
0	25466	5983.786685970526	1
0	25467	5984.124027945273	0
0	25490	5989.081788558729	1
0	25498	5990.038587720436	2
0	25500	5990.490421547598	3
0	25503	5992.55558769013	2
0	25509	5993.084031870916	1
0	25514	5993.356316902941	0
0	25537	5998.815426222606	1
0	25542	5999.594125445986	0
0	25585	6014.938888861384	1
0	25587	6015.249825011892	2
0	25588	6015.755212873701	1
0	25601	6022.307576457238	2
0	25603	6023.862899506265	3
0	25604	6024.684531183973	2
0	25612	6028.539749727727	1
0	25620	6030.384555508206	0
0	25640	6035.70116140497	1
0	25642	6036.539163180285	2
0	25643	6037.739855569733	1
0	25649	6039.155763225365	0
0	25662	6041.384874987367	1
[...]
5	120457	28525.152894537852	0.046181185315
5	120465	28526.736031428345	0.235179655397
5	120491	28534.490073699998	1.173212444609
5	120508	28539.254550580297	3.317798908186
5	120529	28543.979071800007	1.041430712897
5	120533	28545.036863773829	1.453198976984
5	120553	28551.608640695734	2.239834438342
5	120579	28560.778496547548	2.022280952071
5	120584	28560.84065514737	0.776219140411
5	120598	28563.684731300123	0.879827723305
5	120612	28567.539674486978	2.655620022038
5	120621	28568.40059204028	2.659148693542
5	120649	28574.129386088136	2.291319772224
5	120667	28577.973795932262	2.715141675934
5	120686	28582.868019525065	1.755965871617
5	120699	28588.395907695251	0.230936291325
5	120709	28592.516368557634	0.375892440772
5	120730	28600.614910239101	1.384898567893
5	120764	28609.911500396051	3.977646499186
5	120769	28610.08371024279	3.926188753454
5	120789	28615.936899137653	3.339479433482
5	120796	28616.641781260096	0.778754638855
5	120811	28618.310730846418	0.667112982959
5	120823	28625.805899854527	1.649381349398
5	120831	28626.906253348016	0.670246117706
5	120859	28638.495616984796	3.400674125339
5	120865	28639.861257743623	2.861207818991
5	120876	28643.357888460221	1.302071288105
5	120883	28645.447029080377	2.482050712708
5	120912	28654.116376439987	1.982180822605
5	120934	28657.211946123763	1.730107991187
5	120956	28664.873366636308	3.7978424558
5	120961	28664.902826415353	2.155411178523
5	120968	28666.863268246764	3.686009123747
5	120973	28666.95629196733	3.613247552257
5	121000	28675.052633683557	5.828975297355
5	121007	28676.477336423335	7.077673661992
5	121013	28677.131446939986	7.328518965944
5	121023	28678.517526428802	7.017038896054
5	121028	28679.995530621064	7.811940409005
5	121037	28681.849443138068	4.615159733134
5	121044	28682.232001794523	1.637069813694
5	121050	28683.187753475272	1.122101380419
5	121064	28686.838404040123	2.935102279589
5	121088	28689.673352625964	1.953356202961
5	121095	28689.867352405244	0.395519802739
5	121102	28690.10754137355	0.247627534528
5	121109	28691.319768222826	1.255238949678
5	121128	28694.357476751088	2.39510425256
5	121137	28695.157884911747	1.299580786721
5	121146	28696.990361395927	2.512029444154
5	121157	28700.237253593274	5.173489216063
5	121162	28700.30060290351	3.817485115594
5	121167	28700.892496575976	2.270230030846
5	121173	28701.233205077577	2.576399214168
5	121197	28710.747064076379	0.520740302473
5	121214	28712.161251583758	0.797709908383
5	121229	28718.375286065182	0.407955249096
5	121236	28720.049520678523	1.017254032993
5	121246	28722.226786264975	0.315146668416
5	121267	28725.289344492558	0.926163302874
5	121295	28732.656420468002	6.381112426791
5	121301	28733.13292088386	4.740519793005
5	121306	28733.534311907411	0.908552265256
5	121332	28738.950854344231	4.290768175462
5	121337	28738.968467356724	0.643359920628
5	121362	28744.734803089881	2.836150170948
5	121367	28746.742329046783	3.75679215307
5	121372	28746.787393048685	2.193032268732
5	121385	28749.110484185295	1.832254659432
5	121413	28753.99356567748	1.056926669121
5	121430	28756.448307719102	2.165859625521
5	121446	28762.299465982665	0.361954823208
5	121480	28769.511423098622	4.655924264537
5	121493	28774.950332223188	7.530467839492
5	121499	28775.248160465896	6.217815795956
5	121504	28775.502037319028	6.383979519503
5	121511	28777.603435169742	6.608725712969
5	121516	28778.122870126151	3.647640988885
5	121521	28778.451952104675	1.160484534131
5	121540	28786.225599182141	3.664468658292
5	121545	28786.250075091901	0.102712965126
5	121563	28791.325933346329	3.739480606148
5	121573	28794.104459370224	4.978715433905
5	121581	28794.281212189825	3.629955937884
5	121587	28796.101629753012	2.817446285163
5	121592	28797.995673460018	3.837880788669
5	121600	28799.957751936668	0.066814361978
5	121608	28800.665690080219	0.118468794734
5	121618	28807.755674699247	5.563108806029
5	121632	28809.961399766457	1.19012370161
5	121637	28811.233825403266	1.628140487901
5	121645	28812.881331616717	2.998736835198
5	121650	28815.316745925156	5.409523237102
5	121675	28825.308626906504	1.829560187797
5	121711	28832.256216023715	2.727946641036
5	121725	28836.045082250972	1.589895333542
5	121742	28839.818975134622	3.227670559263
5	121748	28841.675347440357	1.988424939467
5	121760	28843.479997029386	1.118991389015
5	121778	28845.580291275327	0.931198513111
5	121782	28845.711539195478	0.942414747252
5	121811	28853.94812326258	3.72704735258
5	121815	28854.297785151558	0.482821155552
5	121831	28859.895446978312	3.20291466322
5	121836	28860.492817087683	3.131638273467
5	121851	28861.405836031772	2.647477010909
5	121856	28861.784002739603	0.848259567805
5	121861	28861.930064316384	0.692521578858
5	121894	28871.469687687831	2.761211272394
5	121898	28871.475538814276	2.524771940975
5	121923	28874.47496850565	1.402024200355
5	121929	28876.089824269295	2.64288760349
5	121954	28883.734766295605	0.151490236979
5	121962	28884.37523095783	0.582417682288
5	121973	28886.736256728751	0.787628049363
5	121979	28887.637625848327	1.471562139137
5	121999	28893.21435005078	3.336978360531
5	122005	28893.456470454696	2.042799016556
5	122023	28898.268855570022	0.377004010064
5	122031	28899.445666692045	0.526234767116
5	122068	28913.996589569689	9.646550576876
5	122073	28914.146568818908	6.686102654277
5	122082	28918.017241697025	9.276962535027
5	122090	28918.762817582362	5.370472028088
5	122095	28918.803014675717	1.598584767506
5	122104	28919.132865379554	0.512056209265
5	122109	28919.28536242316	0.451236840397
5	122133	28927.56520271305	6.922173736079
5	122138	28927.706317176483	6.762524672783
5	122172	28931.867902639213	0.276459268428
5	122197	28935.511145261017	1.798705319079
5	122202	28936.35312363488	1.989255455009
5	122207	28936.386258594061	1.508862767589
5	122220	28937.516644000372	0.916797490147
5	122254	28944.587703123237	3.61815514663
5	122262	28946.557477409384	4.48363706503
5	122268	28947.658145248993	3.843003797614
5	122289	28953.120649599754	4.249739955237
5	122316	28956.753653433331	0.394192478346
5	122334	28961.459509741219	1.298610061203
5	122344	28966.433301739674	0.696327561281
5	122360	28975.356037833197	0.374284917714
5	122380	28981.915263060584	2.013595812587
5	122391	28984.044314939597	2.003586769877
5	122399	28984.572481875063	0.371518340073
5	122408	28986.388969301174	0.066991385712
5	122426	28996.006164641736	5.850863864173
5	122434	28997.792512862986	5.295966841141
5	122440	28999.163568648751	2.844925129451
5	122481	29011.078517406488	1.445071376052
5	122487	29011.619279857439	1.10646096872
5	122515	29023.131992881897	6.447315622712
5	122528	29024.280979633197	5.365100688385
5	122535	29024.953425222832	5.191944170427
5	122540	29025.793866563584	2.801153696958
5	122546	29025.93679222815	2.680579140149
5	122551	29026.154128884591	2.757645894997
5	122556	29026.611929294249	1.798701562151
5	122596	29036.250137089005	1.742356632901
5	122610	29039.552607756962	1.012965654621
5	122620	29041.570594342296	0.485013173055
5	122630	29044.973984263584	1.821714310478
5	122639	29046.9689409849	0.316927792255
5	122654	29050.893684413677	1.177897776049
5	122683	29054.625602661692	0.869131014808
5	122689	29054.98830139913	0.399469242674
5	122715	29058.446529983439	0.847059019582
5	122735	29062.580909667338	2.029298824966
5	122745	29065.017038711191	4.065968265525
5	122751	29065.550659760037	3.766671907091
5	122756	29065.698111903781	1.429326259054
5	122760	29066.488509085068	1.766430319971
5	122779	29073.494365265836	3.497428522704
5	122791	29075.197530347093	0.260747170557
5	122802	29078.038660918397	0.179343349577
5	122812	29081.604723174576	3.637055545203
5	122817	29081.644690080333	1.216117257908
5	122847	29090.259929830571	6.097755077002
5	122855	29091.343535304942	3.431813242943
5	122862	29092.444291253481	1.670038948356
5	122887	29096.720030655856	2.502641726323
5	122892	29097.585070945038	2.154465190247
5	122899	29098.509628617833	2.911810086959
5	122906	29099.217313767878	3.264592159256
5	122921	29103.924142876986	5.110678408167
5	122928	29104.747253100255	0.893221911241
5	122942	29106.825444234353	1.011927649076
5	122970	29112.486198783507	3.21067787052
5	122980	29114.048381928568	4.340031348753
5	122991	29115.97339967368	3.460282333049
5	123003	29120.718591135869	4.973589333202
5	123008	29121.236129587682	3.51014074735
5	123015	29122.107918516512	3.488192230567
5	123038	29127.274027583975	3.165276392039
5	123044	29128.741865381125	3.897886062084
5	123063	29130.289374143065	0.553555100037
5	123088	29146.815072175965	1.635009715898
5	123109	29158.054306715596	1.807091915562
5	123114	29158.387813902696	1.672114268974
5	123119	29158.42387398147	1.51602991622
5	123140	29167.765706267127	0.445392794997
5	123149	29169.489504349916	0.178292160477
5	123198	29179.031363925208	1.053572055835
5	123202	29179.060442734818	0.915829149283
5	123213	29185.220823758874	3.896067724192
5	123224	29186.09222627886	0.777684759793
5	123228	29186.210208475634	0.835361263468
5	123239	29188.220682335511	1.042592998638
5	123247	29188.427120866674	0.281512494607
5	123252	29188.747584346107	0.328937639357
5	123260	29191.283841424013	1.921521652388
5	123276	29193.16541528946	0.018159989493
5	123302	29199.261471395957	4.878597807872
5	123310	29201.374896618547	6.98379184608
5	123315	29201.771876722558	5.648726140267
5	123320	29202.66197046344	1.973096140884
5	123338	29206.526546142915	3.517672034706
5	123342	29206.603113063383	1.608024726069
5	123357	29208.489608529279	0.310768319814
5	123369	29209.552806505675	0.972854879191
5	123376	29210.703250716867	1.874189976144
5	123381	29211.291929201769	2.105649744405
5	123393	29213.002934292179	1.683674606787
5	123423	29220.855960036082	2.209499847982
5	123430	29221.400713457854	0.144058927489
5	123452	29226.706900154139	3.679594915095
5	123458	29227.579008664768	4.228384170689
5	123474	29231.198825303657	3.337889231179
5	123479	29231.27242994277	1.855842706391
5	123497	29234.930735287768	0.284467505451
5	123514	29239.72967893739	4.777461031585
5	123534	29243.872908166304	2.170489760507
5	123538	29243.917941617296	1.619092240551
5	123545	29246.218977374171	0.658424654128
5	123555	29255.309366054464	2.501394788242
5	123562	29257.243598234514	0.399286000242
5	123581	29259.885333570666	2.015522510834
5	123585	29260.305595546449	1.044549411671
5	123607	29266.689280583505	1.070727047421
5	123617	29269.726383725118	0.622082139176
5	123627	29280.267282396443	0.793573711093
5	123635	29285.152670714212	0.530880711119
5	123647	29290.206384697978	2.607371485454
5	123654	29291.247335749299	1.870328395322
5	123661	29291.623460481979	0.574825171256
5	123688	29300.41424912728	3.843344453839
5	123695	29302.256629159632	4.064150554532
5	123701	29303.07371656439	0.908701961655
5	123715	29308.152373899759	0.393261889535
5	123738	29316.65068846741	3.338280294555
5	123743	29316.742694129672	2.581522687154
5	123750	29317.667841245703	1.816965650986
5	123757	29318.110107734828	0.822036895314
5	123779	29328.538146066602	7.306995055663
5	123786	29329.184117898925	0.412936262923
5	123798	29330.548907784378	0.605413200982
5	123805	29331.213937257965	0.985311349607
5	123830	29338.415274852712	2.25448112994
5	123838	29339.100657224919	1.139814258739
5	123875	29349.459684240167	1.416829171056
5	123888	29353.824347648898	2.112874059983
5	123904	29359.679194710131	0.788747023092
5	123916	29361.730155208751	1.594387616496
5	123920	29361.823493210217	1.007924512473
5	123927	29362.383404788025	0.503365259542
5	123935	29364.890922428577	0.863635566011
5	123945	29368.41092011221	0.094632710479
5	123960	29370.800284401205	0.297242095021
5	123972	29373.680933162024	1.036711135855
5	123976	29373.734065689672	0.075979027763
5	123991	29377.562271330558	0.398600069242
5	124006	29380.471497493256	0.293183446951
5	124022	29385.450458814302	3.643145128161
5	124047	29395.560981316381	3.049828117701
5	124054	29399.669479538096	0.284369399855
5	124076	29407.507281239701	5.990168022109
5	124081	29408.157713495153	1.111345639455
5	124088	29409.598417079964	0.700587008241
5	124100	29412.08988490403	0.460069138914
5	124119	29416.590305931852	2.212598431733
5	124126	29417.301730489547	1.46268648517
5	124131	29417.911033000362	1.992772142971
5	124136	29418.007580536097	0.765670477798
5	124155	29420.710665129439	0.745197343723
5	124164	29423.06172724751	1.390279951853
5	124178	29427.390895326026	2.842230574153
5	124211	29432.170349122401	2.464978014848
5	124217	29433.553428970823	2.700340732221
5	124226	29434.466198946297	2.928837869245
5	124250	29436.939176559459	1.562433836449
5	124255	29437.13365545367	0.858781900366
5	124268	29438.293232564025	1.980747707607
5	124275	29439.103130999515	2.389167675839
5	124280	29439.238347713993	1.961736546641
5	124285	29439.554015387526	1.972216609353
5	124299	29443.189058556291	5.546900238375
5	124304	29443.588586017862	4.895439966648
5	124310	29444.683434914183	4.131227976221
5	124316	29444.801278253345	3.987747228434
5	124322	29446.591519957102	5.390401005845
5	124327	29449.40064716641	7.351416279076
5	124361	29458.932746297741	2.499224588566
5	124378	29463.564744152417	0.977828136515
5	124386	29466.407728265702	1.214289526633
5	124401	29475.58026528745	0.500105129867
5	124413	29479.405173545084	1.029913354658
5	124426	29482.805196162517	0.422966294493
5	124449	29487.502538703324	3.188083553398
5	124455	29488.603470249164	4.288272768224
5	124468	29490.829805772974	5.143182878949
5	124473	29491.121588599282	2.380260946687
5	124478	29491.149724370654	1.543174683428
5	124490	29493.654114944255	3.356289505288
5	124503	29495.741252435846	2.876796013498
5	124508	29495.816595934614	1.942927374773
5	124543	29507.241700779325	2.05611579217
5	124558	29509.952124674601	1.066346701329
5	124580	29512.89834230396	1.096848159854
5	124588	29514.834429968637	2.919534230547
5	124599	29517.087093674567	2.445131705401
5	124606	29518.161780579837	3.102765842703
5	124617	29522.302261233026	4.468685119409
5	124638	29525.241082028703	1.92047934077
5	124653	29529.058968465339	1.23729401508
5	124657	29529.334255417043	0.758572172063
5	124675	29531.78526185582	0.529688865301
5	124691	29539.44969921142	7.304393322752
5	124696	29539.962578681479	6.432482630105
5	124706	29543.096594890471	8.996815822086
5	124713	29544.03510407391	2.195040418709
5	124720	29545.265228210228	1.987001391607
5	124743	29555.601059311276	7.443272495134
5	124752	29555.985148909639	0.586207177452
5	124768	29557.378799539166	0.530268439799
5	124816	29572.805223446544	3.912798718553
5	124823	29573.418964964779	1.619356766854
5	124839	29578.296551312885	2.958433340471
5	124850	29579.182962315419	3.345303006259
5	124856	29579.770766088391	1.283744338577
5	124861	29579.861370401627	1.022416863366
5	124868	29580.85110201973	1.912939310312
5	124872	29580.875191884693	0.813060791848
5	124898	29585.164355875349	3.030310673611
5	124916	29589.719312616497	0.860709838109
5	124930	29595.382597477945	0.202327240431
5	124939	29596.535184689172	0.271343274823
5	124983	29609.213400710937	0.457127479562
5	124988	29609.663352118487	0.481754508192
5	125035	29627.039934448454	2.598864198627
5	125055	29633.374279971341	1.250290184371
5	125063	29635.671415707843	3.491382858035
5	125069	29637.340936092936	4.910459612153
5	125075	29637.693821516156	3.06906969966
5	125101	29648.661797985123	7.012895498453
5	125113	29651.026658183383	6.34416537129
5	125122	29653.049187146352	7.221797299048
5	125133	29654.856760872962	9.023357965243
5	125142	29656.022900091506	8.784518400214
5	125149	29658.593733909193	9.873410755336
5	125161	29660.804669739098	10.979133815747
5	125166	29661.88939408015	10.501836850008
5	125175	29662.711455197158	11.043120457253
5	125180	29663.324987413874	7.575514008272
5	125187	29665.911992825874	8.333067643458
5	125193	29666.768491594174	7.346199765131
5	125198	29667.597925499944	5.235789336079
5	125216	29668.058851730712	0.23523186752
5	125231	29669.414356956105	1.071438261919
5	125247	29674.919902532142	0.478706872714
5	125269	29680.028688145738	0.242902097013
5	125304	29699.678191378594	3.070371983676
5	125313	29700.629892717566	2.309253746
5	125323	29700.934668260054	1.070028271798
5	125328	29701.105948336701	0.450042226161
5	125332	29701.988126060326	1.28843379303
5	125365	29707.167933473598	0.242181842144
5	125374	29712.862915132124	0.802957322784
5	125382	29713.790177092707	0.742862811185
5	125389	29716.471755968313	0.214424439586
5	125411	29723.505941777809	1.395440857551
5	125420	29726.954505732394	4.333415786006
5	125429	29727.792313108368	4.434123934163
5	125437	29730.047654234829	3.120365701401
5	125445	29731.57982366256	4.268523649148
5	125451	29732.871403749277	2.733169621585
5	125464	29734.132064871778	0.861005324133
5	125487	29743.786986422258	0.245816658848
5	125506	29748.034484420497	1.364585891878
5	125517	29749.658729806814	0.038905165571
5	125525	29751.008235720715	0.012446006203
5	125533	29753.354866526433	1.144859546634
5	125557	29759.548491149749	1.623132501992
5	125562	29760.338607223093	1.459830764048
5	125587	29764.352178951628	0.551881957896
5	125602	29769.920834609817	1.230434595376
5	125624	29776.231634293448	5.049921753718
5	125633	29778.013381912835	3.620113909809
5	125639	29778.487541460724	2.609575016811
5	125660	29781.879854361419	2.308988648189
5	125671	29783.493513490097	0.726234928362
5	125681	29785.561255145908	2.191583032912
5	125686	29785.832603348363	2.265236234682
5	125693	29786.295127742857	1.832564426592
5	125698	29786.964505643977	0.978004837741
5	125728	29807.630740873009	2.43658683043
5	125735	29814.01501468309	0.304958224934
5	125746	29815.276116684958	1.071078708999
5	125750	29816.04241784066	1.130924632415
5	125762	29817.206291285606	0.460725384957
5	125772	29820.56926370795	3.373424284943
5	125780	29823.027247723457	2.876777718048
5	125789	29825.820989082002	4.528467554505
5	125796	29825.999986528946	2.37488570128
5	125801	29826.071206678752	0.165937808783
5	125815	29828.845854916472	1.24046609721
5	125839	29834.352633575532	0.559064931071
5	125846	29836.534170081253	0.381075153707
5	125856	29841.83501364693	0.617348898485
5	125864	29843.007323964724	1.065614161367
5	125875	29849.073189554823	3.196867601575
5	125879	29849.91278934729	3.689163461273
5	125887	29858.218155140843	0.433003050669
5	125894	29858.855959280544	0.337202390435
5	125901	29859.240479806941	0.337430551115
5	125923	29866.291320137912	3.209598306953
5	125956	29876.758122585005	6.245628928612
5	125966	29879.081408743826	5.350753288233
5	125980	29880.220138521513	0.940754541847
5	125987	29882.350821877646	2.993803496344
5	126026	29889.481058260244	3.675990118519
5	126042	29897.216707753062	5.97434300828
5	126047	29897.474057196859	2.734007124091
5	126062	29899.533980761937	1.966251309069
5	126067	29899.819736987855	0.772248883692
5	126081	29903.981924881373	0.261883751587
5	126100	29913.910415995882	1.565611308696
5	126104	29914.600722362565	1.639304224705
5	126130	29921.31131472804	3.574922766048
5	126135	29921.782260097004	2.629290291497
5	126142	29923.52819932849	2.774551589783
5	126159	29925.223740826589	1.6658458167
5	126165	29927.12879851975	2.680461981823
5	126180	29929.644970434078	0.767495300053
5	126193	29936.26744028646	2.650099175794
5	126200	29936.891675945004	1.929846521621
5	126206	29939.108866856846	2.608493077549
5	126219	29943.82422254178	2.469435336463
5	126226	29944.309192407773	0.981909506374
5	126244	29946.831197715024	1.657111699221
5	126272	29955.53442227671	3.546452553328
5	126292	29961.75689259463	2.35497096011
5	126297	29962.846456654756	2.599448209308
5	126321	29967.612333111361	4.310329600073
5	126326	29967.896839700952	1.707878371772
5	126338	29970.193294548763	3.299331734966
5	126362	29973.186178888906	1.716659809571
5	126370	29973.623752118446	1.537206263701
5	126376	29974.62519061753	1.225741948753
5	126394	29977.560981548899	1.330002934259
5	126407	29980.63016065232	1.506875165968
5	126423	29983.932177912035	1.590714209427
5	126440	29990.014035344153	0.251116750757
5	126449	29994.933741025463	0.698617842294
5	126462	29997.527747292013	2.135604735625
5	126467	29997.961796535831	1.776003648982
5	126471	29998.085883746797	1.875236351821

