version 2
run Second-n5-7-20191016-17:04:34-4284
attr configname Second-n5
attr datetime 20191016-17:04:34
attr experiment Second-n5
attr inifile omnetpp.ini
attr iterationvars ""
attr iterationvarsf ""
attr measurement ""
attr network org.omnetpp.queueing.Pizza
attr processid 4284
attr repetition 7
attr replication ""
attr resultdir results
attr runnumber 7
attr seedset 7
param **.PS.maxInventoriedPS 5
param **.U1.interArrivalTime exponential(3s)
param **.U2.interArrivalTime exponential(5s)
param **.PS.serviceTimeForInventoryU1 exponential(1.0s)
param **.PS.serviceTimeForInventoryU2 exponential(1.2s)
param **.PS.serviceTimeDirectU1 exponential(1.4s)
param **.PS.serviceTimeDirectU2 exponential(1.4s)
param **.PS.probabilityProducing 0.7
param **.CS.serviceTimeU1 exponential(1.1s)
param **.CS.serviceTimeU2 exponential(1.4s)

vector 0 Pizza.EntryQueueU1 queueLength:vector ETV
attr interpolationmode sample-hold
attr title "queue length, vector"
vector 1 Pizza.CS queueLength:vector ETV
attr interpolationmode sample-hold
attr title "queue length, vector"
vector 2 Pizza.EntryQueueU2 queueLength:vector ETV
attr interpolationmode sample-hold
attr title "queue length, vector"
vector 3 Pizza.sink lifeTime:vector ETV
attr interpolationmode none
attr title "lifetime of arrived jobs, vector"
attr unit s
vector 4 Pizza.sink lifeTimeU1:vector ETV
attr interpolationmode none
attr title "lifetime of arrived jobs, vector"
attr unit s
vector 5 Pizza.sink lifeTimeU2:vector ETV
attr interpolationmode none
attr title "lifetime of arrived jobs, vector"
attr unit s
0	0	0	0
0	14	4.779406805032	1
0	18	7.09919964411	2
0	25	8.293738667358	1
0	30	8.735642724385	0
0	39	9.185371518969	1
0	41	10.205017169046	2
0	44	10.71731878631	1
0	52	13.552145425386	2
0	54	13.627788794119	3
0	56	14.25607095439	2
0	61	14.544004970507	1
0	70	17.449857264656	0
0	76	17.795838593344	1
0	80	18.440455724807	2
0	81	18.666101870032	1
0	90	20.464998013627	2
0	94	21.989219658012	1
0	100	22.652540963007	0
0	112	24.856436365824	1
0	114	26.699959986847	2
0	115	27.384366087854	1
0	120	27.970354280638	0
0	126	28.403958846478	1
0	130	29.000964398542	2
0	131	29.705927573377	1
0	137	30.47712538884	0
0	161	33.055123330507	1
0	164	34.08505873735	0
0	179	36.628889980846	1
0	188	41.11764004596	0
0	243	55.752083194683	1
0	245	55.876599285303	2
0	246	57.248995320074	1
0	252	57.275078464533	2
0	253	57.605111425537	1
0	260	58.071238417124	2
0	262	59.357821113086	1
0	267	60.484026658442	0
0	282	63.599695319668	1
0	284	65.439535442758	0
0	298	67.507334401815	1
0	299	67.77496506851	0
0	322	72.181093436837	1
0	323	72.687604843048	0
0	357	84.548861965555	1
0	360	86.213646973251	0
0	366	86.796654792084	1
0	367	87.287944309514	0
0	373	87.456848012467	1
0	375	89.936353253336	0
0	392	91.267529247258	1
0	394	91.376055175792	2
0	396	92.961022014693	1
0	402	93.240694400451	2
0	404	93.378092034757	3
0	405	93.787884485826	2
0	410	94.281582422239	1
0	416	95.39513898348	0
0	437	98.550785786852	1
0	439	98.670057914324	2
0	444	101.52341980443	1
0	449	101.980599828699	0
0	474	115.742987694289	1
0	476	115.835724188464	2
0	477	116.029284334106	1
0	482	116.110697811461	0
0	504	118.181899888324	1
0	506	118.7056830383	2
0	508	119.660576366126	1
0	516	120.209812943482	0
0	535	121.672284121536	1
0	536	121.921385473294	0
0	544	122.485490319832	1
0	545	122.687829729699	0
0	585	133.413574555819	1
0	588	134.327532199592	2
0	589	136.358222028611	1
0	598	137.146566610791	2
0	600	140.979165605415	3
0	601	141.283096113104	2
0	606	141.507979387372	1
0	611	141.912416724388	0
0	666	152.289729066941	1
0	667	152.473702232971	0
0	718	167.672758523424	1
0	719	168.397847484618	0
0	750	174.1790094033	1
0	753	176.552673642844	0
0	767	177.708987225377	1
0	768	178.341580499031	0
0	856	206.716990651614	1
0	860	208.68174170811	0
0	866	209.040431341238	1
0	868	209.715782478772	0
0	874	210.750889959489	1
0	875	211.24206899517	0
0	915	221.598224073642	1
0	919	223.060752718275	0
0	925	223.540608370708	1
0	926	224.328804684882	0
0	932	224.680207095489	1
0	933	225.637033820847	0
0	943	226.90913019642	1
0	945	227.069196132654	2
0	946	227.657082798736	1
0	950	228.696232786419	2
0	955	231.168175931299	3
0	956	231.346194399808	2
0	962	231.711712698084	3
0	964	232.001300889581	2
0	973	233.49875148832	1
0	978	236.196476634758	0
0	1000	240.868709194091	1
0	1003	242.475987341583	0
0	1009	242.617062354346	1
0	1011	244.290057201892	0
0	1019	245.138003976489	1
0	1020	246.06368444181	0
0	1038	250.991587501866	1
0	1042	252.606097652897	2
0	1043	252.687870201148	1
0	1048	253.173063814764	0
0	1091	262.995460554457	1
0	1093	263.192107983802	2
0	1100	271.412390403121	1
0	1105	271.525386390089	0
0	1111	273.67319493139	1
0	1115	276.581668315647	0
0	1149	286.870591246695	1
0	1153	288.286595715618	2
0	1156	289.809800438375	1
0	1162	292.228084822628	0
0	1181	300.207549487598	1
0	1182	300.235957698565	0
0	1189	301.198198201462	1
0	1191	302.746890017958	0
0	1203	303.644575882588	1
0	1204	306.751360792644	0
0	1212	309.056835554846	1
0	1213	309.917574261118	0
0	1252	316.942116880612	1
0	1253	316.991787394637	0
0	1283	327.263006728646	1
0	1284	327.981953500603	0
0	1295	328.497531894053	1
0	1302	331.720498377447	0
0	1323	335.348435197341	1
0	1326	337.86127376505	0
0	1385	352.329578603326	1
0	1386	353.752726809172	0
0	1476	388.350368167242	1
0	1481	389.994928234263	0
0	1488	391.99818716911	1
0	1490	392.974350649212	0
0	1509	393.673730472887	1
0	1510	394.21116892963	0
0	1583	417.312973888354	1
0	1586	417.661768388022	2
0	1589	418.658549760748	1
0	1594	418.803988363958	0
0	1627	426.190438759934	1
0	1631	426.549852175435	2
0	1634	428.766946618994	1
0	1639	428.912788761624	0
0	1645	429.040216490719	1
0	1649	430.02287682846	2
0	1650	430.253631749454	1
0	1659	433.335162263923	0
0	1691	439.371608223242	1
0	1692	439.867710940521	0
0	1733	449.122282638169	1
0	1734	449.698874347697	0
0	1758	455.852931471537	1
0	1759	456.2302755736	0
0	1784	461.196624124793	1
0	1786	461.197178930956	2
0	1788	462.79058260081	3
0	1793	466.31736917456	2
0	1799	467.734340870547	3
0	1800	467.903060558635	2
0	1807	468.264127199623	1
0	1812	469.374217964849	0
0	1822	470.732372444643	1
0	1824	471.239882981647	2
0	1828	472.194400387076	3
0	1832	474.724455876095	2
0	1837	475.310770724126	1
0	1844	476.380954245036	2
0	1851	477.862296409106	3
0	1852	479.651965945937	2
0	1861	481.560944858574	3
0	1866	484.20415785135	2
0	1872	485.685884509223	1
0	1877	486.743766721239	0
0	1892	489.647807510957	1
0	1895	489.910178179983	0
0	1964	505.90484870493	1
0	1965	506.728452376383	0
0	1984	510.889570928489	1
0	1989	512.423278168056	2
0	1993	515.282613582008	1
0	1999	516.959566021252	0
0	2009	517.591364709773	1
0	2010	518.359857257905	0
0	2039	522.388777488629	1
0	2041	522.891256931407	2
0	2043	523.814081415114	3
0	2045	525.062460151252	2
0	2050	525.102273636963	1
0	2055	525.271592415543	0
0	2063	526.218414201336	1
0	2065	526.376405263114	0
0	2073	529.201193009823	1
0	2074	529.220874060828	0
0	2083	530.250016434965	1
0	2086	531.194809357647	0
0	2115	536.26111959002	1
0	2117	536.763598924611	2
0	2119	536.766162117031	3
0	2123	538.353001829935	4
0	2129	542.737705887849	5
0	2137	547.354030049661	6
0	2138	548.855471003117	5
0	2143	549.198892905347	4
0	2149	549.209228912121	5
0	2151	550.589973104185	4
0	2157	552.40068815786	3
0	2166	553.161324629882	2
0	2173	553.67275644548	3
0	2174	553.689440417593	2
0	2183	554.792515377842	1
0	2188	554.981495825082	0
0	2197	556.709780805448	1
0	2198	557.043229291203	0
0	2215	559.239049419669	1
0	2216	559.538593252195	0
0	2229	560.807373118169	1
0	2231	561.183364994672	0
0	2296	574.396492697272	1
0	2297	576.683559410156	0
0	2303	577.362470041642	1
0	2307	579.002519856882	2
0	2308	579.692244753256	1
0	2314	580.04163135804	0
0	2341	585.524726120019	1
0	2342	585.872805057892	0
0	2415	607.957323629917	1
0	2419	610.604843524269	0
0	2466	624.910740228234	1
0	2471	626.977001269759	0
0	2478	627.737624695415	1
0	2479	628.134350373083	0
0	2488	628.599543929865	1
0	2489	629.640900124618	0
0	2499	631.214220672312	1
0	2501	632.344809599069	2
0	2503	633.286492222938	3
0	2506	635.636385191047	2
0	2511	635.804720159838	1
0	2518	637.677260594033	2
0	2521	638.635481708467	3
0	2523	639.03922238418	2
0	2532	642.955831434086	1
0	2539	644.339871412675	0
0	2559	646.013023945158	1
0	2560	646.171872894392	0
0	2580	648.73691737097	1
0	2581	648.81901396082	0
0	2594	650.115351624504	1
0	2597	651.768757772895	0
0	2620	656.926919444616	1
0	2621	658.200964750639	0
0	2631	661.645098008491	1
0	2633	662.265156250866	2
0	2634	662.754252968753	1
0	2640	662.833109824261	2
0	2644	663.742375881805	1
0	2649	665.122757523252	0
0	2660	665.913142843615	1
0	2663	667.496645099185	0
0	2675	670.281163010412	1
0	2677	671.341075888765	0
0	2683	671.355126239898	1
0	2684	672.532733496108	0
0	2714	675.949196059241	1
0	2715	676.298866803143	0
0	2738	683.898482127824	1
0	2744	687.958776491316	2
0	2748	689.045063979129	3
0	2749	689.492896479541	2
0	2755	689.625761419235	3
0	2757	690.326748673002	2
0	2766	691.015601018607	3
0	2767	691.213872542122	2
0	2775	691.89087026672	3
0	2776	692.402062948402	2
0	2781	692.504708758753	1
0	2787	693.490050071638	2
0	2790	696.173655436415	3
0	2791	696.919033572864	2
0	2797	698.29399468395	1
0	2805	699.649966423183	2
0	2806	699.779999671227	1
0	2814	701.410068974696	0
0	2828	704.521886100919	1
0	2829	704.909193099263	0
0	2848	709.092641123017	1
0	2851	713.624842892629	2
0	2852	714.018793503728	1
0	2858	714.110551033532	0
0	2872	716.061639127925	1
0	2873	716.449265212816	0
0	2885	719.489104082517	1
0	2886	719.575031282955	0
0	2934	740.773964911176	1
0	2936	741.31118742434	2
0	2938	741.48930358867	1
0	2943	741.637204574679	0
0	2949	741.717446880881	1
0	2950	741.900717118339	0
0	2977	748.27416614392	1
0	2981	751.049862848395	2
0	2982	752.617895274122	1
0	2990	753.631268364397	0
0	3027	763.035148685283	1
0	3033	765.438415252342	2
0	3034	766.005353229438	1
0	3041	767.186033010333	2
0	3045	768.74544984504	3
0	3046	769.465627335108	2
0	3055	772.298205007966	3
0	3057	772.621742313707	4
0	3060	773.971057901386	3
0	3065	774.367575467342	2
0	3071	774.699395725182	3
0	3079	777.183927091734	4
0	3080	777.420245877912	3
0	3086	779.46525173762	2
0	3091	779.492564669165	1
0	3098	780.189134613986	2
0	3100	781.060591223849	1
0	3105	781.316678212661	0
0	3122	784.975765101324	1
0	3123	785.68302256521	0
0	3141	790.175868286722	1
0	3142	790.729403288033	0
0	3148	791.890644506574	1
0	3150	792.317197849262	2
0	3153	794.60780900845	3
0	3154	794.611247541629	2
0	3159	794.799411790429	1
0	3165	795.668485749424	0
0	3171	795.725146083113	1
0	3175	796.43018227295	2
0	3177	797.607196099523	1
0	3183	798.9440174947	0
0	3194	802.639857165405	1
0	3200	804.066159085988	2
0	3202	804.216646956527	3
0	3204	805.555470041256	4
0	3206	807.555610419121	5
0	3208	807.63005863722	6
0	3209	808.384179452841	5
0	3215	808.396453269947	4
0	3221	809.396488396779	3
0	3228	810.282917157772	4
0	3230	810.78642493649	5
0	3232	811.202346289156	6
0	3236	811.98151791758	7
0	3237	812.843833359302	6
0	3246	814.476965354414	5
0	3251	814.520087491292	4
0	3260	815.010408498254	3
0	3269	817.260047335461	4
0	3270	817.431345665394	3
0	3275	817.505127763597	2
0	3280	818.731708069339	1
0	3285	819.105192863114	0
0	3304	820.080004770796	1
0	3309	822.590417691252	0
0	3315	823.662464466618	1
0	3318	824.090576074906	0
0	3341	829.238504985302	1
0	3343	831.650634386163	2
0	3344	832.098291053663	1
0	3350	833.166966802362	0
0	3369	840.667445949659	1
0	3370	841.328575778748	0
0	3389	842.288719065551	1
0	3391	842.551821089529	0
0	3403	843.969969494827	1
0	3405	844.17097764653	2
0	3407	844.509319108705	3
0	3409	847.602712254704	4
0	3410	848.458250205969	3
0	3415	848.6349835664	2
0	3420	850.97840857685	1
0	3425	850.992182077897	0
0	3431	851.107354630133	1
0	3436	853.55785204912	0
0	3475	863.671711199978	1
0	3478	864.735969664149	0
0	3484	864.952077324848	1
0	3486	865.261996063962	0
0	3526	870.522966794307	1
0	3529	872.560659325374	0
0	3542	873.769580401269	1
0	3543	874.17073157363	0
0	3570	881.065177053809	1
0	3574	882.267429140409	0
0	3593	883.266998085284	1
0	3594	883.896354012812	0
0	3652	897.936856959383	1
0	3653	898.556916232707	0
0	3682	910.440707035247	1
0	3684	911.345636970482	2
0	3686	912.034300988854	3
0	3687	912.466275801163	2
0	3693	914.696208587795	1
0	3698	914.754432182696	0
0	3706	915.998246916887	1
0	3708	916.270079351748	2
0	3711	916.982245872231	1
0	3716	917.237716899467	0
0	3729	920.035234592892	1
0	3736	923.72587859426	0
0	3749	929.714073744862	1
0	3750	930.396503424095	0
0	3762	931.747333465663	1
0	3763	932.519016337969	0
0	3780	934.902724401863	1
0	3782	935.286322416337	0
0	3789	936.488773989581	1
0	3790	937.192901313578	0
0	3812	940.677434498801	1
0	3814	940.901362567789	2
0	3817	942.110485194774	1
0	3823	943.51267597626	2
0	3825	945.20044118354	1
0	3832	945.772162480865	2
0	3833	946.258303482912	1
0	3839	946.588984585774	2
0	3841	946.673007197631	3
0	3842	946.795168937293	2
0	3847	947.056044947537	1
0	3853	948.010826679001	0
0	3883	952.205986294469	1
0	3885	952.830985664014	2
0	3889	953.691988033191	3
0	3891	956.131613362459	4
0	3893	956.659578038415	5
0	3895	957.636983446832	6
0	3896	959.27511816673	5
0	3902	961.279972291332	4
0	3908	961.405477945809	3
0	3913	961.760173947207	2
0	3919	963.583968724657	1
0	3924	964.146498427425	0
0	3941	966.618407268954	1
0	3943	967.147117390105	2
0	3944	967.469521383534	1
0	3950	967.761886307001	0
0	3956	967.923557175267	1
0	3957	968.604154722972	0
0	3985	974.840808339702	1
0	3987	974.918736452335	2
0	3992	979.057421281567	1
0	3998	979.552304156391	0
0	4025	982.484753445737	1
0	4030	985.658962964494	0
0	4047	986.222225766648	1
0	4049	986.464968650539	2
0	4051	986.578963709262	3
0	4052	987.442875884319	2
0	4058	988.083682942997	1
0	4064	988.315995959891	0
0	4081	990.198123451786	1
0	4086	993.99799517349	0
0	4098	996.759333198536	1
0	4101	998.182207239611	0
0	4117	1003.288250992699	1
0	4118	1007.287974634369	0
0	4125	1007.536467203123	1
0	4129	1008.514337308565	2
0	4130	1008.717046814645	1
0	4136	1009.29237465526	0
0	4144	1011.712253351631	1
0	4146	1011.861409092529	2
0	4148	1012.33151267615	3
0	4149	1012.424823269702	2
0	4155	1013.527716969985	3
0	4156	1015.399548548606	2
0	4165	1017.314186723317	1
0	4172	1017.993534170053	2
0	4174	1018.26410921637	3
0	4175	1018.658972302508	2
0	4181	1018.700085127195	3
0	4182	1018.898024037504	2
0	4189	1020.387568435554	3
0	4191	1021.370377786587	4
0	4192	1021.537131777158	3
0	4197	1022.231011229352	2
0	4204	1023.453432556112	1
0	4210	1023.568376251188	2
0	4212	1023.873345506292	3
0	4215	1024.636951752161	4
0	4219	1026.054538318596	5
0	4225	1027.442041145267	6
0	4226	1028.815850944973	5
0	4231	1028.928424721373	4
0	4237	1030.948590545217	3
0	4242	1031.304771688852	2
0	4247	1031.99018112577	1
0	4252	1033.894152278636	0
0	4258	1035.104757051663	1
0	4259	1035.174370096704	0
0	4277	1040.59661767378	1
0	4282	1043.505456452332	0
0	4294	1045.306167443681	1
0	4295	1045.537833293162	0
0	4320	1046.879808883336	1
0	4322	1047.054708179667	0
0	4351	1054.910862523702	1
0	4352	1055.037830111386	0
0	4376	1062.132801207375	1
0	4377	1062.68765222513	0
0	4394	1065.601067422179	1
0	4396	1066.448171557337	2
0	4400	1066.704443200089	3
0	4402	1067.551730941431	4
0	4403	1067.790402315297	3
0	4416	1069.4659262282	4
0	4418	1069.568520002125	5
0	4419	1070.182371941654	4
0	4425	1071.111267527728	3
0	4430	1071.227379584349	2
0	4436	1072.427969112166	3
0	4438	1073.740462916139	4
0	4439	1074.210780613929	3
0	4445	1074.998847362871	2
0	4450	1075.453427594781	1
0	4458	1075.874056949332	2
0	4459	1076.249025795535	1
0	4464	1076.296137677045	0
0	4477	1077.71192578879	1
0	4480	1078.261440206184	2
0	4481	1078.275362234173	1
0	4487	1078.409833996788	2
0	4490	1080.588745345275	3
0	4491	1080.749811629963	2
0	4495	1081.731493629137	3
0	4498	1084.035217496538	2
0	4502	1086.152330273892	3
0	4505	1087.513171965936	2
0	4511	1088.315892814598	3
0	4515	1091.914093656797	4
0	4516	1092.318144989875	3
0	4521	1092.435054747371	2
0	4527	1093.604941490845	3
0	4532	1095.499935891921	2
0	4536	1096.911186851439	3
0	4539	1099.465507499271	2
0	4547	1101.277836395137	3
0	4548	1102.146178701945	2
0	4553	1102.159849708259	1
0	4559	1102.365259505919	0
0	4571	1104.889576900045	1
0	4573	1105.750910500859	2
0	4574	1105.8267178271	1
0	4580	1105.881191363885	2
0	4581	1107.93186345049	1
0	4586	1108.453987486678	0
0	4592	1110.321083046775	1
0	4594	1110.60051560339	2
0	4596	1111.553425908216	3
0	4601	1113.790755739553	2
0	4608	1115.071907412364	1
0	4613	1115.27324705185	0
0	4617	1115.416100665856	1
0	4619	1115.87982874856	2
0	4622	1116.551826961345	1
0	4626	1117.153619889522	2
0	4628	1120.007743041469	3
0	4633	1121.84697014668	4
0	4634	1122.459167799738	3
0	4640	1123.407235403849	4
0	4642	1124.779721460277	5
0	4646	1125.53754816017	4
0	4651	1125.646751531733	3
0	4655	1125.800460469914	4
0	4658	1128.215715069202	3
0	4668	1133.048305219168	4
0	4669	1133.288132557013	3
0	4675	1134.065611427684	4
0	4682	1136.344927164249	3
0	4688	1136.720577542843	2
0	4696	1139.485566454283	1
0	4702	1139.488170720363	2
0	4704	1139.561577932972	3
0	4705	1139.73130996068	2
0	4711	1140.904208984276	1
0	4717	1141.640685955574	0
0	4734	1146.187040149918	1
0	4736	1147.579299296772	0
0	4743	1149.903702341245	1
0	4744	1150.397243137374	0
0	4756	1154.22238695374	1
0	4758	1155.141770900893	2
0	4759	1155.630982627782	1
0	4765	1155.801948943413	0
0	4787	1158.645021713563	1
0	4791	1160.10504477718	2
0	4794	1161.208603419291	1
0	4802	1162.627802071479	0
0	4809	1164.326642542576	1
0	4810	1164.749356970119	0
0	4845	1177.330588031219	1
0	4856	1181.653359249388	0
0	4866	1183.706016947196	1
0	4873	1184.796823852529	2
0	4875	1185.097116815004	3
0	4876	1185.263096468138	2
0	4886	1186.508902420549	3
0	4892	1186.814527274639	4
0	4893	1187.675736427399	3
0	4899	1188.064221653361	2
0	4904	1188.414978323883	1
0	4910	1189.786990020851	0
0	4955	1202.194861442001	1
0	4957	1204.755256377318	2
0	4959	1205.742677807188	3
0	4960	1206.17228023144	2
0	4966	1207.313920408343	1
0	4974	1209.367126131256	0
0	4980	1209.7496478885	1
0	4982	1210.437266674783	0
0	5005	1217.421476781361	1
0	5006	1217.983629538476	0
0	5030	1221.599254436146	1
0	5033	1222.421426110195	0
0	5064	1229.409163012015	1
0	5067	1230.467441831004	0
0	5076	1232.052308567194	1
0	5078	1232.257906929369	2
0	5081	1232.632199094121	1
0	5086	1232.863958926626	0
0	5117	1236.159459127617	1
0	5121	1238.308853002206	0
0	5127	1238.335339302265	1
0	5128	1238.800928009027	0
0	5179	1258.786944133983	1
0	5184	1260.296897237139	2
0	5185	1260.772266631131	1
0	5190	1261.153491365105	0
0	5237	1269.847479482773	1
0	5238	1271.066799999761	0
0	5285	1284.39612982972	1
0	5287	1284.728774932876	2
0	5288	1284.941111021051	1
0	5293	1285.021096923347	0
0	5370	1302.324723528867	1
0	5371	1302.70684423173	0
0	5388	1305.665065153112	1
0	5390	1305.955571342818	2
0	5394	1307.275760980799	3
0	5396	1308.286935882342	4
0	5399	1310.740905357278	3
0	5405	1312.431362973426	2
0	5410	1312.490872116673	1
0	5415	1312.726067970742	0
0	5422	1313.169497513602	1
0	5427	1314.173241012193	0
0	5441	1316.96726059897	1
0	5443	1317.925317178393	2
0	5444	1319.741777591436	1
0	5452	1322.202811865658	0
0	5481	1325.275339720231	1
0	5482	1325.555603285815	0
0	5495	1331.001161872106	1
0	5498	1332.812786380987	2
0	5500	1333.417831139823	3
0	5501	1333.570208135647	2
0	5509	1333.967690024696	3
0	5511	1335.967289343786	2
0	5516	1336.729379591489	1
0	5522	1336.996142535275	2
0	5524	1339.284624023226	1
0	5529	1340.452656679487	0
0	5544	1341.8970778164	1
0	5545	1341.998646947412	0
0	5563	1344.724240433349	1
0	5568	1345.366235404263	2
0	5570	1346.087996955112	1
0	5578	1346.977022528087	0
0	5585	1349.106105883138	1
0	5591	1351.427038896245	2
0	5592	1351.707262541713	1
0	5597	1351.875181207071	0
0	5621	1355.821334819918	1
0	5622	1356.15816021733	0
0	5645	1360.653294375184	1
0	5650	1362.523487708342	0
0	5670	1364.791017855192	1
0	5673	1366.275762962999	0
0	5696	1370.835343370431	1
0	5701	1371.524082511883	0
0	5726	1375.521708876104	1
0	5727	1376.758138878762	0
0	5751	1379.818853499558	1
0	5752	1380.613393273258	0
0	5758	1380.635256437997	1
0	5760	1381.155822004223	0
0	5790	1395.437706451661	1
0	5793	1395.959285866027	0
0	5849	1411.13148725725	1
0	5852	1414.198831717361	0
0	5962	1463.849441555913	1
0	5964	1465.098145285313	0
0	5970	1465.382174416333	1
0	5972	1465.959541821385	0
0	5981	1467.708428511233	1
0	5983	1467.996679671725	2
0	5984	1468.194198388869	1
0	5991	1468.80848212419	2
0	5993	1470.535167073509	1
0	6001	1471.244041424787	0
0	6013	1472.616694776489	1
0	6014	1472.623579377994	0
0	6043	1478.101455619867	1
0	6045	1479.091653121925	0
0	6052	1479.635659474636	1
0	6058	1483.148019649654	2
0	6060	1484.422983333929	3
0	6061	1485.62671313273	2
0	6067	1486.249603485974	1
0	6072	1488.089433471484	0
0	6138	1504.580108991386	1
0	6139	1504.708354865418	0
0	6154	1508.451484182282	1
0	6156	1508.767392825976	2
0	6158	1509.068345323705	3
0	6159	1509.852557579099	2
0	6165	1510.825520319949	1
0	6171	1510.917232602034	2
0	6173	1511.727897307062	1
0	6181	1513.114997426697	0
0	6187	1513.397359514887	1
0	6188	1513.479604203737	0
0	6199	1514.235072278038	1
0	6200	1514.326976463613	0
0	6222	1520.432200010993	1
0	6225	1520.748276312752	0
0	6231	1521.410529494758	1
0	6232	1521.692987686966	0
0	6242	1524.905425239413	1
0	6247	1527.800551260756	0
0	6253	1527.989918110063	1
0	6254	1528.814367837015	0
0	6265	1530.233920227537	1
0	6267	1530.67687402577	2
0	6270	1531.213237262547	1
0	6276	1532.146829256238	2
0	6280	1532.266175942719	3
0	6281	1532.267673343648	2
0	6288	1532.706266390912	1
0	6292	1534.810037168854	2
0	6295	1536.404212416192	1
0	6299	1537.037303672505	2
0	6307	1540.236828516339	3
0	6309	1541.246032158796	2
0	6314	1541.246124180715	1
0	6320	1541.762996466067	0
0	6326	1541.861700492035	1
0	6328	1542.118356545533	2
0	6331	1542.384479965739	1
0	6336	1543.455688705856	0
0	6340	1544.280207375372	1
0	6344	1545.611554560223	2
0	6346	1546.220286864006	3
0	6350	1546.799001455484	4
0	6352	1547.15754880019	5
0	6354	1547.265262069076	4
0	6367	1549.697364355895	3
0	6372	1550.183514449511	2
0	6380	1551.224725843546	1
0	6385	1551.260760241901	0
0	6391	1551.264384598115	1
0	6395	1554.250959275885	0
0	6402	1555.069677262389	1
0	6404	1555.302316828323	2
0	6406	1556.431161263432	1
0	6412	1556.97671628506	2
0	6413	1557.14897180685	1
0	6419	1557.833915681546	0
0	6425	1558.228851414085	1
0	6427	1558.969508302103	0
0	6452	1563.349822168398	1
0	6455	1564.704257109572	2
0	6457	1565.318491218808	3
0	6459	1565.677911950778	4
0	6460	1566.972254230574	3
0	6465	1566.995448590097	2
0	6470	1567.185776370187	1
0	6475	1567.274542208695	0
0	6481	1567.524877990628	1
0	6483	1568.978144480394	2
0	6488	1569.590396943196	1
0	6496	1571.672162295494	0
0	6506	1573.744107438955	1
0	6510	1575.630789392583	2
0	6512	1578.129554316252	3
0	6515	1579.67198833002	2
0	6520	1580.042742426569	1
0	6529	1580.983638385436	0
0	6560	1585.761604509651	1
0	6564	1587.208988427412	2
0	6565	1587.519053080238	1
0	6573	1587.860218166099	2
0	6575	1589.229955492931	1
0	6581	1589.402989355339	0
0	6605	1595.697383327929	1
0	6609	1596.51428863632	2
0	6612	1598.560676401363	1
0	6617	1598.86014479536	0
0	6626	1600.16534015892	1
0	6630	1600.513871917102	2
0	6632	1600.521571819521	3
0	6633	1600.575571884036	2
0	6639	1600.832948882657	3
0	6640	1601.155755931806	2
0	6645	1601.239650540689	1
0	6651	1601.389555167374	2
0	6653	1601.39684815781	3
0	6656	1602.667911862248	2
0	6662	1603.181344852944	1
0	6680	1609.994208261771	0
0	6687	1610.371854285778	1
0	6689	1610.494060936431	2
0	6692	1611.068785169224	1
0	6698	1613.224865456723	0
0	6722	1618.112530188456	1
0	6723	1620.22365243154	0
0	6735	1621.590050156129	1
0	6736	1621.696684420873	0
0	6743	1621.865782069112	1
0	6744	1622.152105101275	0
0	6758	1623.489416551101	1
0	6759	1624.105462671864	0
0	6768	1625.258807708879	1
0	6769	1625.526834754117	0
0	6795	1629.582213690794	1
0	6796	1630.427796166797	0
0	6802	1631.075965543529	1
0	6804	1632.368476570271	2
0	6808	1634.035507751215	1
0	6814	1635.089883159177	0
0	6843	1637.61561134528	1
0	6845	1638.675746995863	2
0	6847	1639.656471795857	3
0	6849	1639.772124411082	4
0	6854	1641.482736198076	3
0	6862	1642.409902386722	4
0	6863	1642.925549440955	3
0	6868	1643.335402237012	2
0	6878	1644.336934374487	1
0	6885	1645.524776868112	0
0	6902	1648.250635787601	1
0	6903	1648.333456759657	0
0	6946	1652.972267011569	1
0	6949	1655.156369763753	0
0	6967	1658.761242716015	1
0	6968	1659.016762988012	0
0	6983	1662.664229675734	1
0	6987	1663.481954523928	2
0	6992	1665.760088660479	1
0	6997	1665.885421376378	0
0	7010	1667.86172093843	1
0	7011	1668.430055625686	0
0	7035	1670.472691295511	1
0	7039	1671.648152970146	0
0	7058	1676.720146080595	1
0	7060	1677.880822067762	2
0	7062	1678.268913780199	3
0	7064	1679.847548356108	4
0	7067	1680.537627507799	3
0	7072	1681.09759199792	2
0	7082	1682.650092942702	3
0	7083	1682.867463301147	2
0	7091	1683.343849125102	1
0	7100	1684.374148464422	2
0	7102	1685.2817069866	3
0	7104	1685.527659712287	4
0	7105	1685.859371561728	3
0	7111	1687.425706685018	2
0	7117	1687.606719791192	1
0	7123	1689.093714143958	0
0	7137	1691.459007836324	1
0	7139	1692.387710710933	2
0	7140	1693.248856745036	1
0	7146	1693.288392115272	2
0	7147	1694.066918980587	1
0	7153	1695.856725245607	0
0	7170	1698.789539997645	1
0	7173	1701.664591380023	0
0	7184	1704.503038975311	1
0	7185	1705.342367895887	0
0	7194	1706.42539895587	1
0	7196	1706.528444298474	2
0	7198	1707.0285012408	3
0	7201	1707.51982737962	2
0	7206	1707.584357331625	1
0	7212	1708.478465910468	2
0	7217	1709.481938878512	1
0	7224	1713.047964287941	0
0	7235	1714.864192738004	1
0	7236	1715.802950014801	0
0	7246	1717.247774015637	1
0	7247	1717.857131748295	0
0	7267	1720.61063836269	1
0	7273	1721.041129780439	2
0	7275	1721.044769295247	3
0	7279	1723.822524312607	4
0	7280	1724.293980267669	3
0	7285	1724.581977525662	2
0	7291	1725.260312807706	3
0	7293	1725.26104614552	4
0	7294	1725.95144830851	3
0	7301	1727.375285911174	4
0	7305	1729.206787325413	3
0	7310	1729.231038123919	2
0	7316	1729.348863394375	3
0	7318	1729.648172187861	2
0	7325	1730.25861990161	3
0	7326	1731.491983407444	2
0	7333	1732.18181121127	3
0	7335	1732.269475120293	4
0	7336	1732.581613327139	3
0	7341	1732.811326778531	2
0	7348	1733.93201556653	1
0	7353	1736.158021248026	0
0	7374	1738.870981805561	1
0	7379	1739.40630927584	0
0	7385	1740.710461134611	1
0	7386	1740.756139199995	0
0	7390	1741.153995042057	1
0	7393	1741.758060256283	0
0	7397	1741.792666964805	1
0	7399	1742.262901133783	2
0	7401	1743.955976633991	3
0	7407	1746.57226468583	2
0	7414	1747.809619668107	1
0	7419	1747.923508243443	0
0	7496	1770.737039119847	1
0	7499	1773.648856497734	2
0	7500	1775.449106425714	1
0	7507	1778.715298593793	0
0	7540	1784.949706312541	1
0	7541	1785.160861727185	0
0	7547	1785.699382565147	1
0	7548	1786.432559231859	0
0	7554	1786.738156224525	1
0	7556	1787.273172595774	0
0	7563	1787.605727430371	1
0	7564	1787.707832055115	0
0	7577	1790.563028175777	1
0	7582	1793.991314312077	0
0	7656	1824.322358446751	1
0	7658	1824.505110411003	2
0	7659	1824.923648636745	1
0	7664	1825.080767805178	0
0	7694	1828.421053610963	1
0	7697	1830.383313965705	0
0	7726	1839.131355613418	1
0	7727	1839.328727115203	0
0	7735	1840.199464651862	1
0	7738	1841.070719483406	2
0	7739	1841.257305854467	1
0	7745	1842.393520861673	0
0	7766	1846.342185529294	1
0	7772	1851.743695477388	2
0	7774	1852.988555335804	3
0	7781	1856.992135359066	2
0	7786	1857.323712430887	1
0	7792	1859.066334515932	0
0	7803	1863.152338760735	1
0	7810	1864.299222609964	0
0	7820	1866.031038851193	1
0	7822	1867.41190157033	2
0	7824	1867.88923798154	3
0	7825	1868.591867477933	2
0	7832	1869.717295841627	3
0	7835	1871.743698419567	2
0	7840	1872.194165274179	1
0	7845	1873.531071097127	0
0	7851	1874.201703000655	1
0	7852	1874.229580748184	0
0	7887	1880.673351911649	1
0	7888	1881.268342714922	0
0	7899	1883.031205557828	1
0	7906	1885.447273383567	2
0	7908	1885.901772588665	3
0	7909	1886.76524044247	2
0	7914	1887.031226763899	1
0	7924	1888.990655319569	0
0	7930	1889.309810330123	1
0	7934	1890.814333920725	0
0	7941	1891.351837218325	1
0	7943	1892.463500518971	0
0	7950	1893.271325683355	1
0	7951	1893.379009792662	0
0	8001	1900.880876829777	1
0	8004	1902.566308715153	0
0	8015	1903.15022423398	1
0	8019	1904.209049345447	2
0	8021	1904.479887211857	3
0	8028	1906.952114074438	4
0	8029	1908.881580901721	3
0	8035	1910.546410075921	2
0	8041	1910.652781207437	3
0	8044	1911.446536704225	4
0	8046	1912.470923905001	5
0	8048	1914.952932744244	6
0	8049	1915.008717239719	5
0	8054	1915.509165525682	4
0	8060	1916.073645828092	3
0	8066	1916.412891832889	2
0	8074	1917.378270095791	1
0	8081	1918.362049237474	0
0	8135	1926.795700309092	1
0	8137	1929.977867905299	0
0	8152	1933.292443164426	1
0	8153	1933.674473748575	0
0	8159	1933.701045118989	1
0	8161	1934.402113521606	0
0	8192	1940.473321269114	1
0	8193	1940.673658757376	0
0	8210	1942.687542652709	1
0	8215	1943.75374389374	0
0	8229	1948.027550818077	1
0	8233	1949.968824812724	0
0	8253	1955.262992115764	1
0	8254	1955.529242783333	0
0	8292	1967.304513833361	1
0	8295	1970.097368585005	2
0	8296	1970.447283388002	1
0	8301	1972.529378127107	0
0	8360	1985.775087024189	1
0	8361	1986.06951728907	0
0	8382	1990.676311934087	1
0	8385	1992.2851964774	0
0	8394	1993.994683314887	1
0	8398	1994.314512979661	2
0	8399	1995.208520818521	1
0	8405	1996.406097845774	0
0	8417	1996.70949609914	1
0	8418	1996.774312602775	0
0	8469	2015.169886836566	1
0	8470	2015.473180019399	0
0	8512	2033.784499063703	1
0	8517	2035.417306125505	2
0	8518	2036.353013899121	1
0	8523	2036.693911377095	0
0	8531	2037.780370124848	1
0	8537	2043.267572118281	2
0	8538	2043.972133933548	1
0	8545	2044.608737884418	2
0	8547	2044.883412018865	3
0	8548	2046.101273000129	2
0	8553	2046.537165072235	1
0	8558	2046.965266825761	0
0	8576	2049.352829972663	1
0	8581	2051.233931422553	2
0	8582	2051.253646755722	1
0	8587	2051.681501776736	0
0	8646	2063.852389578281	1
0	8648	2064.521465921113	2
0	8652	2065.420098206876	3
0	8660	2069.242389491776	4
0	8666	2071.562135998076	5
0	8667	2072.391371016594	4
0	8673	2073.093357811088	5
0	8675	2074.725853221517	4
0	8682	2076.014227813898	3
0	8687	2076.043705896405	2
0	8694	2076.915185665078	1
0	8699	2077.107232780449	0
0	8726	2081.23607058638	1
0	8731	2082.879826233031	0
0	8749	2087.141313652038	1
0	8750	2087.181566387268	0
0	8758	2087.707424228636	1
0	8761	2088.008155804762	2
0	8762	2088.339759311206	1
0	8767	2088.826342308149	0
0	8792	2091.578398072163	1
0	8794	2091.971684008193	2
0	8795	2092.255456242981	1
0	8801	2092.782151984098	0
0	8815	2096.230521485393	1
0	8816	2096.281095775801	0
0	8822	2096.481178429707	1
0	8825	2098.009181840876	0
0	8865	2104.686373881722	1
0	8867	2105.10856274931	2
0	8869	2105.292537513808	3
0	8872	2105.613378428973	4
0	8874	2105.973141727421	5
0	8877	2107.013344254943	4
0	8883	2107.525863728926	5
0	8886	2108.125779493371	6
0	8888	2108.780048015258	7
0	8890	2110.288019243198	6
0	8897	2110.660767980683	7
0	8899	2111.367800239969	6
0	8905	2112.374931638535	5
0	8912	2113.502335778581	6
0	8913	2114.511411077824	5
0	8920	2115.011052583278	6
0	8921	2116.073785648349	5
0	8927	2116.882960333296	4
0	8933	2117.413507651852	3
0	8938	2117.518692860343	2
0	8944	2118.336340319703	1
0	8949	2119.557604904947	0
0	8983	2125.902692138004	1
0	8985	2126.827363350309	2
0	8988	2128.098098445582	1
0	8994	2128.15098478556	2
0	8996	2128.582648338484	3
0	8998	2128.762948984343	4
0	8999	2129.662744584581	3
0	9005	2129.91977565358	2
0	9011	2132.709763264822	3
0	9013	2133.064572329794	2
0	9018	2135.067528019433	1
0	9023	2135.383897905243	0
0	9077	2150.629516007327	1
0	9080	2151.316557183149	2
0	9082	2151.927054931822	3
0	9083	2151.989436155571	2
0	9088	2152.131098510023	1
0	9093	2152.20413689848	0
0	9101	2152.90424797938	1
0	9107	2154.445321950932	2
0	9111	2155.777450104141	3
0	9116	2156.933410160026	4
0	9118	2156.989103799544	5
0	9119	2157.60268564735	4
0	9124	2157.765389965646	3
0	9129	2158.072201408451	2
0	9136	2161.197941328118	3
0	9139	2162.31111269292	2
0	9144	2162.383085799425	1
0	9149	2162.789328619402	0
0	9182	2169.294496462458	1
0	9183	2170.112974413403	0
0	9237	2184.024260274232	1
0	9238	2184.269205305797	0
0	9245	2184.872090538883	1
0	9246	2185.181691975763	0
0	9276	2193.001445484265	1
0	9278	2194.139740243659	2
0	9280	2195.793090282559	3
0	9282	2196.868013878244	2
0	9288	2197.022233745909	3
0	9291	2197.821900729767	2
0	9296	2198.264334587578	1
0	9301	2198.266423626774	0
0	9307	2198.904286032305	1
0	9308	2199.693050889869	0
0	9334	2205.686770000239	1
0	9336	2206.723220879828	0
0	9360	2215.468539205416	1
0	9361	2216.082924180578	0
0	9376	2218.684392133833	1
0	9380	2219.576252710685	0
0	9386	2221.067450206762	1
0	9387	2221.520827989697	0
0	9436	2237.675724761553	1
0	9437	2239.325781777874	0
0	9464	2243.744667698948	1
0	9465	2243.942395860957	0
0	9481	2248.574250923427	1
0	9482	2248.738810699435	0
0	9489	2249.055498655265	1
0	9490	2249.663984277547	0
0	9531	2256.307329540203	1
0	9533	2256.801905824161	0
0	9564	2263.13539752845	1
0	9566	2263.804233113891	2
0	9568	2264.774879836378	1
0	9573	2265.021502689138	0
0	9588	2267.620103752925	1
0	9590	2269.233130891932	2
0	9592	2269.274255632503	3
0	9593	2269.330550585056	2
0	9599	2270.245752050761	3
0	9600	2271.012531818436	2
0	9608	2271.718742889017	3
0	9609	2271.957000461648	2
0	9615	2272.886848542384	3
0	9617	2274.608921889585	2
0	9622	2274.821618187028	1
0	9627	2274.866799942473	0
0	9647	2277.497854646236	1
0	9649	2277.94936142699	0
0	9655	2277.965952293128	1
0	9656	2278.076064554686	0
0	9664	2279.243404533069	1
0	9666	2279.777482030885	0
0	9672	2279.808066206376	1
0	9674	2280.251571648409	2
0	9675	2280.681907296741	1
0	9680	2280.976165129635	0
0	9684	2284.030898337556	1
0	9690	2285.445377884959	0
0	9701	2287.889021605694	1
0	9705	2289.991726242752	0
0	9712	2290.230728708162	1
0	9714	2290.239523771514	2
0	9715	2290.453854335377	1
0	9720	2291.005506555006	0
0	9743	2297.812067049784	1
0	9746	2298.512909855829	0
0	9752	2298.58922154481	1
0	9758	2299.684765625101	2
0	9760	2300.082081817526	1
0	9766	2302.291017333869	0
0	9794	2305.955619510621	1
0	9796	2309.315878871808	0
0	9826	2316.469085154175	1
0	9829	2317.21445725285	2
0	9830	2318.026306756137	1
0	9835	2318.137315210651	0
0	9850	2322.385739644295	1
0	9852	2322.790873088766	2
0	9853	2323.699103876031	1
0	9858	2323.808450306356	0
0	9866	2324.475037291399	1
0	9869	2324.747041714266	0
0	9875	2324.862442767671	1
0	9880	2325.629400104612	0
0	9899	2329.895772998602	1
0	9900	2330.23334781446	0
0	9934	2337.807221615734	1
0	9935	2337.848111849383	0
0	10014	2358.95578489643	1
0	10015	2359.594553058114	0
0	10034	2360.956166687912	1
0	10039	2364.849778033359	0
0	10045	2364.944311785436	1
0	10046	2365.254452405595	0
0	10052	2365.475617361304	1
0	10053	2366.038085204219	0
0	10100	2373.779231655455	1
0	10102	2373.816833767167	2
0	10107	2377.058571313631	3
0	10108	2377.505631988476	2
0	10113	2377.601341331084	1
0	10118	2378.341457751008	0
0	10127	2379.883762849666	1
0	10128	2379.967141947359	0
0	10134	2380.212254948076	1
0	10136	2380.677950880554	2
0	10137	2380.784318815311	1
0	10142	2380.873176609946	0
0	10167	2388.313857142383	1
0	10171	2390.07826650812	0
0	10178	2390.207046446637	1
0	10179	2390.50285994436	0
0	10194	2394.394456456488	1
0	10195	2394.966067048199	0
0	10223	2399.119425453479	1
0	10227	2400.100465423948	0
0	10279	2412.078104644301	1
0	10281	2412.104353085923	2
0	10282	2412.364566423601	1
0	10288	2413.569443894071	0
0	10318	2427.357541486038	1
0	10321	2428.69166339481	0
0	10359	2440.181835684993	1
0	10365	2442.857577552493	0
0	10377	2443.453444737651	1
0	10378	2444.955907686548	0
0	10395	2449.966043438185	1
0	10398	2450.992906014116	0
0	10405	2451.052614226566	1
0	10407	2451.58234074618	2
0	10408	2451.993890729813	1
0	10413	2452.206150437989	0
0	10426	2452.800189926755	1
0	10431	2457.683378095555	2
0	10433	2459.141063657791	1
0	10439	2459.350677576744	2
0	10441	2460.965799356405	1
0	10446	2461.051660592121	0
0	10469	2466.194059867642	1
0	10471	2467.069408579977	2
0	10474	2467.8151547015	1
0	10479	2467.974912891085	0
0	10528	2482.598950411055	1
0	10530	2485.906690427433	0
0	10543	2489.585949119054	1
0	10545	2489.844071011764	0
0	10559	2492.648377709673	1
0	10561	2494.271410058899	0
0	10567	2494.305529548877	1
0	10568	2495.621260855999	0
0	10623	2505.449905051272	1
0	10626	2508.03662348748	0
0	10652	2515.778330070357	1
0	10658	2518.877241804257	0
0	10670	2520.035997734949	1
0	10671	2520.317834340425	0
0	10720	2534.078680001345	1
0	10724	2535.648270019143	0
0	10735	2536.133623085338	1
0	10737	2537.083331849355	0
0	10743	2537.243983326958	1
0	10745	2537.791180145259	0
0	10752	2540.271519185965	1
0	10753	2541.342855061018	0
0	10802	2555.842963579158	1
0	10803	2556.977435003386	0
0	10816	2560.8805584301	1
0	10817	2561.6324829069	0
0	10841	2563.749589965104	1
0	10842	2563.75685609842	0
0	10910	2576.872926364112	1
0	10914	2578.463999304537	0
0	10949	2583.955797554937	1
0	10951	2586.037041147329	0
0	10957	2586.156144118348	1
0	10963	2587.643581677136	0
0	10974	2588.730465919912	1
0	10977	2589.95386651138	0
0	10995	2592.378606310282	1
0	10997	2593.15990244846	2
0	11000	2594.122310874741	3
0	11003	2596.394553033178	2
0	11010	2597.392856573014	1
0	11017	2599.009960198443	2
0	11019	2600.176267554241	3
0	11021	2603.391543112063	2
0	11027	2603.714068147773	1
0	11032	2603.75295095015	0
0	11048	2608.145671274538	1
0	11050	2610.429189491028	0
0	11080	2617.666935328028	1
0	11083	2618.708145814187	0
0	11094	2619.406910340639	1
0	11095	2621.060299502722	0
0	11169	2636.497140979457	1
0	11171	2639.232541037924	0
0	11202	2644.469404267206	1
0	11203	2646.127001075875	0
0	11217	2649.003661344518	1
0	11219	2649.220795559435	2
0	11220	2649.99111800277	1
0	11228	2650.57779640637	0
0	11255	2657.47983391152	1
0	11262	2659.556314245856	0
0	11311	2670.965402201748	1
0	11313	2671.039893754343	2
0	11316	2673.624332640753	3
0	11317	2675.634521240529	2
0	11323	2676.652996649085	1
0	11329	2677.213125476666	2
0	11330	2678.123942153285	1
0	11335	2679.354348739461	0
0	11343	2680.897744771452	1
0	11344	2681.345715410948	0
0	11351	2682.474832641654	1
0	11353	2682.838801468026	2
0	11356	2684.820239661133	3
0	11361	2685.800216665648	4
0	11362	2687.569501664925	3
0	11367	2688.094364273583	2
0	11374	2688.431375913665	1
0	11382	2689.459988892028	2
0	11383	2689.515313006892	1
0	11390	2691.245095751547	0
0	11419	2693.68206630908	1
0	11420	2694.245194185627	0
0	11487	2715.250928467623	1
0	11490	2716.317022523773	0
0	11509	2718.839216690393	1
0	11513	2720.742616541386	0
0	11532	2723.602372972714	1
0	11533	2723.803093216976	0
0	11553	2729.657445503949	1
0	11554	2730.274363666418	0
0	11583	2738.994987322621	1
0	11587	2740.612895662016	2
0	11589	2741.401649107137	3
0	11590	2742.156146944051	2
0	11595	2742.816677663118	1
0	11606	2744.083998724178	0
0	11618	2746.336235347454	1
0	11623	2749.133464919016	0
0	11632	2749.744344055581	1
0	11635	2750.331075593063	0
0	11651	2754.263836212671	1
0	11653	2755.342866061078	0
0	11667	2756.651756514567	1
0	11677	2758.626679161049	0
0	11698	2761.459502508383	1
0	11704	2762.576346810811	2
0	11709	2763.63371379503	1
0	11718	2765.087039975151	2
0	11719	2765.696115801754	1
0	11724	2765.727675846216	0
0	11730	2766.255657895551	1
0	11732	2766.635948893279	0
0	11754	2769.211607526108	1
0	11756	2769.754250209257	2
0	11759	2770.143397210433	1
0	11764	2770.180475168976	0
0	11859	2800.500961966494	1
0	11862	2801.234257423065	2
0	11863	2803.310719791836	1
0	11871	2807.221938020035	0
0	11885	2813.661921580309	1
0	11886	2813.769720356307	0
0	11915	2819.968881562645	1
0	11917	2821.960466993971	0
0	11923	2821.981972701327	1
0	11925	2822.150090076639	0
0	11961	2831.826207069187	1
0	11963	2831.971609987605	0
0	11986	2833.690432786568	1
0	11989	2834.635801557885	2
0	11994	2835.567592640942	1
0	12001	2836.257361764858	0
0	12008	2837.160357898665	1
0	12012	2838.668667135378	2
0	12013	2838.929310580091	1
0	12018	2839.057684275766	0
0	12033	2842.191586199094	1
0	12035	2843.994641003904	0
0	12063	2847.167422890734	1
0	12064	2847.17061718464	0
0	12091	2854.81033096588	1
0	12092	2855.900206421798	0
0	12106	2866.259763366762	1
0	12108	2867.723749502018	2
0	12109	2867.857827311833	1
0	12115	2868.093352639386	2
0	12116	2868.153292619793	1
0	12121	2868.801901811494	0
0	12142	2871.99024386199	1
0	12143	2872.072666976491	0
0	12183	2879.726272280086	1
0	12186	2880.038730704044	2
0	12188	2880.433148178356	3
0	12192	2882.633596243276	2
0	12197	2882.71517335721	1
0	12202	2882.723409474601	0
0	12225	2888.821760144746	1
0	12230	2890.588394232429	2
0	12231	2890.741420157397	1
0	12237	2890.75358222645	2
0	12239	2891.460752337814	1
0	12245	2892.43172542411	0
0	12283	2901.865810611899	1
0	12285	2902.996201940012	2
0	12287	2904.678185539325	1
0	12297	2906.383341685605	0
0	12385	2930.478249623806	1
0	12386	2931.388625694455	0
0	12414	2938.038025180682	1
0	12418	2939.503923387969	2
0	12419	2939.769708873867	1
0	12424	2942.081120927869	0
0	12476	2952.473355139623	1
0	12478	2953.063683116386	0
0	12496	2954.416151610765	1
0	12503	2957.233393016874	2
0	12506	2958.191729009265	1
0	12512	2958.382349932812	2
0	12513	2959.405843792583	1
0	12519	2960.144607224422	0
0	12575	2972.653692150492	1
0	12580	2973.484747230844	2
0	12582	2974.352501295266	3
0	12587	2977.776163969275	2
0	12593	2977.791659575933	3
0	12594	2978.215838557776	2
0	12599	2978.819712622844	1
0	12604	2979.234898214926	0
0	12627	2982.655973909063	1
0	12628	2982.843612206561	0
0	12650	2985.566742779466	1
0	12651	2986.732900984857	0
0	12657	2987.456141427674	1
0	12659	2988.668180477917	0
0	12671	2989.458186894439	1
0	12672	2990.919197898269	0
0	12684	2992.058621970201	1
0	12685	2994.585561432461	0
0	12692	2995.414521702958	1
0	12693	2995.537383374148	0
0	12700	2995.646034597384	1
0	12701	2995.934348753799	0
0	12725	3000.022553591007	1
0	12729	3001.760092552939	2
0	12730	3002.639179502718	1
0	12736	3004.815647040504	0
0	12752	3008.624402708038	1
0	12755	3010.095185960953	0
0	12767	3012.420901595785	1
0	12772	3014.67468593523	2
0	12773	3015.223969455035	1
0	12778	3015.323744018981	0
0	12842	3035.155171012842	1
0	12843	3035.208281295121	0
0	12847	3036.664253029579	1
0	12850	3038.127361597853	0
0	12857	3039.605879133512	1
0	12860	3040.001546627653	0
0	12876	3043.875211109405	1
0	12877	3044.746791205322	0
0	12899	3048.775214238938	1
0	12900	3048.934419550466	0
0	12922	3056.197992085414	1
0	12928	3058.693956307084	0
0	12964	3064.287231477118	1
0	12965	3064.366817925657	0
0	12985	3068.218310436564	1
0	12989	3069.706323715574	2
0	12991	3069.814577931679	3
0	12993	3070.536244799348	2
0	12998	3071.334517594515	1
0	13004	3071.869399142964	2
0	13007	3074.764111486746	1
0	13017	3076.27046003376	0
0	13038	3081.036562893796	1
0	13040	3081.130777047168	2
0	13041	3081.539541870521	1
0	13047	3082.289923200703	2
0	13049	3082.853793440712	1
0	13055	3083.531595589692	2
0	13056	3085.221746114166	1
0	13061	3085.230576012514	0
0	13099	3097.035910794501	1
0	13103	3098.355444858508	0
0	13183	3111.375897060434	1
0	13185	3111.457643631922	2
0	13187	3111.518265165007	3
0	13188	3111.819407030196	2
0	13194	3112.18425114112	3
0	13195	3114.311521896153	2
0	13200	3114.800798869297	1
0	13207	3116.381574021324	0
0	13229	3125.386241476121	1
0	13232	3126.172570240059	0
0	13238	3126.538983339032	1
0	13240	3127.666166358214	0
0	13253	3129.47544911609	1
0	13255	3131.129074090395	0
0	13265	3132.843478129615	1
0	13267	3133.882846978955	0
0	13292	3135.869268779414	1
0	13295	3139.370408040599	0
0	13308	3141.542138401819	1
0	13313	3143.54106946046	0
0	13319	3143.725282491582	1
0	13325	3145.34045868768	2
0	13327	3145.420370395963	3
0	13329	3145.461840573765	4
0	13330	3147.899821271445	3
0	13336	3147.941886365988	4
0	13339	3148.340298728172	5
0	13340	3149.583037835285	4
0	13347	3149.927322868183	5
0	13349	3150.102140334039	6
0	13350	3150.894510806006	5
0	13356	3151.234207191503	6
0	13357	3151.25427951643	5
0	13363	3152.325934940246	4
0	13368	3152.333908781134	3
0	13375	3153.884419422064	4
0	13376	3153.897549536527	3
0	13381	3153.963654324545	2
0	13389	3154.769948843159	3
0	13391	3155.495084697864	4
0	13392	3155.751308421329	3
0	13397	3156.339219383643	2
0	13403	3156.878056050217	3
0	13404	3157.218123955246	2
0	13408	3157.321645940213	3
0	13410	3159.237048541912	4
0	13415	3162.279395311769	3
0	13420	3164.21620314026	2
0	13428	3167.487550802941	1
0	13433	3167.8246668083	0
0	13463	3173.709347911282	1
0	13469	3174.988375564884	0
0	13510	3188.048224654661	1
0	13515	3188.567093141345	0
0	13526	3189.863023063461	1
0	13528	3191.155486492869	0
0	13542	3192.036382388159	1
0	13543	3192.129019216863	0
0	13552	3194.011753607834	1
0	13554	3195.707146072475	0
0	13578	3202.333305664719	1
0	13579	3202.886021268618	0
0	13612	3212.483327975509	1
0	13613	3213.206389808358	0
0	13629	3214.652265224517	1
0	13631	3215.25912314884	2
0	13632	3215.361415157265	1
0	13637	3215.675137951081	0
0	13650	3216.031003834883	1
0	13652	3216.534039790669	2
0	13653	3217.049585573113	1
0	13660	3217.33748184549	0
0	13667	3218.979615684392	1
0	13668	3219.357504562394	0
0	13686	3221.243465403317	1
0	13688	3222.366503455616	2
0	13689	3222.782606678503	1
0	13694	3223.229579726521	0
0	13700	3224.428995241474	1
0	13702	3224.999057783087	0
0	13714	3227.36511728116	1
0	13718	3228.267682273504	0
0	13724	3228.943771443876	1
0	13727	3229.363588557559	0
0	13735	3230.40940238311	1
0	13736	3230.622473051767	0
0	13782	3236.6064184509	1
0	13783	3237.142215905829	0
0	13845	3255.721533452308	1
0	13846	3255.881983094056	0
0	13852	3256.616876149608	1
0	13855	3259.86585207929	2
0	13856	3260.093169891133	1
0	13861	3260.516848574586	0
0	13869	3261.820450675407	1
0	13870	3261.835330147358	0
0	13878	3262.760712786321	1
0	13879	3263.349510388607	0
0	13894	3265.56354344825	1
0	13895	3265.807268489067	0
0	13902	3266.344200630837	1
0	13903	3266.414352334072	0
0	13909	3266.437800810798	1
0	13911	3266.968036699546	0
0	13918	3267.311471021425	1
0	13919	3267.979948669259	0
0	13967	3282.871007110681	1
0	13969	3283.605796751777	0
0	14041	3306.675281704807	1
0	14043	3306.926590493787	2
0	14045	3308.191293774879	3
0	14046	3308.693218292616	2
0	14052	3309.980022101903	1
0	14057	3311.695583085995	0
0	14132	3332.575395720849	1
0	14134	3333.205642786056	0
0	14138	3335.391322058259	1
0	14141	3337.055891390811	0
0	14157	3343.527150986436	1
0	14159	3344.827583427049	0
0	14172	3346.057650452372	1
0	14173	3346.201969910073	0
0	14190	3349.668684159739	1
0	14192	3349.950208685938	2
0	14194	3350.650739083793	1
0	14203	3352.085572945655	2
0	14204	3352.412041573989	1
0	14210	3353.488874355918	0
0	14227	3356.062660206344	1
0	14228	3356.064124761043	0
0	14234	3356.075654312722	1
0	14236	3356.594776543001	0
0	14250	3358.87090120239	1
0	14253	3360.395751240759	2
0	14255	3361.724124172851	3
0	14256	3361.879913378597	2
0	14262	3362.158080763392	3
0	14265	3362.70768571939	2
0	14273	3364.0278757533	1
0	14278	3364.593806562836	0
0	14289	3365.918239297705	1
0	14290	3366.060314456503	0
0	14317	3375.232463111577	1
0	14318	3376.049926973959	0
0	14333	3378.63797154907	1
0	14334	3378.695273042601	0
0	14356	3385.486259187458	1
0	14357	3385.624208973959	0
0	14363	3385.728851755934	1
0	14364	3386.038178172535	0
0	14432	3404.988113348261	1
0	14435	3406.004192421756	0
0	14473	3416.547256296015	1
0	14474	3417.526297749205	0
0	14488	3426.215421227949	1
0	14490	3426.448951214458	2
0	14491	3426.650551806575	1
0	14496	3427.216726792925	0
0	14503	3427.679770062124	1
0	14506	3427.956668600293	0
0	14512	3428.206952418522	1
0	14513	3428.405994575006	0
0	14520	3428.536022925108	1
0	14521	3429.447597340077	0
0	14548	3433.377489863899	1
0	14550	3434.395391079089	0
0	14573	3437.004270806776	1
0	14575	3437.754660488833	2
0	14576	3437.895722482359	1
0	14581	3439.64458649654	0
0	14629	3448.492625411886	1
0	14631	3448.95018117747	2
0	14635	3449.285212685859	1
0	14641	3450.65799971247	2
0	14645	3452.120333815974	3
0	14646	3452.260538120378	2
0	14652	3452.292242972749	3
0	14654	3452.632891565154	2
0	14661	3453.384696157674	3
0	14662	3453.693659223056	2
0	14667	3453.76047446327	1
0	14673	3454.101613011538	0
0	14679	3454.592069588377	1
0	14683	3455.13674067133	2
0	14684	3455.270869344205	1
0	14690	3455.408404973118	2
0	14694	3457.182185718999	3
0	14697	3457.743710090071	4
0	14701	3458.160313253155	5
0	14702	3459.404517021388	4
0	14708	3459.607860235668	3
0	14715	3461.60355226046	2
0	14721	3464.29919302622	3
0	14723	3464.325024053526	4
0	14724	3464.438109154882	3
0	14732	3468.448323153205	2
0	14740	3469.854075402294	1
0	14747	3471.050689656095	0
0	14754	3472.489500140735	1
0	14756	3472.922725145748	0
0	14763	3473.138865562986	1
0	14765	3473.691157121514	0
0	14771	3473.828389329723	1
0	14772	3475.360148595733	0
0	14790	3477.613314582506	1
0	14793	3479.732686163001	2
0	14794	3479.952690978757	1
0	14800	3481.251832367476	0
0	14828	3488.557248454606	1
0	14829	3489.219217906893	0
0	14865	3497.958815607019	1
0	14867	3498.11109199324	2
0	14868	3499.213071782624	1
0	14873	3499.341251274802	0
0	14922	3508.514867009512	1
0	14925	3509.900016613212	0
0	14936	3511.291794723183	1
0	14938	3511.338087537518	2
0	14939	3511.352454945248	1
0	14948	3511.826920981757	0
0	14954	3512.094005759924	1
0	14956	3512.981722533363	0
0	14988	3516.795385534093	1
0	14990	3517.026704708529	2
0	14991	3517.271276938966	1
0	14996	3517.493939553389	0
0	15056	3536.682915466351	1
0	15059	3537.948102648496	2
0	15060	3538.583009512422	1
0	15066	3539.139055404111	0
0	15092	3542.348284625155	1
0	15094	3542.478116791992	2
0	15095	3542.813803964679	1
0	15100	3542.816159490433	0
0	15122	3551.10188292757	1
0	15126	3552.594805507084	0
0	15146	3554.124432035175	1
0	15147	3554.137353297044	0
0	15236	3573.659601364095	1
0	15237	3575.922061574005	0
0	15257	3577.377186517909	1
0	15259	3578.087360234803	2
0	15260	3578.25973757292	1
0	15265	3578.903578719112	0
0	15300	3595.097662867413	1
0	15301	3595.106409170825	0
0	15330	3605.050079041561	1
0	15331	3606.011086441515	0
0	15343	3608.92667710657	1
0	15345	3609.225914424185	2
0	15351	3611.365291573594	1
0	15357	3612.178106801582	0
0	15458	3640.012962762178	1
0	15461	3640.746293784068	0
0	15467	3640.892395739191	1
0	15468	3640.944689389855	0
0	15520	3655.428242976965	1
0	15523	3656.279770792291	0
0	15527	3657.275931721433	1
0	15530	3659.41665520857	0
0	15536	3659.891435355232	1
0	15537	3659.969262874724	0
0	15558	3661.880945702095	1
0	15563	3663.059525165496	0
0	15574	3663.63462297905	1
0	15577	3664.332161239176	2
0	15581	3665.208893491432	3
0	15583	3666.15532833845	4
0	15584	3666.274132839444	3
0	15589	3666.412855715952	2
0	15595	3666.668814395282	3
0	15597	3666.795483557016	4
0	15599	3669.012453226517	3
0	15605	3670.175047225922	2
0	15614	3674.296163666557	1
0	15619	3674.878322914767	0
0	15667	3681.946425947897	1
0	15672	3683.899382717191	0
0	15701	3690.474350063716	1
0	15703	3691.415547382447	2
0	15705	3692.618072865783	3
0	15706	3694.432633409647	2
0	15715	3696.451569661055	3
0	15717	3696.953716073152	4
0	15718	3698.211382379928	3
0	15723	3698.818562731368	2
0	15731	3699.133014139721	1
0	15736	3699.374752293711	0
0	15742	3699.397903302953	1
0	15744	3699.72756646302	2
0	15747	3701.019452546125	1
0	15752	3701.029531666789	0
0	15771	3702.322762953016	1
0	15773	3702.602794532568	2
0	15777	3705.292682165304	3
0	15779	3705.51312849912	2
0	15785	3706.080987929677	1
0	15790	3707.342913056365	0
0	15829	3718.714927610322	1
0	15830	3719.234973612839	0
0	15903	3740.400659563266	1
0	15905	3742.557554204927	0
0	15955	3753.495974554127	1
0	15957	3753.84388735322	2
0	15960	3754.963216042071	3
0	15961	3755.389928180469	2
0	15968	3756.674473007473	1
0	15973	3756.84686134543	0
0	15985	3759.474555431338	1
0	15986	3759.741187984365	0
0	16002	3760.579032889859	1
0	16003	3761.644761199064	0
0	16059	3775.036291322179	1
0	16060	3775.303470519005	0
0	16109	3787.891218307489	1
0	16110	3789.265196979312	0
0	16139	3799.750574223446	1
0	16142	3801.535558595276	0
0	16148	3801.916202677158	1
0	16151	3802.276130675594	2
0	16152	3802.423540715134	1
0	16160	3803.827799112615	0
0	16166	3804.074780781178	1
0	16167	3804.077210147318	0
0	16173	3804.329936327799	1
0	16177	3805.333829148683	0
0	16196	3812.315147797671	1
0	16198	3812.519496277149	2
0	16199	3813.428490786776	1
0	16205	3813.542989178565	2
0	16206	3814.575321060687	1
0	16212	3815.065102255517	0
0	16278	3834.371719618367	1
0	16280	3836.40570830358	0
0	16319	3846.442235612726	1
0	16320	3846.813161470989	0
0	16342	3852.609864078312	1
0	16343	3853.743297169404	0
0	16352	3854.677615651794	1
0	16354	3854.854613426927	2
0	16358	3855.477042334214	1
0	16365	3855.921133691646	2
0	16367	3856.119093139468	3
0	16368	3857.106383851647	2
0	16377	3858.533922792035	1
0	16382	3859.342817535488	0
0	16399	3860.819212039591	1
0	16401	3861.012945098282	0
0	16424	3868.720144224056	1
0	16426	3868.901270064472	2
0	16428	3870.915492641121	3
0	16430	3872.237921375201	4
0	16432	3873.011938638708	5
0	16433	3873.433251924652	4
0	16439	3873.772226601773	3
0	16445	3874.34520457347	2
0	16450	3874.351490838021	1
0	16455	3874.524911456806	0
0	16469	3875.599867676277	1
0	16471	3875.678971354414	2
0	16474	3879.27337906623	1
0	16479	3879.426762900943	0
0	16509	3885.706841040687	1
0	16512	3885.848724343131	0
0	16567	3898.776898120785	1
0	16568	3900.567119839927	0
0	16597	3909.602971164385	1
0	16599	3909.676076232571	2
0	16600	3909.714251691966	1
0	16609	3912.027303782123	0
0	16615	3912.431454262751	1
0	16617	3913.12887884091	2
0	16618	3913.910919325767	1
0	16630	3914.821372610013	2
0	16631	3914.872418315309	1
0	16636	3915.343732241495	0
0	16650	3919.333782289947	1
0	16654	3920.042233631424	0
0	16660	3920.408758475368	1
0	16662	3921.314193987102	0
0	16681	3925.361797605335	1
0	16683	3926.228786471174	2
0	16685	3926.526939003777	3
0	16686	3927.28340046253	2
0	16693	3929.040388126989	1
0	16699	3929.261017995205	2
0	16703	3931.091227766747	1
0	16709	3931.384431754253	2
0	16711	3934.262629900471	1
0	16716	3934.463117050288	0
0	16732	3937.295489311999	1
0	16734	3938.454494094956	0
0	16787	3952.498373217473	1
0	16790	3952.880938425975	2
0	16791	3952.885057817318	1
0	16797	3953.014243660777	2
0	16798	3953.305534708849	1
0	16805	3953.583448979346	0
0	16832	3960.668331344245	1
0	16835	3961.352582855705	0
0	16859	3967.641865531941	1
0	16860	3968.896786994147	0
0	16867	3969.819411789288	1
0	16869	3971.014916774517	0
0	16893	3975.849627882537	1
0	16894	3975.960663075268	0
0	16915	3983.280804513785	1
0	16921	3983.97187359727	2
0	16922	3984.220543809545	1
0	16927	3984.544901661531	0
0	16942	3985.469702746498	1
0	16947	3986.697586618906	2
0	16951	3987.360206316975	3
0	16957	3991.420233732016	4
0	16959	3991.60992845003	5
0	16960	3991.851753848939	4
0	16966	3992.006870532778	5
0	16967	3992.90353342115	4
0	16975	3993.654657837698	5
0	16977	3993.680697359517	6
0	16978	3994.188597235148	5
0	16983	3994.403541866931	4
0	16988	3995.453855965104	3
0	16993	3995.792070306922	2
0	16998	3996.308434400954	1
0	17004	3996.616422082157	0
0	17019	3997.81721175248	1
0	17025	4002.008713987678	2
0	17026	4002.085810901879	1
0	17031	4002.424124367757	0
0	17035	4002.550127753508	1
0	17041	4003.341515760614	0
0	17055	4005.884693350808	1
0	17059	4007.736624522751	2
0	17060	4007.764470796891	1
0	17066	4008.354190340413	2
0	17067	4008.67428225899	1
0	17071	4009.285248190002	2
0	17075	4010.671621994998	3
0	17083	4012.762403871191	4
0	17085	4013.467885085601	3
0	17090	4014.151225352725	2
0	17095	4015.692535333358	1
0	17101	4015.82217868382	2
0	17102	4016.174578480134	1
0	17110	4016.742235278809	0
0	17128	4019.388917661981	1
0	17130	4019.53694592903	2
0	17132	4019.789307738108	3
0	17133	4020.576192102391	2
0	17139	4021.279632102939	3
0	17140	4021.910400308213	2
0	17144	4022.268707093866	3
0	17153	4024.503927708764	2
0	17159	4028.648544470883	1
0	17165	4029.493344802601	0
0	17198	4032.624862629515	1
0	17200	4034.555205264394	2
0	17203	4035.470220331582	1
0	17211	4036.327417096491	0
0	17220	4037.92025978225	1
0	17222	4038.021505668269	2
0	17224	4039.163150499644	3
0	17227	4040.397867131987	2
0	17233	4041.233767980666	1
0	17238	4042.096757043587	0
0	17249	4045.29132734819	1
0	17251	4045.872878824646	2
0	17257	4047.59186953549	3
0	17258	4049.08618311356	2
0	17263	4049.322112289389	1
0	17268	4049.516156654284	0
0	17272	4049.51996746617	1
0	17275	4049.784928852393	0
0	17281	4050.513863620841	1
0	17286	4051.050220647211	2
0	17294	4052.902824163325	1
0	17300	4054.516549144681	2
0	17301	4054.647302930833	1
0	17307	4056.319301702696	2
0	17312	4057.345272930221	3
0	17313	4058.487875519029	2
0	17321	4059.464504489727	3
0	17326	4061.482898450723	2
0	17332	4061.711098852354	1
0	17337	4062.081267133296	0
0	17382	4073.499604542774	1
0	17384	4074.038849779046	2
0	17385	4074.068921495583	1
0	17391	4074.456735426261	0
0	17403	4077.206009370452	1
0	17406	4079.359364775251	0
0	17444	4086.670004252943	1
0	17445	4087.595945236323	0
0	17462	4090.368931631713	1
0	17464	4090.587578614791	2
0	17465	4091.71360267315	1
0	17470	4091.716396754301	0
0	17489	4093.697322808589	1
0	17497	4095.768565488484	2
0	17504	4099.005667015763	1
0	17509	4099.271178902799	0
0	17536	4107.384848316944	1
0	17541	4109.711581978593	2
0	17543	4111.850058579109	3
0	17545	4111.946316961973	4
0	17546	4112.174173980348	3
0	17551	4112.312744962631	2
0	17557	4112.528984690229	3
0	17558	4113.736341375156	2
0	17565	4113.997209121371	3
0	17567	4114.308430822328	4
0	17568	4114.407730084588	3
0	17573	4114.451030895353	2
0	17580	4115.75937295617	1
0	17585	4116.793820702781	0
0	17596	4117.677824547177	1
0	17600	4118.909590783291	0
0	17606	4120.171767352677	1
0	17608	4123.266974940667	2
0	17610	4123.805819282516	3
0	17613	4125.581607703867	2
0	17619	4128.503199991256	3
0	17620	4128.679949807145	2
0	17626	4130.292676923785	3
0	17627	4130.677515422129	2
0	17632	4131.13938344429	1
0	17636	4131.345770873324	2
0	17638	4133.763901126477	3
0	17640	4134.803502564487	4
0	17642	4135.44900146677	5
0	17646	4136.276134650531	6
0	17647	4136.31260070744	5
0	17653	4138.115652705151	4
0	17659	4138.602091522744	3
0	17666	4139.16042694324	4
0	17668	4139.389205414354	3
0	17675	4140.219968400535	2
0	17683	4140.652686958865	1
0	17688	4140.772374309858	0
0	17711	4145.510353992953	1
0	17712	4147.904918053067	0
0	17719	4148.315665381783	1
0	17720	4148.907531740469	0
0	17786	4165.323152534509	1
0	17789	4169.458782168059	0
0	17800	4171.384735254815	1
0	17804	4172.654314788391	0
0	17816	4174.363621430463	1
0	17817	4176.423176926723	0
0	17830	4177.880548614552	1
0	17833	4178.703566015204	0
0	17839	4178.917835405681	1
0	17841	4179.104656768908	2
0	17842	4179.266021326949	1
0	17847	4179.284683291755	0
0	17881	4190.562267247239	1
0	17882	4190.633325499844	0
0	17893	4190.762633686483	1
0	17895	4192.487023262925	0
0	17909	4193.545204354104	1
0	17913	4195.82501617068	0
0	17936	4201.181716326686	1
0	17937	4201.454750885989	0
0	17977	4210.295352531636	1
0	17983	4212.490361842721	2
0	17987	4215.767218571396	1
0	17992	4215.864634683831	0
0	18005	4217.001680593575	1
0	18006	4217.284962441626	0
0	18013	4219.651140429959	1
0	18016	4220.864469943628	2
0	18017	4223.022898993395	1
0	18023	4224.084134624978	0
0	18054	4229.64750085515	1
0	18061	4231.509570134421	2
0	18062	4232.414911362988	1
0	18069	4233.035186099966	2
0	18070	4234.810165267978	1
0	18076	4235.164512846298	0
0	18122	4250.421009113643	1
0	18125	4251.521879742627	0
0	18139	4253.142558389138	1
0	18140	4253.479861609098	0
0	18156	4256.699539791841	1
0	18158	4257.546429842636	0
0	18171	4258.486466060957	1
0	18173	4259.252474006379	0
0	18184	4260.347802848854	1
0	18185	4260.483492000152	0
0	18191	4260.997975793802	1
0	18196	4263.37930877843	2
0	18197	4263.988990053273	1
0	18202	4264.550808943276	0
0	18211	4266.935053171658	1
0	18212	4267.196767264839	0
0	18218	4267.889167595825	1
0	18220	4268.260357854692	2
0	18222	4268.278765281479	3
0	18223	4268.368340482422	2
0	18228	4269.350971498031	1
0	18233	4269.985654909106	0
0	18322	4298.807564673927	1
0	18323	4300.100130363226	0
0	18335	4301.442750552012	1
0	18336	4301.906043920314	0
0	18407	4323.954925251206	1
0	18408	4324.542817477123	0
0	18431	4330.605502693381	1
0	18434	4331.503782110786	0
0	18455	4339.282709978594	1
0	18458	4339.544126378913	0
0	18524	4360.522635024558	1
0	18525	4362.052702002667	0
0	18536	4364.205010558095	1
0	18545	4367.365373446181	0
0	18573	4372.130936309543	1
0	18574	4372.400227007995	0
0	18589	4374.557811386525	1
0	18592	4375.909098139068	2
0	18594	4375.942747438216	3
0	18596	4376.611199980324	4
0	18598	4377.836007946503	5
0	18600	4378.209187001951	6
0	18604	4379.464596848548	7
0	18605	4379.6158870794	6
0	18611	4380.406488400198	7
0	18613	4380.851637854671	8
0	18617	4381.589676151922	7
0	18623	4382.272868934937	6
0	18628	4382.295119405328	5
0	18634	4382.69611024265	6
0	18635	4383.190777133637	5
0	18640	4384.587837878153	4
0	18645	4384.640966938169	3
0	18653	4385.024810038786	4
0	18654	4385.109940504501	3
0	18658	4386.528129183291	4
0	18661	4388.57652135452	3
0	18666	4390.334861176423	2
0	18670	4391.752351172212	3
0	18672	4392.14148655483	4
0	18675	4393.299701654994	3
0	18681	4394.958001239844	4
0	18683	4396.26897023739	3
0	18688	4396.579012018184	2
0	18694	4398.913016074591	3
0	18695	4399.508860733737	2
0	18701	4400.33230581468	1
0	18706	4400.940968327382	0
0	18722	4402.54988825474	1
0	18724	4403.702985909961	2
0	18728	4405.104038063128	3
0	18730	4406.42678661032	2
0	18735	4406.682629193415	1
0	18742	4407.373878768011	0
0	18751	4410.857534451608	1
0	18753	4411.071132132111	2
0	18754	4411.210264651814	1
0	18758	4411.491636310415	2
0	18764	4412.719330229788	3
0	18765	4413.168075992145	2
0	18769	4413.653063133937	3
0	18773	4414.464732652451	2
0	18778	4414.494911991053	1
0	18783	4415.81838369443	0
0	18787	4416.126871017576	1
0	18790	4418.778974374479	0
0	18808	4421.297234027087	1
0	18810	4421.655648935577	2
0	18813	4422.603826031252	3
0	18814	4422.842772604083	2
0	18821	4423.280180618884	1
0	18826	4423.62501473848	0
0	18835	4424.30310689218	1
0	18840	4425.279066771486	2
0	18842	4425.638790778911	1
0	18849	4426.304129984714	0
0	18855	4426.487481624692	1
0	18860	4427.367865539818	2
0	18861	4428.173890996377	1
0	18867	4429.164894933233	2
0	18869	4429.435459996262	3
0	18874	4431.020909543007	2
0	18878	4432.223702826792	3
0	18881	4432.846127358765	2
0	18890	4436.297470203174	1
0	18901	4438.419564316983	0
0	18910	4439.203827101131	1
0	18912	4439.71197987519	0
0	18947	4444.314021680513	1
0	18948	4446.906006907341	0
0	18961	4449.334397173945	1
0	18963	4450.278856123445	2
0	18964	4451.222256667602	1
0	18971	4454.973640967828	2
0	18972	4455.532292690429	1
0	18979	4457.699051108223	2
0	18982	4458.487783053575	1
0	18988	4458.629423735271	0
0	19005	4461.279611464118	1
0	19006	4461.685671687399	0
0	19018	4465.331133782715	1
0	19020	4467.317313562883	2
0	19022	4467.86449721708	3
0	19024	4469.479439051558	4
0	19025	4469.849272672589	3
0	19030	4470.018997811635	2
0	19037	4470.483308193861	1
0	19045	4470.85131948886	2
0	19046	4470.986240907366	1
0	19052	4471.168172552935	2
0	19056	4472.562889599369	1
0	19062	4472.732589281717	2
0	19063	4473.489905398932	1
0	19069	4473.685553298506	0
0	19086	4474.519275598581	1
0	19087	4474.704743354141	0
0	19103	4476.046505314239	1
0	19104	4477.739457585404	0
0	19129	4483.289636997451	1
0	19134	4484.790975965736	0
0	19153	4487.659567846402	1
0	19155	4487.802505960619	2
0	19159	4489.686575977318	3
0	19160	4490.319554190281	2
0	19165	4490.472523895817	1
0	19171	4491.25523426939	2
0	19172	4491.386086012251	1
0	19180	4493.243241408884	2
0	19182	4493.504680577911	1
0	19186	4493.901793236489	2
0	19190	4494.745956911242	3
0	19194	4495.753097080707	2
0	19199	4495.96435817193	1
0	19204	4495.971800514609	0
0	19219	4496.96370035397	1
0	19220	4498.304082138582	0
0	19236	4501.510078473341	1
0	19238	4502.74775356006	2
0	19241	4503.681116216788	1
0	19246	4503.723396246548	0
0	19262	4507.49470075218	1
0	19264	4508.008959624098	2
0	19266	4508.288846424262	1
0	19272	4510.005279936075	0
0	19303	4516.81505802989	1
0	19306	4518.255295192863	0
0	19312	4518.892289434012	1
0	19314	4519.803422452341	0
0	19364	4528.272007970539	1
0	19365	4528.657416060343	0
0	19371	4528.748568514625	1
0	19374	4529.025339297729	0
0	19381	4529.719581300845	1
0	19382	4529.802434814597	0
0	19418	4541.062769200901	1
0	19419	4541.516232164488	0
0	19426	4543.297358314653	1
0	19427	4544.183314196827	0
0	19494	4557.752997816861	1
0	19495	4558.17340270755	0
0	19520	4559.346459078581	1
0	19521	4559.388437095171	0
0	19535	4563.28598930874	1
0	19538	4564.400147154771	0
0	19544	4564.502396636672	1
0	19547	4564.675806003784	2
0	19550	4566.235819457786	3
0	19557	4568.345860628975	2
0	19564	4569.799002076969	1
0	19570	4570.119011291025	0
0	19582	4571.739867290007	1
0	19583	4571.887098681714	0
0	19592	4572.665435766143	1
0	19597	4573.557127819242	2
0	19602	4577.13965757236	1
0	19608	4577.830504007693	0
0	19623	4579.179276205798	1
0	19625	4579.251612990285	2
0	19631	4582.826701121103	3
0	19633	4584.904809961032	4
0	19634	4584.918719468909	3
0	19643	4586.180936174888	4
0	19644	4588.501760082981	3
0	19651	4590.598992046358	4
0	19652	4592.389738310325	3
0	19658	4592.862788792531	4
0	19659	4592.901542573389	3
0	19664	4593.168387001893	2
0	19671	4593.737921867115	3
0	19673	4595.0589733095	2
0	19678	4595.422795489191	1
0	19685	4597.783011873837	0
0	19701	4598.732012376432	1
0	19703	4599.175510439787	2
0	19708	4600.815842927389	1
0	19718	4602.651150094007	0
0	19729	4604.458637242768	1
0	19731	4604.52175955848	2
0	19734	4604.610985082437	1
0	19739	4605.410746240839	0
0	19747	4605.843899480645	1
0	19748	4606.02034896879	0
0	19758	4606.697193655114	1
0	19760	4608.109488801391	2
0	19768	4608.74064638144	1
0	19774	4609.480867951051	2
0	19777	4610.012927644431	3
0	19780	4611.285094355549	2
0	19785	4611.733321649097	1
0	19791	4612.687913085708	2
0	19793	4613.638427807965	1
0	19801	4615.057425696796	0
0	19808	4615.859468914404	1
0	19810	4616.281894546739	2
0	19812	4616.346041553424	3
0	19813	4616.639326788391	2
0	19821	4617.807538225603	3
0	19822	4617.843930763206	2
0	19828	4618.088874989075	3
0	19830	4619.067264404233	2
0	19837	4620.522383681493	1
0	19845	4621.224987064991	0
0	19852	4621.75181864942	1
0	19853	4621.988063349608	0
0	19866	4622.805987918511	1
0	19867	4623.382427034363	0
0	19894	4624.701755219739	1
0	19898	4626.358982093854	2
0	19902	4627.662820768773	3
0	19905	4628.791611904644	4
0	19908	4633.096310464542	3
0	19915	4633.548773143371	4
0	19918	4633.681733846941	3
0	19923	4633.943224505315	2
0	19928	4634.064962737105	1
0	19934	4634.764704349503	0
0	19972	4640.272951010935	1
0	19980	4643.018464503727	2
0	19982	4643.039718782187	3
0	19983	4643.312510898661	2
0	19988	4643.430068459175	1
0	19994	4644.813359404968	0
0	20001	4645.83231779977	1
0	20002	4645.920266043789	0
0	20011	4648.350245088215	1
0	20017	4650.9148946799	2
0	20018	4651.574808979665	1
0	20023	4652.007916382841	0
0	20049	4656.82294710211	1
0	20051	4657.571458440685	2
0	20053	4657.908708052933	3
0	20061	4664.370956936528	2
0	20066	4665.090152736335	1
0	20071	4665.650135755257	0
0	20100	4670.795768265575	1
0	20102	4672.16127408252	0
0	20111	4672.943223388667	1
0	20112	4673.158897866889	0
0	20124	4674.004411960642	1
0	20126	4677.075715415886	0
0	20145	4679.450973583814	1
0	20147	4680.037154605297	2
0	20149	4680.132277007531	3
0	20155	4682.03782350663	2
0	20160	4682.427675238808	1
0	20165	4683.901337389261	0
0	20171	4684.223899619383	1
0	20172	4684.938048857034	0
0	20185	4686.297086801569	1
0	20188	4687.893203136434	0
0	20199	4689.886624413092	1
0	20205	4692.766963896533	0
0	20224	4693.707600146486	1
0	20228	4694.114449171579	2
0	20229	4694.283101749512	1
0	20237	4694.752610487245	2
0	20239	4696.079599136064	1
0	20247	4698.107232157694	0
0	20254	4698.655333245212	1
0	20258	4699.957681204098	0
0	20286	4707.670265816331	1
0	20287	4707.872877644123	0
0	20295	4708.507605449466	1
0	20298	4709.669763669451	2
0	20300	4710.386866991948	3
0	20302	4710.870773923696	2
0	20308	4710.882985862394	3
0	20310	4712.709428007471	2
0	20316	4713.072265841679	3
0	20320	4715.08264738975	2
0	20325	4715.12800359593	1
0	20331	4715.399456527086	0
0	20369	4724.91010336749	1
0	20371	4727.277591125311	2
0	20373	4727.352279815198	3
0	20374	4728.253405873109	2
0	20379	4729.335100851571	1
0	20388	4734.339025493723	0
0	20395	4735.006173656926	1
0	20397	4735.652972158112	2
0	20398	4736.877542551128	1
0	20403	4736.897429390348	0
0	20455	4750.24900876889	1
0	20456	4751.229812211585	0
0	20505	4757.318415377897	1
0	20507	4761.138892792519	2
0	20510	4761.954172016471	1
0	20516	4763.367326518497	0
0	20523	4763.770626829098	1
0	20525	4763.977914661865	2
0	20527	4764.201868027418	3
0	20528	4765.798111486342	2
0	20533	4766.292520971047	1
0	20538	4766.565098266116	0
0	20550	4768.628590048055	1
0	20552	4769.289416218757	0
0	20560	4769.818251275875	1
0	20561	4770.179955009285	0
0	20592	4779.408536405663	1
0	20594	4780.227459639799	2
0	20595	4780.910372278471	1
0	20602	4782.53639919698	0
0	20608	4783.031282135411	1
0	20609	4783.423326015529	0
0	20625	4790.41771790596	1
0	20629	4794.400892653239	0
0	20636	4795.797532455255	1
0	20638	4796.082616779083	2
0	20639	4796.927894611079	1
0	20644	4797.900764515854	0
0	20657	4799.59833116528	1
0	20658	4800.503076737994	0
0	20698	4810.423762682415	1
0	20703	4811.830672634231	2
0	20706	4812.899281859376	1
0	20712	4814.225664599696	2
0	20715	4815.422853086786	3
0	20716	4816.05466759303	2
0	20721	4816.145255066188	1
0	20731	4816.580167661388	2
0	20732	4817.14388414555	1
0	20739	4817.639647736682	2
0	20741	4821.098630195509	3
0	20744	4821.89885845057	2
0	20752	4822.453763556562	1
0	20757	4822.648349852538	0
0	20769	4823.605346431394	1
0	20772	4824.31197642857	0
0	20786	4826.935263393472	1
0	20788	4827.1123218361	2
0	20792	4828.082057555244	3
0	20793	4828.1868599028	2
0	20798	4828.663282115485	1
0	20807	4830.040930142347	0
0	20844	4835.232286262498	1
0	20845	4835.373016424908	0
0	20863	4839.275116296897	1
0	20864	4839.702564359182	0
0	20887	4848.180521383016	1
0	20890	4849.438050827948	0
0	20897	4850.257025821344	1
0	20900	4851.149018786221	0
0	20912	4851.406194780936	1
0	20916	4853.798522587214	0
0	20922	4855.364846353156	1
0	20925	4855.950479849097	0
0	20940	4858.24448944209	1
0	20942	4858.668281235727	2
0	20945	4862.692267887292	1
0	20950	4863.117009927648	0
0	20956	4863.750640905124	1
0	20958	4863.841755280486	2
0	20961	4865.887812198584	3
0	20962	4865.943537046617	2
0	20969	4866.948526292132	1
0	20974	4867.459257618466	0
0	20997	4872.052704103581	1
0	20998	4872.251922752414	0
0	21011	4873.501295440341	1
0	21014	4874.021676233271	2
0	21016	4875.284937200418	1
0	21022	4875.364106156234	0
0	21051	4881.653090117123	1
0	21053	4882.847723940595	0
0	21084	4894.471207997302	1
0	21085	4897.36515423337	0
0	21119	4904.964324046465	1
0	21121	4905.458480848983	2
0	21122	4905.663348127335	1
0	21127	4905.736877914969	0
0	21134	4906.360309357443	1
0	21136	4906.769216540793	0
0	21180	4922.38692660177	1
0	21181	4922.975465372198	0
0	21270	4950.033006363166	1
0	21272	4950.436904493503	0
0	21325	4961.218780742874	1
0	21326	4961.435022985987	0
0	21340	4963.333262339075	1
0	21345	4964.931526108351	0
0	21362	4968.670621013963	1
0	21363	4969.060068669877	0
0	21382	4972.685226202588	1
0	21383	4972.809143901991	0
0	21394	4974.327647252425	1
0	21395	4974.603032697853	0
0	21420	4978.909349082317	1
0	21423	4980.620715264139	0
0	21451	4987.429161278374	1
0	21453	4987.480719856659	2
0	21454	4987.964908942695	1
0	21460	4988.960125688097	0
0	21472	4989.488314648419	1
0	21473	4989.600475575921	0
0	21482	4992.103150061501	1
0	21483	4994.15923382749	0
0	21497	4996.189369795952	1
0	21500	4997.264446802997	0
0	21506	4997.310948401182	1
0	21507	4997.325022636647	0
0	21547	5006.223066124653	1
0	21549	5006.282703844099	2
0	21552	5007.097192150607	3
0	21553	5007.927997997033	2
0	21558	5008.400513099293	1
0	21564	5008.876574369632	0
0	21570	5008.890066858394	1
0	21572	5008.998192965152	2
0	21574	5010.406072276084	1
0	21580	5010.993134709053	0
0	21587	5011.499199849693	1
0	21588	5011.593985865159	0
0	21617	5016.815815628772	1
0	21620	5017.350265344733	0
0	21649	5024.40120247972	1
0	21651	5024.888244552251	2
0	21654	5029.000740917145	1
0	21659	5029.162136988296	0
0	21672	5031.40583655906	1
0	21674	5031.723374827026	0
0	21683	5032.435863919162	1
0	21690	5035.708667427358	0
0	21727	5043.428416727098	1
0	21730	5044.249027824843	0
0	21778	5056.514984932286	1
0	21782	5059.188103036077	2
0	21786	5061.606810775365	3
0	21788	5061.754562948018	4
0	21790	5063.148811125343	5
0	21792	5063.789585249597	6
0	21793	5064.203590155356	5
0	21799	5064.27743455579	6
0	21801	5066.431506882355	5
0	21807	5067.314621521823	4
0	21812	5067.643333459665	3
0	21817	5067.860495045436	2
0	21823	5068.642567142786	3
0	21825	5068.90552557464	4
0	21826	5068.907450667978	3
0	21834	5069.938776216822	2
0	21839	5070.224188543029	1
0	21844	5070.394804120932	0
0	21855	5070.550432341267	1
0	21856	5070.565937463958	0
0	21882	5076.148372415374	1
0	21884	5076.909599497768	0
0	21910	5086.090451636987	1
0	21911	5087.104647239441	0
0	22002	5104.849869170842	1
0	22003	5104.924958738597	0
0	22027	5114.715666961503	1
0	22028	5115.251301756076	0
0	22073	5126.54170045939	1
0	22075	5126.60152363405	2
0	22080	5128.013263198306	3
0	22081	5128.419693732733	2
0	22086	5129.312275763578	1
0	22092	5129.379726749259	2
0	22097	5130.754209014372	3
0	22098	5131.09958193944	2
0	22103	5131.388159033238	1
0	22110	5133.378257814948	0
0	22121	5134.31115530591	1
0	22124	5135.083168534031	0
0	22160	5144.479314738584	1
0	22161	5144.532805785111	0
0	22177	5146.719662492887	1
0	22185	5148.870750665347	2
0	22186	5149.370147581938	1
0	22192	5149.901756323418	2
0	22193	5150.59173453569	1
0	22198	5150.592557703152	0
0	22215	5152.49717187492	1
0	22217	5152.607507463244	2
0	22222	5154.839919886267	1
0	22230	5158.456049015673	0
0	22285	5169.194134852501	1
0	22288	5170.116906218544	0
0	22298	5172.647296397028	1
0	22301	5173.059292443765	0
0	22307	5173.138064057478	1
0	22308	5173.226540230915	0
0	22323	5177.950027447038	1
0	22325	5178.017116061961	2
0	22326	5179.151007741021	1
0	22332	5180.788246366712	0
0	22343	5184.754519123654	1
0	22346	5186.163342558	0
0	22361	5195.095943448031	1
0	22362	5195.395138417809	0
0	22379	5198.113872558535	1
0	22382	5199.927734739043	0
0	22432	5211.260227087379	1
0	22433	5212.177659673238	0
0	22446	5215.542696779672	1
0	22447	5217.263053644682	0
0	22470	5223.594202558006	1
0	22472	5223.637563514249	2
0	22473	5223.75150517815	1
0	22479	5224.654474656195	2
0	22481	5225.59904517399	1
0	22487	5226.422200293155	0
0	22501	5228.194302947156	1
0	22502	5229.190999836695	0
0	22516	5231.397439052615	1
0	22518	5231.508543482367	2
0	22521	5233.237391664755	1
0	22527	5234.080559684349	0
0	22534	5235.092298744253	1
0	22535	5235.225666739704	0
0	22554	5237.028601180489	1
0	22556	5237.584302320599	0
0	22562	5238.291588742798	1
0	22565	5239.073954287969	0
0	22590	5243.341939420059	1
0	22591	5246.659291533177	0
0	22599	5247.61321172641	1
0	22600	5248.74369520577	0
0	22606	5249.165786268323	1
0	22607	5249.257188650922	0
0	22648	5259.91243964342	1
0	22650	5261.110090285706	2
0	22652	5263.20357103215	3
0	22655	5267.310079175746	2
0	22662	5268.110591141289	1
0	22667	5268.335356418831	0
0	22686	5271.29255539355	1
0	22688	5273.505314224307	0
0	22705	5279.041925754861	1
0	22706	5279.834944151578	0
0	22730	5282.473398663132	1
0	22731	5282.841409578874	0
0	22761	5289.864648553412	1
0	22763	5290.503254725292	2
0	22765	5290.58526667068	3
0	22767	5292.301277339558	2
0	22773	5293.118240728163	1
0	22779	5295.445785011866	0
0	22804	5301.766683214915	1
0	22806	5302.107695632286	2
0	22807	5302.21568335192	1
0	22814	5302.515346337362	2
0	22816	5304.929790423663	3
0	22817	5305.391970721052	2
0	22823	5306.035338380005	3
0	22824	5306.45151588201	2
0	22835	5309.725587344636	3
0	22836	5309.906888150107	2
0	22842	5314.946784275196	1
0	22847	5316.07457282129	0
0	22878	5326.758603764282	1
0	22879	5327.051476106118	0
0	22892	5328.066437889583	1
0	22894	5329.146539017515	0
0	22935	5341.335387468031	1
0	22936	5341.666630065024	0
0	22944	5342.571748432204	1
0	22945	5342.605641979776	0
0	22951	5342.809678569655	1
0	22954	5343.40020275464	2
0	22955	5344.195460348669	1
0	22963	5345.436547784948	2
0	22965	5345.964507135356	3
0	22966	5346.037374009879	2
0	22972	5347.166314456329	1
0	22977	5348.189054857136	0
0	23018	5357.573495525621	1
0	23020	5359.712869411764	2
0	23021	5359.950953317537	1
0	23027	5361.394335377874	0
0	23040	5363.934879887713	1
0	23041	5364.011447447635	0
0	23047	5364.112662794786	1
0	23049	5364.794977220752	2
0	23050	5364.905113269874	1
0	23062	5367.073258150493	2
0	23063	5367.687565481344	1
0	23070	5369.017163311952	2
0	23071	5369.388331410154	1
0	23077	5369.803702891454	2
0	23081	5370.328890837986	3
0	23083	5372.296854999161	2
0	23089	5372.535690242739	1
0	23094	5373.042860192993	0
0	23138	5387.079188646153	1
0	23142	5388.74359591191	0
0	23235	5413.326765606753	1
0	23238	5414.756149613434	0
0	23245	5416.262695595286	1
0	23248	5416.696480817379	2
0	23252	5417.441604817597	3
0	23253	5418.172056791231	2
0	23259	5418.526604030972	1
0	23265	5419.561473267122	2
0	23266	5419.72545370092	1
0	23272	5420.400354027869	2
0	23273	5421.276395242827	1
0	23279	5421.93422447295	0
0	23292	5424.248172456188	1
0	23296	5425.091683288678	0
0	23321	5427.333450692146	1
0	23325	5428.556321459617	0
0	23332	5429.690699399713	1
0	23333	5429.707836418013	0
0	23362	5439.187787639248	1
0	23366	5442.378837454756	0
0	23376	5444.451413274875	1
0	23377	5445.025200433555	0
0	23498	5492.387630694226	1
0	23500	5493.92121644663	2
0	23501	5495.818485346366	1
0	23507	5496.778199584658	0
0	23532	5503.914041160913	1
0	23534	5504.035134025838	2
0	23538	5504.38371564447	3
0	23540	5505.971966551409	4
0	23544	5507.516460291704	5
0	23545	5508.90088302402	4
0	23551	5509.844962424792	3
0	23557	5510.270748001134	2
0	23562	5510.282960337896	1
0	23567	5510.316021415554	0
0	23585	5515.733814172589	1
0	23586	5517.279811650024	0
0	23593	5517.541399393216	1
0	23594	5517.589794280763	0
0	23636	5546.564822640597	1
0	23637	5546.779023326677	0
0	23667	5552.72674662766	1
0	23668	5553.875578765131	0
0	23690	5555.478629215221	1
0	23691	5555.52465024115	0
0	23702	5556.587090997801	1
0	23703	5557.337726400141	0
0	23743	5566.632790596479	1
0	23744	5567.257942629258	0
0	23752	5568.227489843289	1
0	23753	5568.57542057051	0
0	23768	5570.958273403488	1
0	23773	5572.793295121079	0
0	23787	5573.573327474813	1
0	23793	5575.746019003876	0
0	23800	5576.136401045484	1
0	23801	5577.783610349066	0
0	23807	5578.991191721388	1
0	23808	5579.004810243112	0
0	23816	5579.946058651756	1
0	23819	5580.969881910768	0
0	23835	5583.265152219942	1
0	23838	5585.960188516402	0
0	23844	5586.079309075664	1
0	23848	5587.57403940958	2
0	23849	5589.170381847309	1
0	23854	5589.266781133467	0
0	23865	5589.513174995265	1
0	23868	5591.530610747447	0
0	23896	5596.049674661471	1
0	23899	5597.400510069884	0
0	23946	5612.485369397629	1
0	23948	5612.789887814793	0
0	23962	5615.822265770492	1
0	23963	5617.691297458978	0
0	23969	5617.716490224853	1
0	23970	5617.776785443943	0
0	23993	5623.889776351325	1
0	23995	5624.126797372293	2
0	23996	5624.254066858327	1
0	24003	5625.145682243603	0
0	24050	5634.313000462562	1
0	24051	5634.506546103009	0
0	24066	5638.881360771323	1
0	24068	5639.233845893276	0
0	24091	5645.110532390355	1
0	24092	5645.432163066011	0
0	24111	5646.315821479205	1
0	24112	5646.370322055846	0
0	24192	5670.926430477806	1
0	24193	5671.221895038274	0
0	24261	5692.964672193795	1
0	24263	5693.323765581625	2
0	24264	5694.665042808975	1
0	24269	5694.73875341899	0
0	24316	5704.708072009497	1
0	24317	5704.846708725701	0
0	24332	5709.260903553769	1
0	24333	5710.076430222957	0
0	24346	5710.770654479825	1
0	24348	5715.17301577985	0
0	24436	5742.009363777433	1
0	24438	5742.152457099616	2
0	24439	5742.603647110202	1
0	24444	5742.66235548014	0
0	24450	5744.629883001431	1
0	24451	5744.678426781292	0
0	24457	5745.337600327806	1
0	24462	5746.732704469551	2
0	24464	5748.021833177671	3
0	24466	5748.293383531584	2
0	24472	5748.910620234413	3
0	24475	5750.173237401989	4
0	24476	5751.320372301893	3
0	24481	5751.587399203395	2
0	24488	5753.271516190752	1
0	24495	5756.734519432953	0
0	24501	5756.84049672929	1
0	24502	5758.147090274128	0
0	24508	5758.436893434624	1
0	24509	5759.200462239289	0
0	24515	5759.884057013702	1
0	24517	5760.721134190969	0
0	24619	5789.295502228287	1
0	24620	5789.726212175501	0
0	24634	5793.595814096645	1
[...]
5	117291	27804.867268468125	6.359390198384
5	117340	27809.865624698171	10.50577527545
5	117345	27810.865534363329	9.59431174202
5	117353	27811.927838273452	9.511923705537
5	117362	27813.748651594916	6.84641293402
5	117396	27823.462503519781	11.765934199841
5	117407	27824.767774034044	9.696053235338
5	117414	27826.809081956357	11.735547094192
5	117429	27838.312246928548	20.784744303111
5	117452	27843.989844163221	25.205805984583
5	117459	27845.58230846316	8.097760614399
5	117508	27853.823106866559	13.352433738471
5	117546	27860.064953454391	18.772120093145
5	117557	27864.002261824146	18.413153984944
5	117565	27865.454159481003	17.371806916748
5	117587	27869.879476732172	19.56713039901
5	117595	27871.852765953074	17.339372497775
5	117602	27872.658044758901	2.592361477838
5	117635	27882.977492520427	1.474915366394
5	117676	27889.658978793693	2.786508059463
5	117703	27893.695793512141	0.37576172169
5	117729	27903.168065628779	0.689232850531
5	117736	27908.133673356473	3.841873527302
5	117748	27910.332927357896	2.09506613338
5	117766	27915.381144755277	5.440960731777
5	117779	27917.668836559142	2.16681165884
5	117786	27919.457040327676	3.401961127678
5	117799	27925.557659918353	8.431400201341
5	117847	27935.934193242352	17.370567619176
5	117872	27939.067063427193	18.122908994092
5	117878	27939.508690472403	11.62757280491
5	117886	27944.757140474829	11.515619098035
5	117935	27956.101965482162	5.055522151771
5	117994	27966.060468498729	13.449291570973
5	118007	27970.00575740256	14.718621307507
5	118018	27970.588869732532	8.213878675012
5	118022	27970.887635428946	2.599603338842
5	118050	27976.275926066411	0.413945609239
5	118055	27976.775403011081	0.553683438342
5	118091	27985.580707279898	7.148646294048
5	118111	27989.561795442699	2.623029964828
5	118134	27995.957223350677	0.224529469439
5	118146	28001.929042840546	4.860692352393
5	118173	28005.992396270592	1.223895146374
5	118180	28008.261572568901	0.400470451184
5	118195	28010.907080897937	1.113369047233
5	118215	28017.153600415432	3.166726698513
5	118230	28021.700802889433	1.782872763327
5	118237	28023.589969087771	0.164487695891
5	118266	28032.159493162385	1.956577561149
5	118271	28033.46989836664	1.928086738862
5	118278	28034.239651352607	2.596084278844
5	118282	28035.686063123691	1.511740197362
5	118299	28039.827547708193	1.490949148745
5	118323	28046.763471529983	4.113291600594
5	118379	28056.622658029975	1.420188387254
5	118391	28059.374438856812	0.273977238691
5	118401	28060.281613763945	0.650839363925
5	118405	28060.43487689673	0.388670920192
5	118427	28066.914358227102	3.20427192067
5	118448	28071.946774884048	1.638527878836
5	118455	28075.617987095087	0.492426447431
5	118469	28079.826999597268	3.423933321712
5	118480	28081.33375282828	3.67673096369
5	118484	28083.062496034997	5.262881598967
5	118498	28086.513327399981	2.873374871089
5	118521	28090.665773247403	6.268057384677
5	118534	28093.818168135154	8.508622959163
5	118540	28095.067024387597	6.980125430824
5	118548	28095.991361732613	5.623371947185
5	118561	28097.610024468172	5.000646799834
5	118588	28102.338303335727	7.114950849216
5	118602	28104.48271496106	2.511853099627
5	118609	28107.313979655807	4.780518831448
5	118622	28110.326780674332	2.090817461303
5	118648	28126.170446356061	1.897380616323
5	118655	28128.202435366517	0.241726948825
5	118676	28133.712965463098	2.083997683172
5	118717	28139.883533302721	7.565490257382
5	118724	28140.6424840279	3.01687562785
5	118734	28141.21231719591	0.83210318279
5	118747	28145.53376334269	4.853232391318
5	118759	28152.308054548033	8.590809301669
5	118870	28175.959755687838	22.658960397885
5	118877	28177.102018062956	7.070475405341
5	118882	28180.143554940394	5.605247149368
5	118887	28181.568823085826	4.795550465533
5	118904	28187.089802741703	0.01138363458
5	118949	28194.288367724139	3.767373997083
5	118962	28196.525777512523	1.088748138971
5	118987	28203.711086468718	0.893406381951
5	119045	28217.570261335294	0.446554271368
5	119053	28218.993903342907	1.415299095037
5	119060	28220.746108064618	0.266926326201
5	119076	28226.793979090034	0.46165330059
5	119083	28230.894187351867	0.408692563519
5	119098	28235.340563165731	0.161316233507
5	119169	28250.690691841584	11.507787070725
5	119174	28251.222121224441	8.215419766661
5	119180	28252.222286554128	8.727501466242
5	119191	28257.505562922007	9.935375395078
5	119236	28267.701186951554	13.825852761014
5	119249	28271.780411805542	10.730301272778
5	119293	28278.051919607577	6.698571841815
5	119299	28279.760129119944	6.481095589061
5	119307	28281.201958209524	6.285440744777
5	119317	28283.429919971378	5.488112336116
5	119349	28286.670119974778	5.555444918429
5	119368	28293.269014299924	1.710036081808
5	119386	28295.79505329375	1.37432417046
5	119425	28302.272271666436	2.698530036383
5	119445	28306.52587933528	6.200914108843
5	119452	28306.824534017078	5.844123413614
5	119459	28309.04370342461	7.649266460971
5	119470	28312.504281368223	8.324563335548
5	119479	28313.709200269967	5.916256914347
5	119491	28316.028766161111	6.912408091463
5	119502	28322.323923118692	12.591779853071
5	119513	28323.634414369077	12.051061772233
5	119519	28325.009012360026	11.67899185588
5	119530	28330.91328204896	13.155379569869
5	119553	28339.216326908849	20.949424708429
5	119563	28341.850739369731	16.506408629036
5	119572	28344.118489654388	10.282101755558
5	119592	28352.213867747498	17.878172239114
5	119655	28364.239698101757	21.759179616943
5	119662	28364.798500170587	22.235440494724
5	119673	28365.926723501106	20.804773834858
5	119678	28365.929394423269	13.635155932121
5	119683	28368.876011376916	13.627352605215
5	119692	28375.21055357987	2.395207339801
5	119712	28380.260087261793	0.693092097521
5	119796	28404.170515223392	2.098763533836
5	119836	28414.44762359834	1.011488051238
5	119884	28425.633485341124	0.609813329131
5	119928	28443.24297430288	0.589199885245
5	119948	28454.869295714098	2.155877152628
5	119969	28459.806017134607	2.796252127753
5	119973	28460.637527845756	1.039566609083
5	120065	28479.618230804163	16.643588302057
5	120132	28490.009000315355	24.128538409519
5	120194	28499.121724362153	31.521870379831
5	120201	28499.96912873053	25.339749097328
5	120207	28502.308543889411	22.340458820853
5	120216	28504.436596720811	18.952560904459
5	120226	28505.014815123939	15.520965930135
5	120231	28505.748085911468	12.025729479788
5	120237	28506.452787110182	7.246625506718
5	120247	28510.154396918857	6.379758371765
5	120286	28513.632006182991	3.47707666384
5	120291	28514.225100961204	1.962474884702
5	120298	28516.761947988112	3.503426601272
5	120321	28523.042105981764	0.356119983487
5	120386	28535.095549619135	0.189894749786
5	120447	28545.295739050793	0.121577531588
5	120478	28554.807518421337	3.426284612428
5	120485	28557.214513196164	4.683529874583
5	120489	28557.321845027587	2.658983744939
5	120496	28558.639758152854	0.09706827185
5	120512	28561.780219907791	0.437136126506
5	120519	28564.986760272577	0.574806474279
5	120563	28574.168908418494	5.706647927888
5	120598	28578.819863961193	0.828465458865
5	120641	28591.600399527486	7.23757777012
5	120646	28592.61452964377	8.064945200468
5	120650	28593.585531575941	3.270128886281
5	120669	28599.57091675318	1.351865618179
5	120691	28605.780927558681	0.96947136115
5	120702	28609.942056180699	2.238193830715
5	120709	28612.806457831984	3.525285597399
5	120718	28615.336978142209	4.126057783066
5	120749	28618.962971706886	1.391533200877
5	120753	28619.243601483382	0.872867460262
5	120763	28625.706780700269	4.471866917083
5	120801	28634.656120905648	4.961100876102
5	120850	28649.662836206912	9.88218301414
5	120861	28652.999064246955	12.196531240628
5	120865	28653.092190243631	3.652373649414
5	120879	28656.647215935315	2.443835878886
5	120884	28657.095614771328	2.694973366235
5	120889	28657.615326049405	1.804649626845
5	120915	28665.969531733498	0.964948428308
5	120922	28667.554110208959	1.465734062856
5	120996	28679.590430702009	6.760848576704
5	121002	28679.877858887547	6.20537428999
5	121010	28680.260739249376	6.252001433859
5	121040	28686.867087135353	11.587782699816
5	121049	28688.962771824333	10.331554566097
5	121082	28694.154680818615	2.624426418007
5	121091	28695.593468612028	3.271561768545
5	121102	28697.19643473279	0.872273880838
5	121116	28699.731185850931	0.771571490601
5	121130	28703.912327949409	1.670506357313
5	121147	28710.502342148923	7.199007338011
5	121170	28714.738981263594	10.124515000693
5	121254	28733.303369386413	14.968317655542
5	121260	28735.781603733195	13.224610924498
5	121265	28736.081842791878	11.639661857325
5	121276	28739.245734725382	14.721471405232
5	121370	28752.072538060886	13.307399571504
5	121406	28761.975283301064	22.924265922742
5	121412	28764.54997301242	25.100134764616
5	121419	28765.39917622809	22.500216212102
5	121488	28778.060456262754	34.383404060565
5	121498	28778.504933203576	29.125991911615
5	121505	28779.455692699772	28.333678815652
5	121541	28783.810496654117	31.440502210191
5	121551	28784.995310872129	30.739797664833
5	121561	28785.244728255375	17.663534045228
5	121568	28787.791912135032	16.595724930099
5	121581	28790.739587221035	13.727372243877
5	121591	28792.699948621607	12.1040218518
5	121601	28794.126691531508	10.124782194344
5	121646	28804.731035628088	3.14939701629
5	121659	28806.10798459978	1.320121673225
5	121672	28807.059122648569	1.817336512349
5	121720	28817.189850683578	1.273629698561
5	121742	28821.666792982808	1.103747911028
5	121769	28825.169237250261	0.825298186427
5	121777	28827.246761703827	1.92608731381
5	121801	28831.131485170601	2.373343374301
5	121815	28832.229345699979	2.65125262933
5	121831	28834.880392540159	4.691463166283
5	121838	28836.945363197843	5.063091336358
5	121848	28838.269533600278	5.562437876385
5	121853	28840.247665169263	6.949669872221
5	121863	28845.690556231815	10.929726883568
5	121873	28849.140996933812	8.358230818238
5	121877	28849.953772087531	2.431090986098
5	121907	28855.843176064549	1.145444067474
5	121927	28860.398234902555	4.022124286115
5	121971	28871.087462614942	14.557784704846
5	121991	28873.41478152925	12.302793176131
5	121996	28873.910763961661	8.306648697545
5	122001	28875.315664373803	8.751545251302
5	122008	28878.325039872448	6.71108674755
5	122029	28883.881607333111	2.887098772
5	122071	28887.994872460114	4.763852999596
5	122148	28904.548107568901	18.505087858861
5	122160	28907.15657022625	19.14193224998
5	122166	28910.092356918948	19.829325420365
5	122171	28912.737261484128	21.939106442051
5	122181	28917.303809125413	19.595973357836
5	122200	28923.260783295087	24.538490282935
5	122207	28924.667643378399	0.127054388733
5	122217	28930.25918555328	3.409276377617
5	122236	28933.357705704475	1.245060597082
5	122292	28944.589054776715	10.979835459314
5	122302	28947.55393403192	11.281611766253
5	122327	28952.900309770675	3.124042455336
5	122340	28955.410999355745	2.966230070175
5	122344	28955.649857632828	1.645797750096
5	122390	28968.650962671665	3.839644143928
5	122440	28978.632889014463	11.203571178262
5	122446	28979.547000152068	11.338943251782
5	122453	28980.605545835956	9.418643341987
5	122463	28981.544542519401	5.728688105678
5	122473	28986.52802829934	3.272558008311
5	122483	28989.426637458721	1.862980560212
5	122490	28989.912032045097	1.292356907567
5	122505	28991.870251976886	1.816162647078
5	122521	28996.369468089035	0.964543450415
5	122560	29009.394937712683	5.836240368784
5	122593	29013.649526170342	9.343607336944
5	122600	29016.413507637671	11.783900223748
5	122609	29018.218763993233	12.985427556556
5	122648	29025.13001079442	4.700644467248
5	122661	29027.888794713363	6.095768003465
5	122666	29028.457498063636	5.394091345038
5	122681	29029.655805385459	4.757119296724
5	122744	29036.97544130817	10.950350614062
5	122751	29041.326761023931	12.412709479168
5	122758	29042.603764776398	13.629725178825
5	122790	29053.252460555675	14.738644434081
5	122832	29057.768001317151	13.889335352576
5	122837	29058.025057907606	5.50595671321
5	122842	29059.442354966145	6.851565790717
5	122847	29061.307320467282	7.512282035767
5	122858	29064.839348720118	9.867586739304
5	122889	29067.465773096324	11.818906566788
5	122900	29068.489521642028	12.003186256444
5	122910	29071.500859554779	4.053364851023
5	122933	29074.877768414859	0.934600538517
5	122968	29081.654637403114	5.415195802281
5	123090	29102.290033043083	25.024763741519
5	123101	29103.401591459933	14.765791595862
5	123108	29107.3172029123	15.129313176652
5	123124	29112.404937621394	11.691931682339
5	123129	29112.950924130281	10.397247873499
5	123134	29113.104196108731	4.630890674035
5	123138	29113.176882741988	1.548446106984
5	123152	29120.318177265472	0.820594575678
5	123171	29126.626212875209	3.732874149426
5	123211	29142.658036026374	0.53082256053
5	123218	29144.380365122015	0.05970207387
5	123225	29145.795515526363	1.019260789458
5	123232	29148.956607268829	1.492382231975
5	123262	29159.419802905566	1.915316693915
5	123295	29167.826781664109	4.240878269892
5	123344	29180.587467883355	0.04565235329
5	123353	29183.187910399859	2.215186927262
5	123366	29189.499209726405	1.974596134965
5	123370	29189.907016389526	2.275320083357
5	123386	29192.537682051127	0.170065079711
5	123408	29198.773512934644	0.840789701209
5	123422	29200.795864349975	2.803701160294
5	123427	29202.272030614072	2.741076125093
5	123434	29203.600389144392	1.12782521988
5	123449	29212.54892059986	0.341357984541
5	123459	29220.820518017835	2.474888498412
5	123466	29221.887641453203	0.824432625959
5	123479	29227.568141290973	2.605502033915
5	123491	29229.445848915674	4.198268429614
5	123515	29237.10252268897	3.650871203602
5	123536	29240.682096041254	3.021402237813
5	123559	29242.74957506344	1.332937564365
5	123570	29245.740722021706	4.022988292917
5	123577	29253.771178942405	1.063626874134
5	123604	29261.946242432156	3.655269380291
5	123621	29264.367229219428	1.834841151602
5	123632	29265.64478908889	1.818512529202
5	123640	29266.501483349254	0.210510193902
5	123688	29277.932800338907	6.651733081065
5	123707	29280.458452590369	7.504583064032
5	123738	29283.952048579085	7.119380994861
5	123749	29285.518199834427	3.929694023581
5	123753	29285.774542482549	2.918517566303
5	123760	29287.150080253027	0.209505114031
5	123873	29315.120027959443	1.441801449103
5	123883	29316.267574507542	1.3106160744
5	123891	29317.559473838016	2.577252856942
5	123921	29326.939471183778	2.139444684577
5	123957	29336.152820592092	2.986346164614
5	123967	29336.92453615743	2.681408909761
5	123977	29340.636784545795	2.8859981212
5	124032	29346.827786545421	5.739724226815
5	124042	29350.817516440144	9.676362104825
5	124053	29351.512039351268	1.890969369724
5	124060	29362.197967208021	1.998637227553
5	124083	29367.750078037374	0.170184526942
5	124094	29370.598958662845	1.42047029928
5	124103	29374.623538512733	4.647325577914
5	124119	29377.633178160188	2.864977928812
5	124141	29381.795775253321	3.118872226131
5	124151	29383.886961554934	3.167067682993
5	124179	29392.970633859381	4.735722532194
5	124192	29395.675815485075	3.860931848407
5	124200	29398.617791089097	4.174978385262
5	124211	29401.362710564166	2.717266856965
5	124242	29411.427313576231	8.175466756134
5	124253	29415.49927855831	8.364644630318
5	124268	29418.163297108001	1.06338138911
5	124304	29431.340029700091	1.184350467492
5	124317	29433.42563836972	0.314435914112
5	124324	29435.041044505388	1.381652934146
5	124338	29441.783340236666	4.570771635583
5	124384	29450.692524758824	11.235402519289
5	124439	29469.606968532451	2.315801657544
5	124450	29471.250207734441	1.755692130387
5	124475	29475.116713363842	1.191468277166
5	124601	29494.943016743857	6.756010075113
5	124612	29497.3677406842	8.389379961534
5	124622	29497.914369573476	7.820114271081
5	124629	29498.363039066568	3.103740213307
5	124634	29499.528508229753	1.499852798279
5	124666	29512.471974365182	0.362118282562
5	124681	29515.163044238625	3.023207254941
5	124686	29517.987028914042	3.649746187558
5	124704	29527.526464489157	1.171677693394
5	124717	29533.164582023769	0.644717319122
5	124741	29538.9749556522	0.070720535023
5	124763	29547.118377947829	4.179626576223
5	124779	29549.879976180083	6.530934371653
5	124798	29552.473082516163	6.132365108606
5	124809	29553.798691903287	1.740332852499
5	124821	29554.680670036553	1.803671373272
5	124826	29556.05037827788	2.350555863367
5	124830	29556.543233879127	1.906402016278
5	124841	29564.177323009696	5.884886756411
5	124850	29565.864126286005	5.731525438958
5	124860	29568.081359302019	2.353608130777
5	124877	29570.884077942319	2.723866891535
5	124910	29580.989445065494	10.690353568463
5	124925	29586.245913813229	3.198814372566
5	124932	29587.259581751242	3.632588049726
5	124990	29606.695518254957	4.382377835791
5	125023	29614.72805537898	6.610734380648
5	125029	29616.305555595434	4.225849989422
5	125037	29617.456108386613	1.140767402156
5	125076	29623.401907790569	4.101168654175
5	125100	29628.449876727073	0.078925337235
5	125136	29635.346743512272	2.847680912631
5	125148	29638.776612876778	2.612482019801
5	125230	29655.098988774156	5.078346313929
5	125234	29655.528480828028	2.909860006
5	125244	29656.893537658816	0.692393380205
5	125249	29658.064513319002	1.799471134976
5	125259	29664.458461905909	1.679793872045
5	125277	29667.852700727906	1.283905229137
5	125285	29669.299996311584	1.486289273667
5	125321	29681.836962349722	7.630366204317
5	125327	29685.511677435232	9.797978662372
5	125336	29688.973680191042	12.359505088438
5	125361	29694.782268250859	18.143998099022
5	125380	29704.828756681478	28.121143714292
5	125392	29706.204626514871	7.199610318907
5	125397	29706.430292787248	3.133251682245
5	125404	29710.456754963862	5.156604076576
5	125408	29714.24940665937	4.181228002137
5	125450	29724.123337820711	7.190743343055
5	125468	29729.994164426939	11.475032736112
5	125525	29737.345616155895	17.584817544923
5	125543	29740.077003308685	18.936138388001
5	125556	29742.744819326226	17.774809034015
5	125567	29745.566754781006	12.71807355073
5	125574	29746.597770154013	13.613606142076
5	125633	29762.013936564203	26.538398851091
5	125683	29770.818960502793	34.786219744135
5	125693	29773.152511215329	34.565493613891
5	125737	29781.313218980789	39.540659975751
5	125745	29781.371864884655	39.064087885649
5	125759	29786.901022969799	39.286846030075
5	125764	29787.57283691868	36.754512678082
5	125769	29787.955865057258	28.986466311395
5	125778	29789.942405319871	28.513750511467
5	125823	29803.334311888201	36.500183673778
5	125836	29805.553253934524	36.4064021709
5	125846	29807.190479766374	24.049642361891
5	125853	29808.762551950137	19.766915167684
5	125861	29810.979873382613	16.419566087219
5	125875	29813.977498184595	16.519128173453
5	125902	29820.279021108464	17.490853489813
5	125948	29826.588716651391	18.661087679983
5	125953	29827.148867654464	13.317879496113
5	125960	29828.895783174814	10.852428121148
5	125964	29829.626199293758	5.262293298791
5	125971	29833.384730098176	0.100744142431
5	126008	29844.409409541284	3.595188677789
5	126019	29845.051797407268	4.229218521705
5	126031	29851.562793008314	10.244512286144
5	126044	29854.319628737772	3.183926395834
5	126074	29861.380333282883	1.709005971974
5	126097	29868.006390386103	0.727418207773
5	126127	29873.567634117117	2.423931908644
5	126166	29882.695493747364	7.804102015831
5	126188	29886.015950271841	9.541337121453
5	126204	29888.353090756878	6.031634282316
5	126237	29898.832530897395	2.358116857427
5	126249	29901.624286836684	4.699121732933
5	126264	29903.561818430008	2.321180249805
5	126280	29910.293844402742	1.642548617915
5	126300	29915.987387070258	0.747024618893
5	126361	29927.267766643071	0.638710857153
5	126405	29938.996410079528	2.851879790262
5	126441	29944.404515161147	0.574817253188
5	126475	29951.822930636551	1.265817154267
5	126509	29960.495198635478	1.350223557708
5	126551	29971.629295389551	0.889707923987
5	126571	29980.150833141571	0.07834659797
5	126578	29981.574722446147	0.149658166807
5	126609	29990.954862713486	1.21737359084
5	126619	29992.482538024438	1.291325017589
5	126623	29993.834991697029	1.444894796854
5	126635	29999.864369015194	0.643998319259

