version 2
run Second-n2-6-20191016-17:03:28-14148
attr configname Second-n2
attr datetime 20191016-17:03:28
attr experiment Second-n2
attr inifile omnetpp.ini
attr iterationvars ""
attr iterationvarsf ""
attr measurement ""
attr network org.omnetpp.queueing.Pizza
attr processid 14148
attr repetition 6
attr replication ""
attr resultdir results
attr runnumber 6
attr seedset 6
param **.PS.maxInventoriedPS 2
param **.U1.interArrivalTime exponential(3s)
param **.U2.interArrivalTime exponential(5s)
param **.PS.serviceTimeForInventoryU1 exponential(1.0s)
param **.PS.serviceTimeForInventoryU2 exponential(1.2s)
param **.PS.serviceTimeDirectU1 exponential(1.4s)
param **.PS.serviceTimeDirectU2 exponential(1.4s)
param **.PS.probabilityProducing 0.7
param **.CS.serviceTimeU1 exponential(1.1s)
param **.CS.serviceTimeU2 exponential(1.4s)

vector 0 Pizza.EntryQueueU1 queueLength:vector ETV
attr interpolationmode sample-hold
attr title "queue length, vector"
vector 1 Pizza.CS queueLength:vector ETV
attr interpolationmode sample-hold
attr title "queue length, vector"
vector 2 Pizza.EntryQueueU2 queueLength:vector ETV
attr interpolationmode sample-hold
attr title "queue length, vector"
vector 3 Pizza.sink lifeTime:vector ETV
attr interpolationmode none
attr title "lifetime of arrived jobs, vector"
attr unit s
vector 4 Pizza.sink lifeTimeU1:vector ETV
attr interpolationmode none
attr title "lifetime of arrived jobs, vector"
attr unit s
vector 5 Pizza.sink lifeTimeU2:vector ETV
attr interpolationmode none
attr title "lifetime of arrived jobs, vector"
attr unit s
0	0	0	0
0	16	8.225492417849	1
0	17	8.508111837719	0
0	24	10.493091882518	1
0	25	10.998708796901	0
0	50	18.35280949311	1
0	52	18.520852769125	2
0	53	19.298071374001	1
0	62	21.080456412303	0
0	69	21.881905453974	1
0	70	22.024156824838	0
0	76	22.147878696444	1
0	78	22.592051158776	0
0	84	22.885159194867	1
0	85	23.270347749892	0
0	122	38.33870030823	1
0	125	41.530170585574	0
0	171	51.098737938071	1
0	172	51.776219651749	0
0	191	58.192475518808	1
0	195	59.745807970526	2
0	200	64.30306219452	1
0	205	64.838675166301	0
0	211	64.990757944889	1
0	214	65.074094056184	0
0	225	65.997803754941	1
0	226	66.287544002271	0
0	230	66.533349674581	1
0	234	68.97868065869	0
0	243	69.667642269702	1
0	246	70.042923607918	0
0	252	71.825747296428	1
0	253	72.705508883629	0
0	309	90.219933144756	1
0	311	90.347869345587	2
0	312	90.743731579102	1
0	319	91.43458322816	2
0	320	91.957070347978	1
0	326	93.48388985236	0
0	337	95.490015310492	1
0	341	97.283503187431	2
0	342	97.744465031026	1
0	346	98.159005022265	2
0	354	99.280867489937	1
0	359	99.333214686175	0
0	462	133.225137062531	1
0	464	133.553029647041	0
0	485	138.436974961219	1
0	489	139.221341815668	2
0	491	139.398786920701	3
0	495	140.455389425235	4
0	496	141.658199290147	3
0	502	143.282976813234	2
0	510	144.598056952161	1
0	516	145.367533569351	0
0	524	146.450334436889	1
0	525	146.668866378928	0
0	539	147.291821873466	1
0	542	147.457201433448	0
0	570	157.252736328455	1
0	576	160.356798282047	2
0	577	160.629155990998	1
0	584	162.046501285969	2
0	585	162.526780898127	1
0	592	163.951967341288	0
0	606	166.775222426564	1
0	608	167.129096476936	2
0	609	167.553639953749	1
0	615	168.991329953372	2
0	622	170.702957554439	1
0	628	171.103300941716	2
0	630	171.311776364863	3
0	632	171.439802452077	4
0	634	173.160369019499	5
0	637	173.966108095594	4
0	644	174.962418438396	5
0	645	176.668391996992	4
0	651	177.042065821592	3
0	657	177.381545795827	4
0	658	177.728597581316	3
0	665	180.007086869702	2
0	670	182.754110247269	1
0	677	183.837077566585	0
0	681	184.38019100744	1
0	684	188.132428972274	0
0	709	192.102131175405	1
0	710	192.279886897927	0
0	745	199.329343737323	1
0	746	200.35657147509	0
0	769	207.699822518754	1
0	772	209.171600670547	2
0	773	209.205367187209	1
0	779	210.365507724209	0
0	803	213.964880454101	1
0	805	214.798326577001	0
0	814	215.291220733215	1
0	815	215.803040550761	0
0	822	220.972643998791	1
0	824	221.134348729934	2
0	825	222.195534974547	1
0	830	222.637681554268	0
0	844	223.565067939347	1
0	847	223.921758618575	0
0	851	224.714374578184	1
0	855	226.222311052996	2
0	859	226.73434268107	3
0	860	227.233903961405	2
0	865	227.567545276669	1
0	870	227.864340616849	0
0	882	232.549081185585	1
0	885	232.803293788004	2
0	886	234.016219359516	1
0	892	234.600518867902	2
0	893	235.147285045127	1
0	899	235.397769694849	2
0	904	236.722939218816	1
0	912	239.108380845027	0
0	920	240.320973559233	1
0	923	241.024353736417	0
0	931	242.382779607135	1
0	932	242.575730598514	0
0	936	242.967204718719	1
0	942	244.421378980557	2
0	943	245.540685417742	1
0	948	246.844296473194	0
0	959	252.175292161256	1
0	965	253.372420974832	2
0	968	256.904690737142	1
0	973	257.120037866989	0
0	997	261.722439400362	1
0	998	262.65466880965	0
0	1010	265.460997105614	1
0	1011	265.856072966338	0
0	1030	270.198466144739	1
0	1032	271.088226701442	2
0	1033	271.104415797808	1
0	1039	271.357507382004	2
0	1040	271.403159771698	1
0	1045	272.879621776649	0
0	1051	273.30274996652	1
0	1052	274.000780485698	0
0	1058	274.437132750519	1
0	1060	275.415445031238	0
0	1087	279.411454055573	1
0	1089	279.666628537171	2
0	1094	282.626425227444	1
0	1101	282.850474589974	2
0	1103	283.646500543125	3
0	1105	283.67134846321	4
0	1108	285.413675922136	3
0	1115	285.867757155562	2
0	1120	285.929958339157	1
0	1127	289.367881031636	0
0	1135	291.887687018162	1
0	1138	293.071339046389	0
0	1142	293.130270364792	1
0	1145	293.218640449421	0
0	1149	293.317209926593	1
0	1151	294.682839049446	2
0	1155	296.549923590092	3
0	1156	297.123838951288	2
0	1160	297.599504835476	3
0	1167	300.766052206566	2
0	1174	300.856703276191	1
0	1179	302.081606515824	0
0	1201	303.297136172479	1
0	1202	303.485287772633	0
0	1219	310.063504352504	1
0	1222	311.275865457674	0
0	1233	312.724842784836	1
0	1234	313.374332967948	0
0	1248	316.650259948788	1
0	1250	316.674626656973	2
0	1255	317.378079239744	1
0	1261	318.207244210917	0
0	1275	320.077654643244	1
0	1276	320.653004114884	0
0	1298	323.179497169323	1
0	1299	324.449787624326	0
0	1331	334.798434233487	1
0	1332	335.242455722836	0
0	1338	336.518943920551	1
0	1340	336.651389620978	0
0	1346	337.293548980878	1
0	1351	339.074792856172	2
0	1352	340.608698990651	1
0	1362	342.768235343557	0
0	1378	347.722572266892	1
0	1380	349.815002165456	0
0	1389	351.824338244402	1
0	1392	352.82376652473	0
0	1410	357.432240995743	1
0	1414	360.675481557914	2
0	1415	361.421474276149	1
0	1420	361.446554730871	0
0	1433	362.772257030345	1
0	1434	363.966392177376	0
0	1465	370.611652251683	1
0	1468	371.00107490861	0
0	1474	371.26708719576	1
0	1476	371.410743741358	2
0	1477	371.966517157343	1
0	1483	372.81576455568	0
0	1490	372.946606709999	1
0	1491	373.143556986165	0
0	1500	373.773827433803	1
0	1503	376.280456930149	0
0	1509	376.309828765169	1
0	1512	377.640261582695	2
0	1513	377.939010259702	1
0	1519	378.148909995139	0
0	1545	382.797951458964	1
0	1551	384.273380544556	2
0	1553	385.273239968941	3
0	1557	387.906957860042	4
0	1560	391.250082567713	3
0	1564	391.480002071847	4
0	1569	393.082383796544	3
0	1574	395.760446718338	2
0	1579	398.042823949828	1
0	1588	405.623439792766	2
0	1590	406.16450969549	3
0	1591	406.594011405324	2
0	1597	406.667886437837	3
0	1600	407.257431595424	2
0	1605	407.93303524458	1
0	1614	409.793958714195	2
0	1616	410.943506787731	3
0	1617	411.090724809875	2
0	1624	412.064204057834	1
0	1635	412.784503901956	0
0	1664	420.258270425629	1
0	1665	420.276545339975	0
0	1679	422.191202948289	1
0	1680	424.931164572224	0
0	1693	426.760951022739	1
0	1694	427.22820169729	0
0	1704	428.249029711637	1
0	1708	429.943450332172	2
0	1711	431.618308371533	1
0	1716	431.979285578333	0
0	1722	432.004796172617	1
0	1724	436.535911531272	0
0	1730	436.820413644197	1
0	1734	437.785006195855	2
0	1735	438.796278513536	1
0	1740	439.619926743587	0
0	1750	444.667123837609	1
0	1752	445.390480353614	2
0	1755	446.691990939029	1
0	1762	449.940304439364	0
0	1786	454.284008993114	1
0	1788	454.338295426429	2
0	1789	454.498474705286	1
0	1795	454.706054631831	0
0	1805	457.0350867766	1
0	1809	457.613293480729	2
0	1812	459.293634615081	1
0	1817	459.853873089199	0
0	1821	460.216751976515	1
0	1828	462.610788775473	0
0	1854	465.544379229757	1
0	1855	465.803268870815	0
0	1877	471.31881019341	1
0	1883	473.066482865369	2
0	1885	473.7449913697	3
0	1887	474.337579705988	4
0	1889	475.939585255783	5
0	1890	476.047389403292	4
0	1895	476.077741460681	3
0	1900	476.394241747887	2
0	1907	478.591678167962	1
0	1912	478.807602663081	0
0	1923	480.925596099933	1
0	1927	481.732452288978	2
0	1930	483.900786162503	1
0	1936	484.244972593931	2
0	1937	484.287545930668	1
0	1944	486.584909923605	0
0	1979	497.047947059911	1
0	1980	497.776973871893	0
0	2000	505.051905167655	1
0	2005	507.093054519295	0
0	2020	515.813305782341	1
0	2023	516.601573850851	0
0	2061	530.698413632926	1
0	2062	531.307680373424	0
0	2088	535.857567227986	1
0	2089	536.347442791428	0
0	2109	539.210203486024	1
0	2111	542.312923789792	2
0	2114	544.139834544345	1
0	2119	544.520506810644	0
0	2125	545.562787276215	1
0	2127	545.847911379935	2
0	2128	546.270921842125	1
0	2134	547.957036874404	0
0	2145	548.748031555347	1
0	2147	548.981388175234	2
0	2150	550.110054469723	1
0	2159	551.422312691758	2
0	2161	554.290579816311	1
0	2166	555.216951936625	0
0	2174	555.524756120648	1
0	2175	555.605127942596	0
0	2200	561.275713281583	1
0	2201	563.592190116104	0
0	2213	566.221507647576	1
0	2215	566.39091398378	0
0	2244	570.462910659378	1
0	2245	572.700892608369	0
0	2264	574.869291865797	1
0	2265	575.003148064276	0
0	2272	576.406359737831	1
0	2274	578.833064161312	0
0	2289	580.516487948681	1
0	2291	580.950488884889	2
0	2293	581.431236521169	3
0	2294	581.664817178657	2
0	2302	584.353326683967	1
0	2310	584.596501896054	0
0	2316	584.945044118836	1
0	2317	584.991516668014	0
0	2367	598.734733839456	1
0	2371	599.302183030059	2
0	2372	599.620175352207	1
0	2381	601.583304374158	2
0	2384	601.928363956354	3
0	2385	602.41207391706	2
0	2392	603.478437619023	1
0	2398	603.575122289509	2
0	2399	603.671536425138	1
0	2406	606.338995051514	0
0	2418	608.986680831048	1
0	2419	611.737279522207	0
0	2430	612.412447575286	1
0	2433	612.671985100445	0
0	2440	614.217883610981	1
0	2441	614.940620427723	0
0	2465	620.423619409555	1
0	2468	621.509849548798	0
0	2521	632.915213810073	1
0	2525	634.380595372289	2
0	2526	635.744029453567	1
0	2533	635.92223127515	0
0	2556	642.286567619312	1
0	2558	642.756995792803	2
0	2561	642.892912219088	1
0	2565	643.43896034857	2
0	2571	644.529609027951	1
0	2577	646.016734611833	0
0	2610	651.527892954731	1
0	2614	653.475277269151	0
0	2627	654.44569739112	1
0	2629	655.967507718577	2
0	2631	657.045308329569	3
0	2633	658.85273987783	4
0	2635	659.119114789	5
0	2637	659.671091243234	6
0	2638	660.145068660264	5
0	2645	661.382250412945	6
0	2646	662.284814584225	5
0	2654	662.537484636639	6
0	2659	664.705408593532	5
0	2667	665.367352636258	4
0	2673	665.999624022058	3
0	2678	666.092280927503	2
0	2687	667.46438575699	3
0	2689	667.719924937023	4
0	2690	668.394191670518	3
0	2696	668.586597601117	4
0	2697	670.400761070629	3
0	2702	672.253590740614	2
0	2708	673.166061799502	1
0	2713	673.322901412985	0
0	2729	675.231064705966	1
0	2731	675.264372319197	2
0	2732	675.378254091234	1
0	2738	676.902559511602	2
0	2739	677.591673890343	1
0	2744	679.690537238523	0
0	2756	683.38109421158	1
0	2757	683.913956659592	0
0	2764	685.190373885651	1
0	2766	686.248867307931	0
0	2781	689.720550908039	1
0	2782	690.535078886513	0
0	2796	691.562126812678	1
0	2798	692.11335405337	2
0	2799	692.1557560763	1
0	2805	694.343761807936	0
0	2819	695.145555757072	1
0	2822	695.973649018953	0
0	2849	701.553498712814	1
0	2854	702.939520296746	0
0	2904	715.534185393747	1
0	2906	716.027532624924	2
0	2907	716.45295997161	1
0	2913	717.075041920994	2
0	2915	717.4091073642	3
0	2918	717.844601022575	4
0	2919	717.90487725407	3
0	2927	719.601175276073	2
0	2934	720.049580017859	1
0	2940	720.286922794078	0
0	2967	730.087394101645	1
0	2969	730.997951812736	2
0	2970	731.272620670075	1
0	2977	731.682703292762	2
0	2978	732.059348690741	1
0	2984	732.854900392698	2
0	2985	733.577032737312	1
0	2994	735.555675779095	2
0	2995	735.80002079532	1
0	3001	736.699570684422	0
0	3022	742.129282075298	1
0	3023	742.626960711344	0
0	3039	744.706639480037	1
0	3042	746.364850758332	0
0	3053	748.469277472195	1
0	3056	751.161003106121	0
0	3070	752.539362211489	1
0	3071	752.556212759273	0
0	3094	758.175160016783	1
0	3098	759.724051004309	2
0	3099	760.408056080587	1
0	3105	763.05880979858	0
0	3116	763.410394770322	1
0	3118	763.971068049067	0
0	3125	764.771843418102	1
0	3126	764.851518367874	0
0	3132	766.131884732365	1
0	3133	766.731602224628	0
0	3137	766.772235660104	1
0	3141	767.254644562654	2
0	3142	767.256005512849	1
0	3146	767.461010077307	2
0	3150	768.59070039063	1
0	3155	769.399704086277	0
0	3167	772.576937697223	1
0	3170	774.418473786499	0
0	3174	777.353807298016	1
0	3177	778.248916261727	0
0	3225	790.78243432121	1
0	3226	792.056371533379	0
0	3316	825.971574244755	1
0	3319	828.908759251578	0
0	3330	829.9813739284	1
0	3332	830.314679071986	2
0	3335	833.58051418256	1
0	3345	835.030887210005	2
0	3346	835.468912347882	1
0	3351	835.955991080553	0
0	3358	836.522863758946	1
0	3360	836.860265912462	2
0	3365	838.653208548285	3
0	3367	839.333641224991	4
0	3368	840.300454400813	3
0	3373	840.386808886609	2
0	3378	841.308050056262	1
0	3385	845.174140463233	0
0	3412	853.735705429282	1
0	3414	854.00755973346	2
0	3417	854.911855040569	1
0	3422	855.131798332728	0
0	3430	856.713496764128	1
0	3435	858.120593546692	2
0	3437	858.972259685189	3
0	3438	859.130420119334	2
0	3443	860.375230170952	1
0	3454	862.957541603068	0
0	3475	866.748899099907	1
0	3476	866.887423091218	0
0	3499	870.143802949946	1
0	3504	871.348734319149	2
0	3506	871.356218955463	3
0	3507	871.699382370671	2
0	3513	871.854124027481	3
0	3515	872.184441042643	4
0	3517	875.150911257402	3
0	3522	875.736346133609	2
0	3528	876.493213255835	1
0	3535	877.717672509712	0
0	3557	880.92965325796	1
0	3558	880.993120271733	0
0	3580	885.55799259434	1
0	3582	886.972071372286	0
0	3594	889.926196734505	1
0	3596	890.558347629669	2
0	3599	891.61450893002	1
0	3604	892.519336802536	0
0	3608	893.023320780485	1
0	3610	894.485667040078	2
0	3614	895.461554098448	1
0	3619	895.746756444464	0
0	3627	897.584965682286	1
0	3628	898.577714722912	0
0	3634	898.708617508224	1
0	3635	899.444593731958	0
0	3646	900.809454626888	1
0	3650	902.457099723335	0
0	3671	911.653781284843	1
0	3673	911.880321572299	0
0	3688	915.444338347831	1
0	3691	916.236398079534	0
0	3697	916.324214177273	1
0	3698	916.933201808787	0
0	3710	917.89078321027	1
0	3712	918.97558563012	0
0	3743	929.608692771944	1
0	3746	931.117163794837	0
0	3750	931.255956905154	1
0	3753	931.697161335058	0
0	3766	934.37763258654	1
0	3772	935.85679716021	2
0	3774	936.2520320667	3
0	3775	936.777080423554	2
0	3780	937.136982252207	1
0	3785	938.554148101895	0
0	3789	940.602017076667	1
0	3793	942.448263318316	2
0	3794	943.985642700494	1
0	3798	944.877813380974	2
0	3800	945.03217110611	3
0	3802	946.575554434894	4
0	3805	949.560232226439	3
0	3811	952.091524077306	4
0	3812	952.995421251773	3
0	3819	953.512538463726	2
0	3828	954.458777870026	3
0	3830	956.929530608025	4
0	3834	957.838416416904	5
0	3836	959.146220695256	6
0	3837	959.433142604376	5
0	3843	959.762068276521	6
0	3844	960.593933564781	5
0	3851	961.262093336303	4
0	3857	963.079133248235	5
0	3859	963.579766869177	4
0	3864	963.66047333522	3
0	3870	966.191812094941	2
0	3878	967.687206510757	1
0	3883	967.75783442424	0
0	3902	971.82689938667	1
0	3903	972.242598789948	0
0	3914	974.357302160137	1
0	3919	975.830124286982	0
0	3940	983.225395062495	1
0	3942	983.362613902701	2
0	3946	984.12731566257	3
0	3947	984.273484231133	2
0	3953	985.092821222474	1
0	3959	985.325554901348	0
0	3970	987.488551350788	1
0	3974	988.553151146313	0
0	3985	991.01478800093	1
0	3989	992.389321441334	2
0	3991	992.389950484594	3
0	3994	992.711737773764	2
0	4000	993.678291407279	1
0	4005	994.057350703172	0
0	4016	996.381958554092	1
0	4022	997.160606158638	2
0	4023	997.735604756932	1
0	4029	997.844779095738	0
0	4035	998.828265133031	1
0	4038	999.828975449987	2
0	4042	1001.654898780804	1
0	4047	1001.781884524632	0
0	4071	1004.078190951197	1
0	4072	1004.511009513442	0
0	4090	1009.528818958001	1
0	4091	1011.011921863946	0
0	4125	1019.407617119862	1
0	4126	1019.624227485262	0
0	4147	1024.151418842412	1
0	4150	1027.884746149137	2
0	4153	1028.131596678745	1
0	4159	1028.206369352785	2
0	4163	1030.738354038205	1
0	4169	1031.256517895073	0
0	4189	1035.537016147522	1
0	4191	1035.768116384859	2
0	4192	1035.860753609949	1
0	4197	1036.01430002446	0
0	4205	1036.454646884627	1
0	4207	1036.556037665699	2
0	4209	1037.02850991221	1
0	4215	1037.328977051994	2
0	4217	1038.413803418935	3
0	4219	1038.553069755713	4
0	4220	1038.673230798276	3
0	4231	1045.844571409868	4
0	4232	1045.994518589133	3
0	4239	1047.26632966902	2
0	4244	1047.947479714283	1
0	4251	1050.740698076016	0
0	4263	1053.47183002212	1
0	4268	1058.030741743691	0
0	4274	1058.220605163532	1
0	4278	1059.200393078629	2
0	4279	1059.895579183768	1
0	4284	1060.327082453421	0
0	4316	1068.543519867507	1
0	4317	1068.916628656744	0
0	4344	1073.588976804521	1
0	4347	1073.771136244614	0
0	4353	1075.21850090252	1
0	4355	1075.889760654764	2
0	4359	1076.566835927302	3
0	4363	1077.770836545338	4
0	4367	1078.072134447857	5
0	4368	1078.274539827558	4
0	4375	1078.66586487411	5
0	4377	1079.446358857356	6
0	4378	1079.874038349263	5
0	4388	1083.83757382869	4
0	4393	1084.975986575924	3
0	4400	1085.835735129787	4
0	4401	1086.753414211633	3
0	4407	1088.869803450295	4
0	4408	1090.167416187512	3
0	4415	1095.965220614796	2
0	4420	1096.742616857702	1
0	4428	1097.731387864795	0
0	4435	1098.748814788579	1
0	4437	1099.145356635671	0
0	4459	1104.770830167627	1
0	4461	1104.892362527843	2
0	4462	1104.99820002491	1
0	4468	1105.264592183731	0
0	4507	1112.748982970881	1
0	4516	1115.125037910126	0
0	4523	1116.626308497458	1
0	4526	1117.791319867171	0
0	4535	1119.760765480825	1
0	4537	1121.828197663067	2
0	4538	1121.887248846253	1
0	4543	1122.761234930807	0
0	4562	1125.60027672291	1
0	4563	1125.681721152763	0
0	4570	1126.711362744173	1
0	4572	1128.038407723729	0
0	4578	1128.999339692579	1
0	4584	1130.370885297989	0
0	4590	1131.499739432203	1
0	4591	1132.691985634881	0
0	4595	1132.92999463488	1
0	4601	1135.496818454409	0
0	4607	1136.270922131028	1
0	4609	1136.8447333212	0
0	4640	1147.63092277718	1
0	4642	1148.219232112408	2
0	4643	1148.49870951286	1
0	4649	1148.988615080047	0
0	4661	1149.575534996515	1
0	4662	1149.916033447125	0
0	4669	1151.714151077254	1
0	4673	1153.235872731665	2
0	4674	1153.808304105799	1
0	4680	1154.993803552336	0
0	4695	1157.122731901656	1
0	4699	1159.867418540642	0
0	4712	1162.710682848319	1
0	4713	1162.730469861099	0
0	4739	1167.705914041935	1
0	4743	1168.15191237948	2
0	4746	1168.299325002287	1
0	4754	1168.928394267153	2
0	4757	1170.075680924616	1
0	4763	1171.174737988727	2
0	4765	1171.668955057129	1
0	4770	1171.799882562888	0
0	4785	1173.802139915944	1
0	4789	1177.804027681779	0
0	4796	1178.241098135219	1
0	4800	1180.746218502949	0
0	4806	1181.349126279329	1
0	4811	1181.978756377991	0
0	4824	1184.586009450375	1
0	4825	1185.900198240721	0
0	4847	1189.266639924578	1
0	4848	1189.614380366959	0
0	4887	1203.193261588853	1
0	4891	1203.605989589103	2
0	4896	1207.443364123794	1
0	4901	1207.486332933653	0
0	4909	1208.814551517915	1
0	4912	1209.506408556031	0
0	4919	1210.810055244171	1
0	4920	1211.046433769625	0
0	4935	1215.622177136152	1
0	4944	1222.422200325952	2
0	4945	1224.608805587163	1
0	4953	1226.684537209294	0
0	4964	1228.958437525044	1
0	4969	1231.710138626407	0
0	5008	1240.519363494654	1
0	5010	1241.934310575309	0
0	5028	1243.68804704013	1
0	5030	1244.296554381517	2
0	5032	1245.616923564524	3
0	5034	1245.644457186512	4
0	5035	1247.491324331284	3
0	5042	1248.211299342722	2
0	5049	1249.90786333846	1
0	5054	1250.298786674217	0
0	5058	1250.583418932098	1
0	5064	1253.32688193235	2
0	5066	1253.613596072002	3
0	5069	1254.950327773108	2
0	5074	1255.299878850172	1
0	5078	1255.390714313144	2
0	5080	1255.468106465044	3
0	5084	1257.408047356605	4
0	5086	1257.464229797632	5
0	5091	1258.292643235904	6
0	5094	1258.602537611866	7
0	5096	1259.755705486181	8
0	5097	1260.420357382792	7
0	5102	1260.949657706853	6
0	5108	1263.310638200412	5
0	5113	1264.359746331303	4
0	5118	1269.039941208027	3
0	5123	1270.009191818204	2
0	5129	1271.486991345524	1
0	5134	1273.671660458694	0
0	5140	1275.344998085752	1
0	5145	1277.800159259345	0
0	5149	1278.281262166706	1
0	5155	1282.43433236092	2
0	5156	1282.701071248927	1
0	5161	1283.262136195594	0
0	5173	1287.567869812577	1
0	5175	1288.180389213671	0
0	5186	1289.832929158433	1
0	5188	1290.874420152146	0
0	5208	1299.166534628328	1
0	5210	1299.494991315452	2
0	5215	1301.717451704401	1
0	5220	1301.755125538537	0
0	5234	1306.347378887702	1
0	5236	1307.355179474241	2
0	5239	1311.392280440216	1
0	5243	1311.920546251157	2
0	5247	1312.750452425193	3
0	5248	1313.085433029665	2
0	5253	1313.553125923303	1
0	5260	1314.997742213082	2
0	5265	1316.742307843926	1
0	5270	1317.706705226774	0
0	5281	1318.642697013759	1
0	5288	1319.767869750309	0
0	5310	1323.346344226591	1
0	5313	1326.346773185926	0
0	5348	1335.298117656882	1
0	5350	1336.27781389388	2
0	5353	1337.528047218054	1
0	5362	1339.254254237024	2
0	5364	1339.693030713285	3
0	5365	1339.978839338788	2
0	5376	1343.63485116526	3
0	5377	1344.118321937798	2
0	5382	1344.168820602032	1
0	5389	1344.844951469396	2
0	5392	1345.94488820931	1
0	5397	1346.454368499061	0
0	5401	1347.946600374742	1
0	5406	1350.46957068093	2
0	5408	1351.19085246215	1
0	5415	1353.094286089471	0
0	5432	1357.061870992801	1
0	5435	1358.447133724476	0
0	5454	1361.138198050258	1
0	5456	1361.537065456818	2
0	5459	1362.759510134664	1
0	5465	1362.947172212708	2
0	5467	1364.495750620861	1
0	5473	1364.626756691127	2
0	5475	1364.821663959867	1
0	5480	1364.844717858499	0
0	5493	1366.486552560944	1
0	5498	1367.647460996794	2
0	5500	1367.963044499689	1
0	5505	1368.257958107619	0
0	5516	1372.442372324826	1
0	5519	1373.942062342975	2
0	5521	1374.26816159416	1
0	5528	1375.555467367408	0
0	5539	1376.640170411215	1
0	5541	1377.538904150831	0
0	5560	1379.56018005827	1
0	5562	1381.554285602419	0
0	5583	1390.445235186503	1
0	5585	1390.638882494027	2
0	5586	1391.234495349597	1
0	5594	1393.503102082597	2
0	5595	1393.920177264723	1
0	5602	1395.918931114643	0
0	5617	1401.063420855429	1
0	5618	1401.338980409957	0
0	5624	1401.347152886869	1
0	5627	1401.990653795806	2
0	5628	1402.294512336926	1
0	5633	1402.638165402188	0
0	5648	1410.481089763776	1
0	5651	1410.779010585655	0
0	5660	1412.665098317297	1
0	5667	1415.385328639996	0
0	5674	1417.65997290172	1
0	5675	1417.894313467259	0
0	5711	1421.073886010609	1
0	5713	1421.12029039491	2
0	5714	1422.097021319165	1
0	5720	1423.202163638848	2
0	5721	1424.020197447622	1
0	5727	1424.273549928975	2
0	5728	1424.357962364876	1
0	5732	1425.307003380679	2
0	5737	1427.24034812312	1
0	5742	1427.587825934745	0
0	5749	1428.9585414233	1
0	5750	1429.04144161898	0
0	5756	1429.370102008411	1
0	5758	1430.593245572401	0
0	5772	1433.639634972771	1
0	5773	1434.600774014448	0
0	5790	1436.202105589086	1
0	5791	1437.509543446796	0
0	5827	1443.08579874896	1
0	5828	1443.908284716114	0
0	5841	1446.35712545087	1
0	5842	1446.602276839046	0
0	5882	1455.873536766361	1
0	5883	1456.060203945032	0
0	5934	1473.842653132005	1
0	5935	1473.956948171716	0
0	5949	1475.418822610676	1
0	5950	1476.505128449281	0
0	5966	1480.19800870868	1
0	5967	1480.555305619117	0
0	5989	1491.158877588964	1
0	5991	1491.337881504229	2
0	5992	1492.137424462612	1
0	5997	1492.256296572536	0
0	6019	1495.378383127792	1
0	6020	1495.846552455076	0
0	6024	1496.678102307935	1
0	6033	1500.811879749067	0
0	6039	1500.983965860723	1
0	6041	1502.94807606257	0
0	6071	1508.871385093527	1
0	6077	1510.600861318965	2
0	6079	1510.93800355056	1
0	6085	1511.310913001272	0
0	6098	1512.47732158627	1
0	6099	1512.818830289794	0
0	6103	1512.901984474016	1
0	6108	1519.805430544777	0
0	6114	1519.831518591188	1
0	6116	1520.581772837448	0
0	6123	1522.092261528267	1
0	6126	1522.980261198331	0
0	6174	1537.084167588867	1
0	6177	1538.441900038883	0
0	6195	1542.579965649875	1
0	6204	1544.768217342444	0
0	6217	1545.372783274393	1
0	6219	1546.733493076777	0
0	6225	1546.904922754178	1
0	6230	1547.557800075506	2
0	6231	1548.663092762513	1
0	6235	1549.131975893931	2
0	6238	1551.986307182233	1
0	6244	1552.689484193639	0
0	6257	1554.138924784555	1
0	6258	1555.887571216865	0
0	6264	1556.025053647094	1
0	6265	1556.209750822819	0
0	6271	1556.826726550185	1
0	6275	1557.941818875493	2
0	6276	1559.772010007337	1
0	6282	1560.700579983989	2
0	6283	1561.035167767482	1
0	6289	1561.335447605086	2
0	6293	1562.541247091984	1
0	6299	1564.032754338914	0
0	6310	1564.311668537241	1
0	6312	1564.436313728834	2
0	6314	1565.177067323423	1
0	6320	1566.52541407858	0
0	6340	1571.442304758806	1
0	6341	1573.534540781512	0
0	6348	1574.18086062989	1
0	6349	1575.027679056127	0
0	6356	1575.96615398909	1
0	6357	1576.191983025235	0
0	6449	1602.74069330573	1
0	6452	1605.285592525967	2
0	6453	1606.064252160922	1
0	6459	1606.688062649154	0
0	6511	1620.327713373271	1
0	6512	1620.983190272937	0
0	6545	1627.660699407983	1
0	6546	1628.199515695338	0
0	6552	1629.394371813945	1
0	6553	1631.827042822591	0
0	6566	1633.545309422837	1
0	6573	1639.771208389577	0
0	6579	1640.586550988584	1
0	6584	1641.544802418853	0
0	6604	1647.121215028786	1
0	6608	1647.805817535582	0
0	6620	1648.238235661047	1
0	6624	1650.077015995052	0
0	6636	1651.177715534671	1
0	6637	1652.083789720302	0
0	6654	1658.83391677138	1
0	6656	1659.754059697494	2
0	6657	1659.819916745419	1
0	6663	1659.831206642816	2
0	6665	1659.90411156098	3
0	6667	1660.224034711625	2
0	6673	1660.332981626435	3
0	6674	1660.566227370932	2
0	6679	1661.058955781879	1
0	6684	1662.018564829662	0
0	6711	1668.653153805129	1
0	6713	1668.971649647393	2
0	6716	1670.002082980829	1
0	6720	1670.041937911241	2
0	6727	1673.537569608995	1
0	6733	1673.674014966453	2
0	6734	1673.742595834516	1
0	6739	1673.826531582436	0
0	6743	1673.91691792707	1
0	6747	1675.62775645706	0
0	6766	1680.445597808538	1
0	6768	1681.153845278748	2
0	6769	1682.17903938119	1
0	6776	1683.844965991676	0
0	6787	1685.919975021256	1
0	6789	1685.92445108761	2
0	6795	1688.538451379373	3
0	6797	1688.870036054661	4
0	6799	1690.245894662092	5
0	6800	1690.40031717332	4
0	6806	1691.887335105723	3
0	6813	1692.307368713123	4
0	6816	1693.000674097162	3
0	6823	1694.486263573155	4
0	6824	1695.505089473699	3
0	6829	1695.528232631289	2
0	6835	1696.810650307549	3
0	6836	1697.126092649701	2
0	6841	1697.949594826948	1
0	6847	1698.675172669031	2
0	6848	1698.901997549111	1
0	6854	1701.547217583845	0
0	6864	1702.316580438827	1
0	6869	1704.653250777502	0
0	6930	1717.860033407876	1
0	6932	1719.296557634836	0
0	6962	1728.865883406603	1
0	6965	1730.344356510274	0
0	6973	1731.941745907642	1
0	6975	1732.600751741336	0
0	6981	1732.936914877587	1
0	6984	1734.631881306044	0
0	7005	1737.969397149209	1
0	7009	1740.626135522637	2
0	7010	1741.240354051894	1
0	7015	1741.663072582204	0
0	7021	1742.421868978719	1
0	7024	1743.467372023414	2
0	7026	1744.935003945531	1
0	7040	1748.487573142009	2
0	7041	1749.296726607786	1
0	7049	1752.127526999473	0
0	7066	1758.156643245399	1
0	7067	1759.537390916168	0
0	7074	1760.112071727931	1
0	7077	1760.1793828233	2
0	7079	1761.425457509508	3
0	7080	1761.547524863076	2
0	7086	1763.358637992939	1
0	7091	1763.617140310012	0
0	7125	1769.421265008564	1
0	7126	1770.196909051159	0
0	7158	1781.8899099419	1
0	7160	1782.9635929703	0
0	7184	1791.080687051301	1
0	7186	1791.108568762876	2
0	7187	1791.327743398401	1
0	7194	1792.700754866414	2
0	7195	1795.429393520378	1
0	7204	1797.395892862818	0
0	7215	1800.628633275781	1
0	7219	1802.347274294863	0
0	7239	1806.134674940295	1
0	7241	1807.320764055119	2
0	7248	1809.365813812751	1
0	7253	1809.697491873411	0
0	7266	1811.385582114408	1
0	7267	1811.459311439346	0
0	7313	1827.633417931691	1
0	7315	1828.296729320924	2
0	7323	1829.815897070451	3
0	7325	1830.232592539181	4
0	7328	1830.833331985832	3
0	7333	1830.869644579328	2
0	7349	1833.188617207621	1
0	7355	1833.644916101494	0
0	7384	1839.896837350702	1
0	7386	1840.545120629527	2
0	7389	1841.874505174555	1
0	7394	1841.918840874502	0
0	7452	1858.334558468923	1
0	7454	1858.596031556968	2
0	7455	1858.855976475627	1
0	7460	1859.245694544029	0
0	7473	1860.75601876192	1
0	7480	1865.717308747946	2
0	7482	1865.757940322237	3
0	7483	1866.280279095297	2
0	7491	1867.352860872956	1
0	7498	1867.968535981564	0
0	7512	1870.924849151571	1
0	7515	1872.008412532389	0
0	7547	1875.746707420662	1
0	7548	1875.917102091379	0
0	7566	1879.32391746924	1
0	7569	1880.288196526307	0
0	7585	1885.355803334875	1
0	7587	1885.845032323426	2
0	7588	1886.505186830444	1
0	7594	1887.722463500459	0
0	7604	1888.799177863868	1
0	7609	1891.495995936156	0
0	7624	1893.499427556167	1
0	7634	1896.694899997231	2
0	7638	1897.791923314812	3
0	7639	1897.892857847047	2
0	7645	1898.91201352099	1
0	7650	1899.186602188345	0
0	7668	1900.893583341104	1
0	7673	1902.140842918411	2
0	7674	1902.227754746652	1
0	7679	1902.596198748865	0
0	7696	1906.098542973684	1
0	7698	1909.158059750803	2
0	7702	1910.025626480489	3
0	7706	1915.048144207532	4
0	7709	1915.979551439478	5
0	7710	1916.921921567117	4
0	7716	1918.917361074162	3
0	7723	1920.297053165346	2
0	7730	1922.790711224579	3
0	7737	1924.545338106499	2
0	7742	1924.646171469605	1
0	7748	1927.347065456571	2
0	7751	1927.703792449328	3
0	7752	1927.986059785035	2
0	7758	1928.50525410999	3
0	7759	1929.108825778589	2
0	7765	1931.907426549917	1
0	7769	1932.045548877655	2
0	7773	1933.571896642231	3
0	7776	1934.299796190468	2
0	7782	1935.327361564683	3
0	7784	1936.937259669499	4
0	7786	1938.576282120795	5
0	7788	1938.842264896232	6
0	7790	1940.566266603431	7
0	7794	1941.413644615063	8
0	7795	1941.540654394298	7
0	7799	1941.688371790483	8
0	7804	1944.081471888686	7
0	7808	1944.826261928596	8
0	7812	1947.820500622114	7
0	7818	1948.613574078866	6
0	7823	1949.346219750921	5
0	7828	1949.805642151754	4
0	7832	1951.186642792094	5
0	7835	1955.528832129242	4
0	7841	1960.504205189958	5
0	7844	1961.82732794693	4
0	7851	1964.220712835569	5
0	7852	1965.643879173344	4
0	7861	1966.851437148618	5
0	7862	1968.347794196134	4
0	7868	1968.822241263085	5
0	7870	1968.999665918093	6
0	7873	1970.128539199504	5
0	7879	1972.116537537824	4
0	7884	1973.661427531735	3
0	7890	1974.601331348303	2
0	7896	1974.823806472178	3
0	7898	1975.229911972801	2
0	7906	1976.772421351976	3
0	7909	1977.268681085096	2
0	7914	1978.114703228118	1
0	7919	1978.175702750895	0
0	7937	1985.534253447527	1
0	7939	1986.702409898054	2
0	7940	1986.895534530254	1
0	7946	1988.6647324483	2
0	7947	1988.702543175419	1
0	7952	1989.073769039707	0
0	7973	1994.475419646299	1
0	7974	1994.856803762983	0
0	7986	1997.686806747616	1
0	7989	1999.531828308877	0
0	7999	2000.49652198334	1
0	8001	2000.853490318298	2
0	8004	2001.315604756401	1
0	8009	2001.77545185874	0
0	8026	2004.010176204478	1
0	8027	2004.690912167629	0
0	8045	2007.119671079931	1
0	8046	2007.54930946956	0
0	8066	2012.975000893223	1
0	8068	2014.694660867236	2
0	8069	2015.773095078154	1
0	8076	2016.180690910961	2
0	8077	2016.824404063655	1
0	8082	2016.840828577312	0
0	8088	2017.041629733415	1
0	8089	2018.746962503365	0
0	8104	2023.228247467465	1
0	8110	2023.430732770769	2
0	8111	2023.499844739509	1
0	8117	2023.991704337236	2
0	8122	2025.352004728916	3
0	8124	2026.392470181702	2
0	8129	2026.646458986894	1
0	8136	2027.148696999125	0
0	8149	2028.728590016039	1
0	8151	2028.799486689262	2
0	8154	2031.979971771278	3
0	8155	2034.258650102523	2
0	8163	2036.64557817185	1
0	8171	2037.562728554731	0
0	8177	2037.982944386669	1
0	8179	2038.17763777032	2
0	8182	2040.001031063248	1
0	8188	2040.213927189995	2
0	8190	2040.709126726708	1
0	8196	2040.777298231993	2
0	8198	2040.804609434293	3
0	8202	2041.207775533424	4
0	8205	2041.406673225185	5
0	8207	2042.033383263674	6
0	8208	2042.261752366208	5
0	8213	2042.726376701038	4
0	8218	2042.788393526455	3
0	8223	2045.379504733794	2
0	8227	2046.173844461837	3
0	8230	2046.69798084114	2
0	8234	2047.46747336264	3
0	8237	2047.984360248508	2
0	8241	2049.434293805582	3
0	8243	2050.04616940779	4
0	8248	2054.596144607396	3
0	8253	2055.350763307145	2
0	8260	2057.889118567358	1
0	8270	2060.118846106743	2
0	8271	2060.48416932584	1
0	8276	2060.843093264247	0
0	8282	2061.722920774196	1
0	8284	2063.755609214403	2
0	8285	2064.591984549567	1
0	8291	2067.657754557424	0
0	8304	2068.671966370521	1
0	8305	2070.538354693034	0
0	8325	2073.684875372127	1
0	8329	2075.36308709285	2
0	8330	2075.402231781159	1
0	8335	2075.767775361987	0
0	8339	2076.202254837543	1
0	8343	2077.030068929977	2
0	8347	2080.326529535882	3
0	8350	2080.620700623609	2
0	8354	2080.719490696628	3
0	8358	2084.00358589243	2
0	8363	2084.879530442938	1
0	8372	2089.32899594086	0
0	8383	2090.824221965197	1
0	8385	2091.803549721935	2
0	8388	2093.55698762175	1
0	8394	2093.880825205058	2
0	8396	2094.196029579417	1
0	8402	2094.439941846903	2
0	8403	2094.900463602926	1
0	8413	2096.071446036614	0
0	8433	2101.525639407443	1
0	8434	2102.135313013261	0
0	8443	2103.374247283024	1
0	8446	2103.878672944696	0
0	8471	2110.567929946333	1
0	8472	2110.996020104867	0
0	8480	2112.74889459179	1
0	8482	2113.497229933677	2
0	8487	2115.202531515969	3
0	8488	2115.400573344628	2
0	8496	2117.967744649457	1
0	8502	2118.74427480884	2
0	8505	2118.975909003153	3
0	8507	2119.877927142511	4
0	8510	2124.386967411456	3
0	8515	2124.768545544622	2
0	8522	2125.638978304621	1
0	8527	2130.489937676329	0
0	8540	2133.867029109287	1
0	8541	2133.880301796037	0
0	8552	2136.893785401949	1
0	8554	2137.297628763414	2
0	8557	2137.926145280946	3
0	8560	2138.599233703679	2
0	8568	2139.372261288507	3
0	8569	2140.090354718949	2
0	8574	2140.288811233381	1
0	8581	2144.550153176023	0
0	8600	2148.657267380052	1
0	8604	2149.429829007052	2
0	8608	2151.742175916507	3
0	8609	2151.972054410824	2
0	8615	2151.991894739291	3
0	8616	2152.231343962043	2
0	8621	2154.015710194693	1
0	8627	2154.882522373751	2
0	8631	2155.892753732109	1
0	8636	2156.020298359621	0
0	8640	2156.63767208701	1
0	8643	2157.280105830487	0
0	8683	2165.387590383942	1
0	8684	2165.396839014535	0
0	8692	2168.308856981559	1
0	8693	2168.894399443196	0
0	8699	2169.497399389171	1
0	8701	2170.329035635652	0
0	8716	2171.428760669358	1
0	8719	2173.172519206749	0
0	8734	2175.118864482172	1
0	8736	2178.351660247863	0
0	8751	2180.609254412568	1
0	8753	2180.62565203312	2
0	8754	2180.87611803413	1
0	8761	2182.503151681849	2
0	8762	2182.963392072181	1
0	8768	2183.442438876652	0
0	8774	2183.473222963938	1
0	8777	2184.411809821652	0
0	8783	2184.71206841024	1
0	8785	2184.772325152229	2
0	8786	2184.911271482908	1
0	8791	2184.98051793339	0
0	8795	2186.290719781462	1
0	8799	2188.170744177777	2
0	8800	2188.448467391328	1
0	8805	2189.596867108454	0
0	8809	2189.825393634893	1
0	8813	2191.536277264921	0
0	8824	2192.364492603448	1
0	8827	2193.784503515505	0
0	8833	2193.849798445489	1
0	8837	2194.497945012698	0
0	8848	2194.581017119888	1
0	8849	2194.779028712522	0
0	8855	2195.351202473005	1
0	8858	2197.583384916948	0
0	8872	2202.454230573575	1
0	8873	2203.275301631438	0
0	8885	2204.708625661585	1
0	8889	2206.852570952445	2
0	8890	2207.695619446921	1
0	8896	2208.005755468477	0
0	8908	2208.496745214635	1
0	8910	2209.089530750826	0
0	8919	2209.77666714598	1
0	8920	2210.728730838047	0
0	8931	2211.600694318917	1
0	8932	2211.939285760923	0
0	8950	2213.416356118461	1
0	8952	2219.628170997907	0
0	8975	2223.638460190739	1
0	8977	2224.369355554117	2
0	8978	2224.817319389643	1
0	8985	2227.10090978815	0
0	9017	2236.076985706845	1
0	9022	2238.654344766243	0
0	9028	2238.930925792543	1
0	9031	2239.422623716974	0
0	9041	2241.458992059327	1
0	9042	2241.696304083075	0
0	9049	2242.632612592188	1
0	9050	2243.633661664824	0
0	9062	2246.711765570885	1
0	9066	2246.951654014577	2
0	9068	2247.503467640285	3
0	9072	2250.188081571849	4
0	9074	2250.563810983173	5
0	9075	2251.389122849811	4
0	9081	2252.204250045858	3
0	9086	2252.221386761142	2
0	9094	2255.467453602626	3
0	9095	2255.614415508377	2
0	9100	2255.678731593095	1
0	9108	2257.281133648984	2
0	9110	2257.580618430419	1
0	9116	2258.085527390647	0
0	9127	2259.133712538497	1
0	9129	2259.160786724269	0
0	9149	2264.721819036442	1
0	9152	2266.331255141123	0
0	9163	2268.541126368336	1
0	9167	2271.149217173073	0
0	9191	2279.887747757901	1
0	9193	2280.662898350967	2
0	9195	2282.259801699733	1
0	9200	2282.54197303817	0
0	9216	2284.522065368077	1
0	9218	2284.675927802374	2
0	9221	2287.039144727856	1
0	9227	2287.883607903871	2
0	9232	2289.240536619938	3
0	9234	2289.632000155702	4
0	9236	2290.047447782721	5
0	9237	2290.529343890477	4
0	9242	2290.66392973378	3
0	9247	2292.741970061085	2
0	9253	2294.984182544561	3
0	9255	2295.059259707341	4
0	9256	2295.261954726776	3
0	9263	2295.47673807695	2
0	9268	2295.579656159622	1
0	9272	2297.823889187458	2
0	9276	2298.418489422801	1
0	9281	2298.669555721062	0
0	9298	2300.404049906283	1
0	9301	2301.034887402616	2
0	9304	2301.113102899961	1
0	9308	2301.564230919959	2
0	9313	2301.877459396687	1
0	9320	2304.555699460348	0
0	9350	2308.806822490917	1
0	9355	2310.520893647383	0
0	9372	2314.643112255398	1
0	9373	2314.746077550856	0
0	9383	2316.722072578926	1
0	9388	2320.644863361289	0
0	9402	2322.854149949394	1
0	9404	2323.23843596864	0
0	9419	2324.950502885324	1
0	9421	2325.876397314562	0
0	9432	2326.228367039227	1
0	9434	2327.52196619642	0
0	9440	2327.92052677367	1
0	9441	2328.424250048289	0
0	9462	2333.26244009535	1
0	9463	2333.523202723947	0
0	9474	2335.550561758048	1
0	9475	2335.790771641348	0
0	9484	2336.582048659559	1
0	9486	2338.268252678212	2
0	9489	2339.690359507948	1
0	9496	2340.941396073223	0
0	9500	2341.945595287159	1
0	9506	2344.402136357643	2
0	9507	2346.479480892944	1
0	9513	2348.047637106816	2
0	9514	2349.772342808165	1
0	9519	2349.877857187083	0
0	9530	2350.228948379146	1
0	9534	2351.29820665434	2
0	9536	2351.567761505504	3
0	9540	2352.258181309713	2
0	9548	2352.645897521197	1
0	9553	2353.738859281284	0
0	9559	2355.433821111241	1
0	9560	2355.445942171647	0
0	9564	2355.772837317474	1
0	9567	2357.776416423168	0
0	9585	2360.19986936093	1
0	9588	2362.834885287704	0
0	9597	2363.934455182741	1
0	9598	2364.61047829422	0
0	9607	2366.85736622859	1
0	9609	2367.332332391132	2
0	9615	2369.894793525581	1
0	9622	2372.134050668257	0
0	9639	2374.190611413472	1
0	9642	2375.711101193869	0
0	9666	2385.596324568937	1
0	9667	2385.894941888569	0
0	9699	2395.443252619485	1
0	9700	2396.448421804247	0
0	9712	2398.857671014276	1
0	9714	2398.941273383512	2
0	9715	2399.749924230216	1
0	9720	2399.839031251427	0
0	9735	2405.750648322174	1
0	9742	2406.601224009334	0
0	9791	2416.590573543294	1
0	9792	2416.724471007318	0
0	9806	2416.993878115177	1
0	9811	2418.472368838997	0
0	9820	2421.301014392637	1
0	9822	2421.368031568878	2
0	9824	2421.695405537517	3
0	9826	2421.821434726554	4
0	9831	2424.340550161684	5
0	9832	2424.416358118102	4
0	9840	2428.334562463658	3
0	9845	2429.058523138706	2
0	9852	2431.052383358843	1
0	9859	2431.301589243831	0
0	9879	2434.776756329083	1
0	9886	2435.786969893338	0
0	9979	2455.876273399921	1
0	9981	2457.335844988753	2
0	9982	2458.60518506967	1
0	9987	2458.625047157701	0
0	9999	2460.316889179287	1
0	10001	2460.670432812866	0
0	10023	2464.27916295775	1
0	10024	2464.656663335002	0
0	10060	2475.235033624429	1
0	10064	2475.734800844613	0
0	10076	2477.004247530121	1
0	10079	2479.407558145347	0
0	10154	2501.440520233307	1
0	10156	2502.807643259811	2
0	10159	2504.474494292552	1
0	10165	2505.044016117346	2
0	10166	2505.125835345937	1
0	10172	2506.564316945745	0
0	10178	2507.790939293538	1
0	10179	2507.848510072875	0
0	10208	2512.060855670437	1
0	10209	2512.372598992568	0
0	10221	2515.118616471978	1
0	10224	2515.79831151396	0
0	10253	2527.706929046559	1
0	10255	2529.405247128425	2
0	10259	2531.523613536358	3
0	10260	2532.403817395688	2
0	10264	2533.724295591129	3
0	10267	2535.694768897318	2
0	10273	2539.093728242744	1
0	10279	2540.158171133775	0
0	10300	2545.844672097081	1
0	10304	2547.339128287922	0
0	10332	2552.114480704859	1
0	10333	2553.127044352743	0
0	10408	2580.303376281369	1
0	10412	2581.688491173338	2
0	10413	2581.765679064222	1
0	10419	2583.173488403108	2
0	10425	2583.933870056114	3
0	10427	2584.651484871027	4
0	10428	2585.267226827646	3
0	10434	2585.33977705389	4
0	10435	2585.672914307358	3
0	10440	2585.951166825222	2
0	10447	2588.275854148761	3
0	10450	2591.250815549215	2
0	10455	2591.533065105841	1
0	10461	2591.560822886625	2
0	10462	2592.049885802947	1
0	10468	2593.317714271951	2
0	10472	2596.920877624178	3
0	10474	2597.814837346626	2
0	10480	2598.694745193734	3
0	10482	2599.530510013878	4
0	10483	2599.798482774514	3
0	10487	2601.244664583368	4
0	10493	2604.787113169343	5
0	10495	2605.196261976337	6
0	10497	2605.758710820159	7
0	10498	2606.699458648839	6
0	10503	2606.953607714119	5
0	10509	2607.022887248462	6
0	10510	2607.316992431744	5
0	10518	2608.154291880844	4
0	10523	2610.271220563689	3
0	10529	2611.564577765584	4
0	10533	2612.753705540455	3
0	10539	2613.51465454775	2
0	10545	2614.144103537802	3
0	10546	2615.209788082489	2
0	10550	2615.495419017921	3
0	10552	2615.550308779825	4
0	10554	2615.790231345866	5
0	10559	2616.932637780817	4
0	10564	2617.380162136353	3
0	10568	2618.49935362142	4
0	10571	2619.363182349131	3
0	10577	2619.757570591686	4
0	10580	2620.721104334312	3
0	10587	2621.170223650617	2
0	10592	2621.91593110575	1
0	10598	2622.443548666172	2
0	10599	2623.962186110843	1
0	10605	2624.398674652827	2
0	10606	2625.241818941566	1
0	10610	2625.255869511249	2
0	10612	2625.89888447745	3
0	10615	2626.983873273409	2
0	10621	2628.419988883405	3
0	10622	2629.609781903365	2
0	10628	2632.00246801385	1
0	10633	2633.229436705527	0
0	10646	2635.286986309923	1
0	10647	2635.306660750495	0
0	10658	2636.386787463657	1
0	10661	2638.595298815722	2
0	10663	2638.744398495566	3
0	10664	2639.936282254192	2
0	10670	2640.011891450963	3
0	10674	2645.223420611198	2
0	10679	2645.3426410551	1
0	10684	2646.476400187976	0
0	10733	2655.595694165018	1
0	10735	2656.243682273583	2
0	10737	2656.347608040524	3
0	10739	2656.406636245625	4
0	10745	2659.385013298238	5
0	10747	2660.006167247379	6
0	10750	2661.426046674273	5
0	10755	2661.885887570385	4
0	10764	2663.283625159498	5
0	10765	2664.612685805729	4
0	10772	2665.070502680626	3
0	10777	2666.785995574524	2
0	10782	2668.766414518354	1
0	10789	2669.837004634768	0
0	10793	2670.804923777508	1
0	10795	2672.993447496524	2
0	10797	2673.112342837922	3
0	10799	2673.777818407127	4
0	10804	2674.495475627984	3
0	10811	2676.361093166802	4
0	10813	2676.445741616266	5
0	10816	2677.742582026896	4
0	10821	2677.863462614187	3
0	10827	2678.903136431748	2
0	10832	2680.156007417138	1
0	10836	2680.52181413983	2
0	10840	2681.780428734633	3
0	10843	2684.139921260747	2
0	10848	2684.209992302637	1
0	10853	2684.766235364882	0
0	10857	2686.267394143173	1
0	10864	2690.773516575721	0
0	10893	2695.795309537414	1
0	10894	2697.271005205225	0
0	10964	2723.074011274106	1
0	10966	2723.12747879393	2
0	10968	2723.286145557442	3
0	10973	2726.463270813171	2
0	10980	2727.575167855568	1
0	10986	2728.58669018935	2
0	10988	2728.816337304784	3
0	10990	2729.310322875716	4
0	10992	2729.584522286798	3
0	10997	2729.711494640522	2
0	11005	2730.897489538746	1
0	11011	2733.73659648848	0
0	11061	2741.257768984508	1
0	11065	2741.624212516751	2
0	11066	2742.342092917003	1
0	11073	2745.040771035095	0
0	11079	2745.45956100038	1
0	11080	2745.7238080261	0
0	11093	2747.663474769028	1
0	11096	2749.950589928804	0
0	11102	2750.169516002677	1
0	11103	2750.249014612946	0
0	11116	2752.452908258706	1
0	11118	2753.087632541657	2
0	11119	2753.126824275038	1
0	11125	2753.315204533965	0
0	11147	2757.616556977626	1
0	11149	2758.174835027559	2
0	11151	2760.494459795973	1
0	11157	2760.628345946619	2
0	11159	2761.029580951909	3
0	11164	2766.53326118994	2
0	11171	2768.04862160999	3
0	11173	2768.113262750078	4
0	11174	2768.257918101951	3
0	11179	2768.491729344141	2
0	11186	2769.383674555543	1
0	11192	2769.463516393564	2
0	11193	2770.612913783809	1
0	11198	2770.913462478474	0
0	11212	2775.742456533705	1
0	11213	2775.826765344964	0
0	11242	2782.166187632424	1
0	11243	2782.454653689667	0
0	11258	2785.110273098374	1
0	11259	2785.142793041999	0
0	11276	2793.665297186727	1
0	11277	2793.911738892963	0
0	11298	2799.453238933398	1
0	11299	2799.71848420749	0
0	11329	2818.241389169658	1
0	11333	2819.225379872931	0
0	11339	2820.121764677043	1
0	11341	2820.843404500623	2
0	11343	2821.722288271075	1
0	11349	2822.442521543812	2
0	11350	2822.636080039473	1
0	11356	2826.009733273595	2
0	11358	2826.608069058634	1
0	11363	2826.736192194685	0
0	11369	2826.934765216075	1
0	11376	2829.368728529917	0
0	11408	2833.908683203249	1
0	11409	2835.218998319437	0
0	11424	2839.832962489987	1
0	11428	2842.01163885081	0
0	11450	2847.857066913538	1
0	11452	2848.030481168728	2
0	11453	2848.768800028067	1
0	11458	2848.936586760722	0
0	11477	2852.463547611151	1
0	11479	2852.665126501926	2
0	11481	2855.205480127206	3
0	11484	2856.420997322788	2
0	11491	2858.906522204591	1
0	11497	2859.532154346542	2
0	11498	2860.388814036488	1
0	11504	2860.460470067742	2
0	11507	2862.975900838081	1
0	11513	2863.259622896374	2
0	11516	2865.07536450612	1
0	11521	2865.139370536521	0
0	11528	2865.222670095462	1
0	11529	2866.205026704043	0
0	11540	2870.082289435829	1
0	11543	2871.469699825903	0
0	11547	2872.754308795876	1
0	11549	2873.180578744806	2
0	11554	2873.475753086223	3
0	11559	2877.337617732344	4
0	11560	2877.810125416016	3
0	11566	2878.690493063298	2
0	11572	2878.74907572337	1
0	11577	2879.6164807035	0
0	11597	2882.761231522644	1
0	11598	2883.347550816455	0
0	11609	2884.483224925025	1
0	11612	2887.07866463553	0
0	11664	2903.985157664208	1
0	11674	2906.268902182558	0
0	11708	2910.344062725931	1
0	11710	2910.362055106085	2
0	11711	2911.958045431618	1
0	11717	2911.967155764634	2
0	11718	2912.763725313979	1
0	11723	2913.085557150856	0
0	11748	2920.78875776305	1
0	11750	2921.522193994377	2
0	11751	2921.871183898257	1
0	11760	2922.651317354492	2
0	11761	2922.845526818604	1
0	11766	2922.864083228521	0
0	11798	2925.329544841171	1
0	11802	2926.572007992585	2
0	11806	2927.909357256036	3
0	11807	2928.412588862044	2
0	11815	2931.442824480214	3
0	11816	2931.902434978474	2
0	11823	2932.536703445269	3
0	11825	2934.881682803952	2
0	11830	2935.18845068701	1
0	11835	2935.292709939988	0
0	11898	2964.529689090246	1
0	11903	2965.707213822583	2
0	11905	2965.895911746236	3
0	11906	2966.108716560592	2
0	11911	2966.717082422143	1
0	11921	2970.145366791887	0
0	11933	2971.548545529661	1
0	11935	2971.944620872677	0
0	11941	2972.045820159735	1
0	11943	2973.197391702688	0
0	11972	2981.895508227162	1
0	11973	2982.534985961001	0
0	12023	2990.494598852488	1
0	12027	2992.182807113199	0
0	12121	3037.712922096035	1
0	12124	3038.706302786649	2
0	12125	3038.94750605599	1
0	12130	3040.033682338668	0
0	12134	3040.176499847708	1
0	12137	3043.163197995853	0
0	12141	3043.32674000178	1
0	12144	3044.090606625425	0
0	12181	3052.199921598449	1
0	12183	3052.433171810389	0
0	12189	3052.461503031256	1
0	12191	3052.505733530713	2
0	12193	3054.104646358375	1
0	12201	3056.159234182201	0
0	12212	3056.686099447757	1
0	12214	3056.715501430375	2
0	12215	3057.037804467324	1
0	12221	3059.721383971084	2
0	12223	3060.106926812778	1
0	12229	3060.826725951758	0
0	12327	3088.676563236117	1
0	12331	3090.393211700133	2
0	12332	3091.274204161856	1
0	12341	3095.101982409697	0
0	12350	3098.661360294888	1
0	12354	3100.333950390291	2
0	12358	3101.714528082556	3
0	12359	3101.932098798572	2
0	12364	3102.253292201255	1
0	12370	3103.204000789017	2
0	12372	3103.557560920056	1
0	12377	3104.191320253321	0
0	12384	3106.213062898373	1
0	12385	3106.635893200013	0
0	12391	3106.970748894584	1
0	12394	3107.857474589889	2
0	12396	3109.845007508667	1
0	12402	3110.769716004374	2
0	12403	3111.188285234382	1
0	12411	3113.127311616139	0
0	12435	3116.4853433215	1
0	12436	3117.155937909761	0
0	12445	3118.530823097105	1
0	12450	3125.048890358052	2
0	12451	3125.926912160476	1
0	12457	3127.338760390599	0
0	12470	3129.988451312907	1
0	12472	3130.135765926899	2
0	12474	3130.148518661234	3
0	12475	3130.839945641129	2
0	12481	3132.143244986765	1
0	12486	3132.352278813625	0
0	12490	3133.111604048802	1
0	12492	3133.486222843433	2
0	12494	3133.961811327663	3
0	12496	3134.430403356372	4
0	12499	3136.629996491984	3
0	12505	3136.861138522331	4
0	12507	3137.095820109401	5
0	12510	3138.734673206945	4
0	12516	3139.747009246962	3
0	12521	3140.557088268212	2
0	12526	3141.39800108264	1
0	12535	3143.615385052099	0
0	12546	3144.749031287225	1
0	12547	3144.75558494734	0
0	12574	3150.20629953131	1
0	12576	3150.466819307199	2
0	12577	3152.209058209234	1
0	12583	3152.301478372701	0
0	12589	3152.763834908012	1
0	12590	3152.85850544559	0
0	12605	3159.313778465695	1
0	12607	3159.693080015252	0
0	12625	3162.823017666114	1
0	12628	3163.859365781165	0
0	12669	3172.181976815752	1
0	12670	3172.352476212722	0
0	12676	3172.749213703902	1
0	12677	3172.8122030614	0
0	12693	3174.992137644793	1
0	12696	3175.972719860761	0
0	12702	3176.188762023546	1
0	12704	3179.214248852919	0
0	12748	3187.505833893814	1
0	12751	3187.633993687107	0
0	12783	3197.622747892265	1
0	12785	3198.080705405323	2
0	12786	3198.373345992793	1
0	12792	3198.50614808736	0
0	12829	3211.436491244795	1
0	12832	3212.469644540231	0
0	12849	3215.127998944374	1
0	12850	3217.025229248718	0
0	12869	3219.942070377395	1
0	12870	3220.063214352946	0
0	12887	3225.221871619699	1
0	12891	3226.171965471042	2
0	12892	3227.031283338622	1
0	12898	3228.358223153929	0
0	12910	3236.254937732276	1
0	12914	3236.920571220169	2
0	12916	3237.509114202617	3
0	12918	3238.020103831686	4
0	12922	3238.706689289967	5
0	12926	3240.602224324233	4
0	12931	3240.761895114513	3
0	12936	3240.83678876363	2
0	12940	3242.316210121001	3
0	12945	3243.54703181	2
0	12949	3243.621275399099	3
0	12951	3243.807525115679	4
0	12953	3244.042630219588	5
0	12955	3245.18296272276	6
0	12960	3245.901006943155	7
0	12962	3246.276512532184	8
0	12965	3246.772961737308	9
0	12966	3250.472152538635	8
0	12971	3250.537242292206	7
0	12977	3250.708050688218	6
0	12983	3251.098668239658	7
0	12985	3251.576160620368	6
0	12990	3253.957012200256	5
0	12996	3256.435604193657	4
0	13005	3258.653803939823	3
0	13011	3260.537964871593	2
0	13016	3260.652460943512	1
0	13024	3264.81195665081	2
0	13025	3264.84255014173	1
0	13030	3265.587818568079	0
0	13047	3268.800433261572	1
0	13048	3270.091400962095	0
0	13059	3270.803706567473	1
0	13062	3271.528665495869	0
0	13071	3272.725832834189	1
0	13073	3274.358098182701	2
0	13079	3275.778215640198	3
0	13083	3276.601805351798	2
0	13088	3276.97213207303	1
0	13094	3277.884793714397	2
0	13095	3278.588327501314	1
0	13099	3280.436949219301	2
0	13105	3283.103558171699	3
0	13106	3283.262022908655	2
0	13113	3283.948454346298	1
0	13123	3286.188536569553	0
0	13136	3288.076574066981	1
0	13137	3288.381149634286	0
0	13144	3288.526661150604	1
0	13146	3288.56792927453	2
0	13147	3288.829699829496	1
0	13153	3289.058440226147	0
0	13164	3289.691002297389	1
0	13165	3290.00208534178	0
0	13181	3291.124771908845	1
0	13184	3291.192888084469	0
0	13202	3293.985347684957	1
0	13203	3294.195997041785	0
0	13212	3294.504099924908	1
0	13216	3295.845027555958	0
0	13238	3299.38524786758	1
0	13242	3300.38587828278	2
0	13247	3301.369141915159	1
0	13252	3301.826583176613	0
0	13261	3303.37818465433	1
0	13263	3304.498291412919	2
0	13265	3305.422233131806	3
0	13268	3306.393514555605	2
0	13273	3307.951546208319	1
0	13279	3309.039818062519	2
0	13281	3309.579553727674	3
0	13282	3309.722647677796	2
0	13288	3310.40522417089	3
0	13289	3310.611143283562	2
0	13297	3311.316274381966	1
0	13302	3311.48418043545	0
0	13330	3316.452792510021	1
0	13332	3316.47820048644	2
0	13335	3318.649311061965	3
0	13336	3319.192400226237	2
0	13341	3319.237250448813	1
0	13350	3321.852595793841	0
0	13363	3323.270750869153	1
0	13364	3325.366930732573	0
0	13383	3332.348736820059	1
0	13384	3332.670148477687	0
0	13391	3335.294456981026	1
0	13392	3335.824047626632	0
0	13419	3343.710588767619	1
0	13424	3347.230474591814	0
0	13445	3357.212844283263	1
0	13446	3357.434554465426	0
0	13463	3359.28548270337	1
0	13465	3360.557829390227	2
0	13469	3360.787483094649	3
0	13471	3361.341967581867	4
0	13472	3362.037930074528	3
0	13480	3364.204142866272	2
0	13485	3365.728729500507	1
0	13491	3367.664270526924	0
0	13497	3368.01583491389	1
0	13498	3368.267621561896	0
0	13516	3372.815705944124	1
0	13518	3373.738855196717	0
0	13556	3383.412590161686	1
0	13557	3383.738241921173	0
0	13579	3388.783319947276	1
0	13581	3388.842368365277	2
0	13587	3390.400633975341	3
0	13588	3391.039597926825	2
0	13593	3391.384033401976	1
0	13598	3391.605158720007	0
0	13611	3394.422482766583	1
0	13613	3394.84833333479	2
0	13614	3396.174715585321	1
0	13619	3396.651350743541	0
0	13626	3396.928412951042	1
0	13627	3397.432988842539	0
0	13637	3399.902071713017	1
0	13638	3400.759958598784	0
0	13644	3401.363949442113	1
0	13645	3401.460483460421	0
0	13677	3406.430554368525	1
0	13680	3407.272894042751	0
0	13699	3417.984187065526	1
0	13701	3418.002002918056	2
0	13706	3420.28031608908	3
0	13710	3421.781347714667	2
0	13716	3424.145202702856	3
0	13717	3425.934359692637	2
0	13722	3426.230335586379	1
0	13726	3427.23132456114	2
0	13731	3428.479289678634	3
0	13736	3430.825606016367	2
0	13745	3431.153004822696	3
0	13746	3431.341985004783	2
0	13752	3431.697024573308	1
0	13758	3432.379683990727	0
0	13781	3437.625846678633	1
0	13785	3440.227424848695	2
0	13787	3440.721158784472	3
0	13789	3440.955906719447	4
0	13791	3441.161490384917	5
0	13794	3444.801901969348	4
0	13799	3445.190009875457	3
0	13804	3445.51758073369	2
0	13808	3447.776760723588	3
0	13810	3448.424215884615	4
0	13813	3449.951247148091	3
0	13818	3450.623816810754	2
0	13822	3450.667419760794	3
0	13824	3451.038440467389	4
0	13827	3454.84746872898	3
0	13832	3455.242305928851	2
0	13839	3459.188267313117	1
0	13846	3459.785523683381	2
0	13847	3459.822816081245	1
0	13854	3461.901606203619	0
0	13867	3464.704819706278	1
0	13870	3466.093336794544	2
0	13873	3466.691573532701	3
0	13875	3467.318113633384	4
0	13876	3468.701873092738	3
0	13882	3470.648323301943	2
0	13888	3471.077532374751	3
0	13890	3473.068773629313	2
0	13896	3473.350767384121	3
0	13899	3473.58597290271	4
0	13900	3474.093426513215	3
0	13905	3474.685965004206	2
0	13910	3474.744895525701	1
0	13914	3477.143714552694	2
0	13918	3477.982632514371	3
0	13920	3478.683716306741	2
0	13925	3478.749989747992	1
0	13933	3481.634868075218	2
0	13934	3481.789497469887	1
0	13939	3483.101355238887	0
0	13975	3496.174492906081	1
0	13980	3497.9704265468	0
0	13992	3502.041834550635	1
0	13995	3502.650291129663	0
0	14013	3506.778920442935	1
0	14015	3507.121235040724	2
0	14016	3507.127045755327	1
0	14021	3507.254071303353	0
0	14029	3509.398727140987	1
0	14030	3509.450832467776	0
0	14039	3510.607405603895	1
0	14041	3510.842377741138	0
0	14054	3512.785512193928	1
0	14055	3513.807969530999	0
0	14077	3518.692992767612	1
0	14078	3518.953143599314	0
0	14109	3525.225687340786	1
0	14110	3526.02128753724	0
0	14127	3528.421309941477	1
0	14128	3528.504645028854	0
0	14140	3531.296587444017	1
0	14142	3531.352650830599	2
0	14145	3533.132476861254	1
0	14150	3533.484152117239	0
0	14189	3541.737559948701	1
0	14191	3544.64137434694	2
0	14193	3544.978318266108	3
0	14194	3545.325839311599	2
0	14200	3546.181194489542	3
0	14204	3548.715652305092	2
0	14209	3548.873616168326	1
0	14214	3549.070574063791	0
0	14218	3549.489340128191	1
0	14224	3553.059524960455	0
0	14243	3556.832621391409	1
0	14246	3557.454571352534	0
0	14257	3558.647765061963	1
0	14258	3558.830782557422	0
0	14283	3569.853980415368	1
0	14288	3570.948739504563	0
0	14320	3576.538992821948	1
0	14323	3578.822622978948	0
0	14330	3581.282324773571	1
0	14331	3581.773573721945	0
0	14337	3582.016439150083	1
0	14339	3583.137413258267	0
0	14375	3592.344632527319	1
0	14380	3597.020071398321	0
0	14428	3613.579501798418	1
0	14432	3615.491625022244	0
0	14438	3616.020368920594	1
0	14443	3616.147095757929	2
0	14445	3616.87550925919	3
0	14448	3618.138514366447	2
0	14453	3618.695493896838	1
0	14459	3618.70656509994	2
0	14460	3618.815662256196	1
0	14464	3619.035514286082	2
0	14467	3620.118821385884	1
0	14471	3621.923442630489	2
0	14475	3622.695861627126	1
0	14480	3623.812021631518	0
0	14488	3625.852317467692	1
0	14491	3626.738755426859	2
0	14492	3626.76736730332	1
0	14500	3627.326664437725	2
0	14501	3627.327138318548	1
0	14506	3629.582663111105	0
0	14512	3632.910665735696	1
0	14517	3635.052093486915	2
0	14519	3635.820425595729	3
0	14520	3636.000034292996	2
0	14527	3636.980451331196	1
0	14532	3637.868888819427	0
0	14552	3644.973350184979	1
0	14553	3645.580207381563	0
0	14567	3648.947900002537	1
0	14568	3649.379366580019	0
0	14587	3654.052921296268	1
0	14589	3654.854786357522	2
0	14590	3655.363718038297	1
0	14595	3655.967920837422	0
0	14602	3656.59437088341	1
0	14604	3657.04199549908	2
0	14607	3659.485708233938	1
0	14612	3659.537005415245	0
0	14639	3667.353451374452	1
0	14642	3668.749794989815	0
0	14648	3668.92184316709	1
0	14649	3669.032226974213	0
0	14712	3691.496816006867	1
0	14714	3692.630960089365	2
0	14716	3693.859192936038	1
0	14722	3694.61422851551	0
0	14737	3699.193786574526	1
0	14738	3699.685910769125	0
0	14752	3701.197997194073	1
0	14753	3703.633434292921	0
0	14813	3717.095082647473	1
0	14814	3717.383595120958	0
0	14838	3723.242209472905	1
0	14840	3723.644395501085	2
0	14841	3724.449021434537	1
0	14846	3724.808774909073	0
0	14863	3732.585256366432	1
0	14865	3733.074475180109	2
0	14866	3733.253323995024	1
0	14873	3735.325038243032	2
0	14874	3735.422029816651	1
0	14880	3735.558704898153	2
0	14882	3735.704561102167	1
0	14889	3737.529856790626	0
0	14896	3737.71761702382	1
0	14902	3738.86586580191	2
0	14904	3739.288893798339	1
0	14910	3739.734308042266	2
0	14911	3740.116602538362	1
0	14916	3740.679624549462	0
0	14927	3741.159834806525	1
0	14928	3741.383604043728	0
0	14932	3741.576612219823	1
0	14935	3742.056224684323	0
0	14939	3742.175028454024	1
0	14941	3743.189475537059	2
0	14945	3744.5690172714	1
0	14950	3744.944586492038	0
0	14958	3746.765141450769	1
0	14960	3748.913328629919	2
0	14961	3750.734209578602	1
0	14965	3750.978210239385	2
0	14969	3753.876013619034	3
0	14970	3754.44678243359	2
0	14976	3756.256127533495	3
0	14981	3757.208484975162	4
0	14983	3759.372447672258	3
0	14989	3759.433507840954	4
0	14991	3759.624902667527	5
0	14992	3760.41889412758	4
0	14998	3760.477968790284	3
0	15003	3761.766725130854	2
0	15007	3763.39176127394	3
0	15009	3764.565220092327	4
0	15014	3766.037468809418	3
0	15019	3766.140689703616	2
0	15024	3767.158653292112	1
0	15031	3771.944795776514	0
0	15042	3775.242687625712	1
0	15044	3776.982683015101	0
0	15071	3779.462307081218	1
0	15072	3780.310867232764	0
0	15084	3781.536682347675	1
0	15086	3782.198227566955	2
0	15088	3784.71337482086	3
0	15089	3785.294334260619	2
0	15096	3786.086207397449	1
0	15101	3786.193054013923	0
0	15115	3790.522132401656	1
0	15117	3791.079132029768	0
0	15146	3802.815605090609	1
0	15147	3802.820519311311	0
0	15163	3808.270942253848	1
0	15164	3808.428581312803	0
0	15201	3820.130103778003	1
0	15202	3820.3350033881	0
0	15223	3823.072684299196	1
0	15224	3824.057708609319	0
0	15238	3826.862999963052	1
0	15240	3828.247579365753	0
0	15262	3833.719433404547	1
0	15265	3835.49217070591	0
0	15271	3835.526777680514	1
0	15274	3836.975039029048	0
0	15324	3847.935364294562	1
0	15325	3848.56352811215	0
0	15353	3853.545295671621	1
0	15354	3853.552044844202	0
0	15380	3855.91410253242	1
0	15381	3856.884634871819	0
0	15391	3858.343925607021	1
0	15395	3860.433054684868	2
0	15396	3861.45694896207	1
0	15403	3861.919726233765	0
0	15409	3863.194454647559	1
0	15413	3864.209530759473	2
0	15414	3864.690732983147	1
0	15421	3867.677661947044	0
0	15425	3869.057387701777	1
0	15427	3869.503484239112	2
0	15431	3870.436200431273	3
0	15433	3871.097015590911	4
0	15434	3871.709363094073	3
0	15438	3871.929061214747	4
0	15441	3872.401690083298	3
0	15448	3875.76106448361	2
0	15454	3876.670099056816	3
0	15455	3876.977109363707	2
0	15460	3877.273738934475	1
0	15464	3877.406462078317	2
0	15470	3879.161173422724	3
0	15473	3879.704225629103	2
0	15479	3880.266926491803	3
0	15480	3882.856899066309	2
0	15485	3882.910694127685	1
0	15489	3883.941110110027	2
0	15491	3884.38676583478	3
0	15493	3884.479312924721	4
0	15502	3887.189098283424	5
0	15504	3890.41562756361	4
0	15511	3892.003245144829	5
0	15512	3892.786892981491	4
0	15519	3893.443938190945	5
0	15520	3893.635950876089	4
0	15528	3894.151944803749	3
0	15534	3896.824653869785	2
0	15539	3897.011589265031	1
0	15545	3897.914911855994	2
0	15546	3899.279540930437	1
0	15550	3899.841738645626	2
0	15552	3900.988379506718	3
0	15556	3902.299054496096	4
0	15558	3903.435061698611	5
0	15563	3907.159333089572	6
0	15565	3907.666200281377	7
0	15568	3909.572928264053	6
0	15575	3913.691520662232	5
0	15581	3914.536681037666	6
0	15582	3915.742887494074	5
0	15587	3916.811449228119	4
0	15591	3917.649674597352	5
0	15593	3918.299075262328	6
0	15595	3919.158458295922	7
0	15602	3921.844012636301	6
0	15607	3924.996352010521	5
0	15611	3926.193458176141	6
0	15614	3926.517360104865	5
0	15618	3926.651807322112	6
0	15621	3926.830764206261	5
0	15626	3927.66386881808	4
0	15632	3929.617307120755	3
0	15637	3931.177357846656	2
0	15645	3931.856721723473	3
0	15647	3931.995224646688	4
0	15648	3932.187547514013	3
0	15653	3932.299077457238	2
0	15660	3932.791947994348	1
0	15668	3935.393325146309	0
0	15702	3942.187013293162	1
0	15705	3944.66000026974	0
0	15711	3945.186096522981	1
0	15713	3946.543830338961	0
0	15725	3947.528496984502	1
0	15726	3948.318007787231	0
0	15732	3948.375039654066	1
0	15733	3948.4966838591	0
0	15742	3950.735967062305	1
0	15743	3951.085505629348	0
0	15749	3951.32530026083	1
0	15751	3953.133826756192	0
0	15768	3954.087689404356	1
0	15769	3954.114146673138	0
0	15785	3957.849407233542	1
0	15786	3960.249440162381	0
0	15799	3965.455926942574	1
0	15803	3969.139766922025	2
0	15804	3969.341165333716	1
0	15809	3969.403883516244	0
0	15815	3969.419115990791	1
0	15821	3971.892388411256	2
0	15822	3971.936032641159	1
0	15829	3973.443677883569	0
0	15843	3976.185291962623	1
0	15848	3978.575312191582	2
0	15849	3980.416449870999	1
0	15855	3980.80547700915	0
0	15867	3981.753272532312	1
0	15870	3982.196582343484	2
0	15872	3982.314760893248	3
0	15873	3982.833307807731	2
0	15880	3983.866382448214	3
0	15884	3984.171444570776	4
0	15886	3985.579015372694	5
0	15887	3986.431799575254	4
0	15894	3987.009941411037	5
0	15897	3988.165362680405	4
0	15903	3988.442470258403	5
0	15904	3988.611981197527	4
0	15910	3990.18464395067	3
0	15916	3991.290780089774	2
0	15922	3991.340144137343	3
0	15924	3991.618883085555	2
0	15930	3992.03553193144	3
0	15933	3992.78693376314	2
0	15941	3995.063847401921	1
0	15947	3995.185846794454	2
0	15949	3995.342255987105	1
0	15954	3995.458326996222	0
0	15961	3996.986121437447	1
0	15962	3997.545980454077	0
0	15968	3997.825466191927	1
0	15971	3999.157978846147	0
0	15986	4002.270470046347	1
0	15989	4002.917271886476	0
0	16009	4004.099114741628	1
0	16011	4006.247824096337	2
0	16013	4007.426728353437	3
0	16016	4008.574411202444	2
0	16021	4008.967237952003	1
0	16027	4012.357387371823	2
0	16030	4015.575568611286	1
0	16036	4016.001774137827	2
0	16041	4018.80656305578	1
0	16052	4020.621623605634	2
0	16056	4021.506168973607	1
0	16061	4021.575167116332	0
0	16086	4023.996981450215	1
0	16087	4024.461392659995	0
0	16096	4024.561012650604	1
0	16100	4027.657948274131	0
0	16122	4032.941325699734	1
0	16125	4034.213655110678	0
0	16157	4042.491188649035	1
0	16161	4044.795869795696	2
0	16164	4046.860237070527	3
0	16166	4049.083298661781	4
0	16167	4050.83040617166	3
0	16174	4051.648615781836	4
0	16175	4052.102962647346	3
0	16181	4052.287113709855	4
0	16183	4052.936928467748	5
0	16184	4053.617345328957	4
0	16189	4053.642418217608	3
0	16193	4054.053827389364	4
0	16198	4057.848381670042	3
0	16202	4058.27033286051	4
0	16205	4059.845696499919	3
0	16210	4060.314795828231	2
0	16215	4060.734928622058	1
0	16221	4064.552985890275	2
0	16227	4065.88675138319	3
0	16230	4066.904783325814	2
0	16236	4067.5906689875	3
0	16239	4068.328447406332	2
0	16245	4069.010356595317	1
0	16250	4069.409026809573	0
0	16268	4073.632044528513	1
0	16269	4074.45620917554	0
0	16278	4074.820489546311	1
0	16280	4075.396402898498	2
0	16283	4075.714537326734	1
0	16289	4076.121751500929	2
0	16290	4076.429782712187	1
0	16298	4077.353513763693	0
0	16314	4079.442452495148	1
0	16316	4079.561082489259	2
0	16318	4082.619775653944	3
0	16325	4085.212327330249	2
0	16333	4085.627349275203	1
0	16338	4085.777060613291	0
0	16344	4087.316629830574	1
0	16345	4088.340327081588	0
0	16359	4090.01079538585	1
0	16362	4091.191223840712	2
0	16365	4091.279777124695	3
0	16371	4094.305546495991	4
0	16372	4095.248959761799	3
0	16377	4095.515367331227	2
0	16383	4095.87231258073	3
0	16388	4098.111108146964	4
0	16389	4098.144140374997	3
0	16394	4098.562830344427	2
0	16399	4098.802375959103	1
0	16404	4099.762503390835	0
0	16408	4101.850722904663	1
0	16410	4102.549265671795	2
0	16414	4103.925100945268	3
0	16418	4106.429494708082	4
0	16420	4106.980381424063	5
0	16425	4110.757334957915	6
0	16427	4111.088455671259	5
0	16432	4111.846566692062	4
0	16438	4112.830445932593	5
0	16439	4113.190873717665	4
0	16445	4113.956832495296	5
0	16448	4114.813547199366	4
0	16457	4116.838100029826	3
0	16461	4119.940889740392	4
0	16465	4124.655414764384	5
0	16467	4125.373714154242	6
0	16469	4125.949996925663	7
0	16473	4126.641031114238	8
0	16474	4127.198081428812	7
0	16481	4130.681771654659	6
0	16485	4130.849415161698	7
0	16491	4133.551453408917	8
0	16492	4133.709619139831	7
0	16497	4133.836728498731	6
0	16502	4134.280249840976	5
0	16508	4135.767995424833	4
0	16516	4136.693373255355	3
0	16521	4138.060314242139	2
0	16527	4139.590819821571	1
0	16537	4140.289162022329	2
0	16539	4140.640013308705	3
0	16541	4141.50633993667	4
0	16542	4143.023338991818	3
0	16547	4143.155229647927	2
0	16552	4143.265504398871	1
0	16558	4144.19194814942	0
0	16579	4147.182934615776	1
0	16580	4150.317784114595	0
0	16592	4153.381047571445	1
0	16594	4153.835390408362	2
0	16595	4155.010807522423	1
0	16600	4155.034277598894	0
0	16608	4155.268931070655	1
0	16610	4156.324886538728	0
0	16619	4157.354752889375	1
0	16627	4160.733648191603	2
0	16637	4164.597883463709	3
0	16640	4165.397892270532	2
0	16645	4165.569763661712	1
0	16651	4166.283078148674	2
0	16652	4167.139315141469	1
0	16657	4167.741282414089	0
0	16697	4178.690338742028	1
0	16699	4180.040767396428	2
0	16701	4180.162309888189	3
0	16704	4183.520138293583	2
0	16710	4184.136390793012	3
0	16713	4185.992450980962	4
0	16715	4186.209260361633	5
0	16717	4187.047325563587	4
0	16726	4187.806641033681	5
0	16727	4188.638391801678	4
0	16733	4189.628369321391	3
0	16740	4190.715563911442	4
0	16742	4191.907152251878	5
0	16747	4192.674036504745	4
0	16752	4193.076508948782	3
0	16757	4193.321582771513	2
0	16761	4193.596584959068	3
0	16768	4196.006174095713	4
0	16769	4196.210712451738	3
0	16774	4196.497921977184	2
0	16778	4196.73684359421	3
0	16781	4197.597497878134	2
0	16785	4197.840648474097	3
0	16788	4199.71454833767	2
0	16794	4200.52726777712	3
0	16796	4202.198555443258	2
0	16802	4202.807612307828	1
0	16812	4203.992057393964	0
0	16836	4206.68312596715	1
0	16840	4206.947492469757	2
0	16843	4207.705588900557	3
0	16844	4207.876243810238	2
0	16850	4208.018288162576	1
0	16856	4209.062998066947	2
0	16862	4211.468320392955	3
0	16863	4211.611210888826	2
0	16868	4212.298881384381	1
0	16876	4214.383831953055	2
0	16878	4216.591031494305	1
0	16884	4218.886698878091	0
0	16919	4228.593555658699	1
0	16925	4231.937183672812	2
0	16926	4231.985359508854	1
0	16933	4232.054167748404	2
0	16934	4232.277419565121	1
0	16940	4232.995808711823	0
0	16951	4234.796704179355	1
0	16958	4236.953074939988	0
0	16970	4239.946999261275	1
0	16972	4240.502580469537	2
0	16976	4241.737394596747	3
0	16977	4242.709653232662	2
0	16983	4243.314373755188	3
0	16984	4245.983546663758	2
0	16989	4246.44959548839	1
0	16996	4247.285076021184	0
0	17000	4247.772576731412	1
0	17004	4249.155468304004	2
0	17012	4250.672218646698	3
0	17013	4251.341330408847	2
0	17020	4251.834851460293	1
0	17027	4253.421104315212	2
0	17028	4253.638002015613	1
0	17033	4253.881136439681	0
0	17061	4261.425224669667	1
0	17062	4263.472778065069	0
0	17075	4266.342058651901	1
0	17077	4269.41502512474	2
0	17079	4270.335155883809	3
0	17080	4270.711156660288	2
0	17086	4271.360538125886	1
0	17091	4272.035856591243	0
0	17109	4275.323006874737	1
0	17110	4275.405284692834	0
0	17116	4275.992043287148	1
0	17118	4276.877794077486	2
0	17122	4278.275833766839	1
0	17127	4278.852036617958	0
0	17133	4280.891432114526	1
0	17141	4284.350930178552	0
0	17147	4284.894132522776	1
0	17148	4285.114973511312	0
0	17155	4285.463275923437	1
0	17157	4286.354280414723	0
0	17170	4287.399322985297	1
0	17171	4288.46788958556	0
0	17195	4292.067865462785	1
0	17197	4294.043188091293	2
0	17198	4295.802890523022	1
0	17205	4295.851125002621	0
0	17217	4297.678989295227	1
0	17219	4298.350362241801	0
0	17228	4299.544692728484	1
0	17229	4300.822430735182	0
0	17245	4304.396761902881	1
0	17247	4304.752766207723	2
0	17250	4307.819515440345	1
0	17257	4308.159848423989	2
0	17260	4309.082190856177	3
0	17262	4309.622762986518	4
0	17264	4310.325560710028	3
0	17270	4310.355457727458	4
0	17271	4310.785246488296	3
0	17276	4311.093378704114	2
0	17281	4312.746166617935	1
0	17285	4313.704082933187	2
0	17287	4314.809381154985	3
0	17291	4316.756933287518	2
0	17296	4317.097877543011	1
0	17300	4318.080676655736	2
0	17304	4320.739985009504	1
0	17309	4323.214033785073	0
0	17317	4325.241383074794	1
0	17318	4325.308430667835	0
0	17338	4330.20938820417	1
0	17341	4330.6074034306	0
0	17351	4335.338138727785	1
0	17353	4336.341650801844	2
0	17355	4336.814168667504	3
0	17357	4338.951007068878	4
0	17360	4340.873351770622	3
0	17365	4340.982838715081	2
0	17370	4341.264836364446	1
0	17377	4343.401219114025	0
0	17383	4343.915013994856	1
0	17388	4345.26189933506	0
0	17408	4351.874357746289	1
0	17410	4352.324911917217	2
0	17412	4352.545968703185	3
0	17413	4352.706963611294	2
0	17419	4353.618234946833	3
0	17420	4354.37676861144	2
0	17425	4354.432914522551	1
0	17435	4356.600174354329	0
0	17441	4358.363783993314	1
0	17444	4359.653013674687	0
0	17484	4368.503168467709	1
0	17485	4368.600472903333	0
0	17491	4368.757051258356	1
0	17493	4370.139273342119	0
0	17497	4370.20370238588	1
0	17500	4374.856276638128	0
0	17506	4375.226639241322	1
0	17507	4376.140072666319	0
0	17513	4377.341276168443	1
0	17514	4377.433379523641	0
0	17518	4377.542602640333	1
0	17520	4379.64753881619	2
0	17527	4384.764756916516	1
0	17534	4386.377399624892	0
0	17550	4387.912724326584	1
0	17554	4391.006853856036	0
0	17560	4391.282286649146	1
0	17563	4392.843759276451	2
0	17564	4393.395069218732	1
0	17572	4394.177487285019	2
0	17574	4394.243501542197	3
0	17576	4394.643385856267	2
0	17584	4396.236603390668	1
0	17589	4396.599234948807	0
0	17612	4400.455369707746	1
0	17613	4401.09335222347	0
0	17623	4403.019236380888	1
0	17626	4405.427018224793	0
0	17641	4406.540304833682	1
0	17643	4406.67728517818	2
0	17645	4408.327774662648	3
0	17649	4408.653889322582	4
0	17650	4409.612181435469	3
0	17658	4410.953974677861	2
0	17666	4411.59942516308	1
0	17671	4413.602805963101	0
0	17677	4414.795937224152	1
0	17684	4417.635212731148	0
0	17696	4418.165719349807	1
0	17701	4420.330787278679	0
0	17715	4421.286164824188	1
0	17718	4421.849456370819	0
0	17727	4423.593329495327	1
0	17730	4424.994035798785	0
0	17734	4426.491842328655	1
0	17739	4428.279265141802	0
0	17743	4428.895057181548	1
0	17745	4429.852463610266	2
0	17747	4430.535461761761	3
0	17754	4432.183550559091	4
0	17756	4432.976075160324	3
0	17763	4434.835800927098	2
0	17770	4436.170779137225	1
0	17775	4436.768626166269	0
0	17800	4443.139187163101	1
0	17805	4445.099487477287	0
0	17815	4447.053600274845	1
0	17818	4447.47953805382	0
0	17827	4448.270608267438	1
0	17828	4448.848612534204	0
0	17847	4451.345444488419	1
0	17848	4451.452914508173	0
0	17854	4451.502155287508	1
0	17858	4451.866547444782	0
0	17877	4453.623242113179	1
0	17881	4454.47445665451	0
0	17895	4457.285473551273	1
0	17903	4462.764742845103	2
0	17905	4463.518377193193	3
0	17907	4463.586644753096	4
0	17909	4463.727924096411	5
0	17912	4466.448044551945	4
0	17917	4466.623597594507	3
0	17923	4467.241781155115	2
0	17932	4469.590967520223	1
0	17938	4469.715598202998	0
0	17953	4471.263766460407	1
0	17956	4471.918207914239	0
0	17962	4472.610038732464	1
0	17965	4473.315887176206	2
0	17966	4473.50140184008	1
0	17973	4474.114160590908	2
0	17977	4474.828528635473	3
0	17978	4475.39481632225	2
0	17983	4475.997305372714	1
0	17992	4476.925034975553	0
0	17998	4477.587339437979	1
0	18000	4478.188114530192	2
0	18001	4478.512547750236	1
0	18007	4479.284017398613	0
0	18029	4485.436495111428	1
0	18039	4490.122845697326	2
0	18040	4491.012071849837	1
0	18046	4492.06517610142	0
0	18055	4493.634770427125	1
0	18059	4495.041767028752	2
0	18062	4495.996691440419	1
0	18069	4498.465579538706	0
0	18089	4501.729535346858	1
0	18090	4503.109739463228	0
0	18099	4505.957971883807	1
0	18107	4506.511430237536	2
0	18108	4506.755188432227	1
0	18114	4507.114996449838	2
0	18115	4507.473101993325	1
0	18121	4508.540658481553	0
0	18130	4509.043412666407	1
0	18134	4509.968741730259	2
0	18135	4510.044777083662	1
0	18141	4510.803494527644	2
0	18142	4511.828828893235	1
0	18151	4513.158492565503	0
0	18180	4519.17773337842	1
0	18186	4519.699879373703	2
0	18188	4519.783730088728	3
0	18191	4520.320911755905	4
0	18193	4520.888736250203	5
0	18196	4523.317469323578	6
0	18197	4524.585518139742	5
0	18204	4526.573015045035	6
0	18206	4527.125249993843	7
0	18207	4527.150828892233	6
0	18212	4527.198488175531	5
0	18217	4527.506375285681	4
0	18223	4528.938794129343	5
0	18227	4530.170963568043	4
0	18232	4530.522024128724	3
0	18236	4531.145901292281	4
0	18238	4531.740671211998	5
0	18246	4534.049562409266	4
0	18253	4536.833858945683	3
0	18257	4537.028978556923	4
0	18260	4537.818845838009	3
0	18266	4539.339342538108	2
0	18271	4541.013199703303	1
0	18279	4543.445845592737	2
0	18280	4543.622990303738	1
0	18286	4545.037966545309	2
0	18294	4548.044974320555	3
0	18296	4549.911674476145	2
0	18303	4550.949492225261	1
0	18309	4553.018391999826	0
0	18325	4553.967951791277	1
0	18327	4554.009808856706	0
0	18355	4559.609000965771	1
0	18356	4560.196915440993	0
0	18367	4561.428155388204	1
0	18370	4561.822759001171	2
0	18372	4562.476547044962	1
0	18379	4564.308787204977	0
0	18390	4566.205594939048	1
0	18393	4567.417787604969	2
0	18398	4570.516429658477	1
0	18403	4570.669666346024	0
0	18419	4571.607711319184	1
0	18420	4571.872904972558	0
0	18424	4572.597056300355	1
0	18427	4573.036176737349	0
0	18435	4574.270466391149	1
0	18440	4576.911531893829	0
0	18453	4578.382125165825	1
0	18457	4579.54012974565	0
0	18471	4580.899595094671	1
0	18473	4581.341703155695	2
0	18479	4583.262272971348	3
0	18480	4583.769526970741	2
0	18487	4585.77930361384	1
0	18493	4587.000233214849	0
0	18506	4588.657231777503	1
0	18509	4590.350989292794	2
0	18510	4590.351516541394	1
0	18515	4590.476463225054	0
0	18521	4590.978913559198	1
0	18523	4591.420299231279	2
0	18527	4594.287531447673	3
0	18529	4594.821923782828	4
0	18531	4595.52164244398	5
0	18532	4595.632825115303	4
0	18537	4596.585074180303	3
0	18543	4599.732798566845	2
0	18548	4599.96349721656	1
0	18552	4600.593658161201	2
0	18558	4601.255415847908	3
0	18559	4604.269349129929	2
0	18566	4606.82267791996	1
0	18570	4609.961685867238	2
0	18573	4611.368369774769	1
0	18577	4611.697764477608	2
0	18580	4613.497553843286	1
0	18587	4615.036141849448	0
0	18605	4615.782330270911	1
0	18609	4618.55798961415	0
0	18617	4619.447552328859	1
0	18621	4620.711704544565	0
0	18642	4621.686489068802	1
0	18645	4623.212578390702	0
0	18660	4626.082579753433	1
0	18662	4626.567142886743	2
0	18664	4627.551186997761	3
0	18666	4627.575921464797	4
0	18668	4629.368838699484	5
0	18670	4630.37161984266	6
0	18677	4632.015242824706	5
0	18684	4633.857133749861	4
0	18692	4636.129193278538	5
0	18695	4637.009218631563	4
0	18702	4638.142496815197	5
0	18703	4638.762119301594	4
0	18710	4640.530003547005	5
0	18715	4641.293740887373	4
0	18721	4641.591631624137	3
0	18726	4642.041185371242	2
0	18732	4645.248819385183	1
0	18738	4646.142721741163	0
0	18744	4646.151626083968	1
0	18745	4647.286501249442	0
0	18749	4648.265679399657	1
0	18752	4648.641898200966	0
0	18782	4653.283951908856	1
0	18785	4656.431764109245	0
0	18797	4659.434204386851	1
0	18798	4659.745996415832	0
0	18814	4661.891842942379	1
0	18817	4664.34806881079	0
0	18826	4665.193270864884	1
0	18832	4668.357854836641	2
0	18835	4669.684228629988	3
0	18838	4670.540911525996	2
0	18849	4673.351039548463	3
0	18854	4675.090266997946	2
0	18859	4675.358642387375	1
0	18866	4676.461792439478	2
0	18870	4677.473723247225	1
0	18875	4677.800666750668	0
0	18886	4678.868129974118	1
0	18889	4680.666110167463	2
0	18891	4682.193953565961	1
0	18897	4682.494182533157	0
0	18904	4682.644808911356	1
0	18905	4682.878093511764	0
0	18918	4683.646331195184	1
0	18919	4683.801034080116	0
0	18925	4683.913335869684	1
0	18928	4685.386521997298	0
0	18941	4687.863361072067	1
0	18942	4688.039855035323	0
0	18963	4697.442836350045	1
0	18968	4698.769687209677	2
0	18969	4698.977409167664	1
0	18975	4700.356359671827	0
0	18994	4702.338636656735	1
0	18996	4703.27524480421	0
0	19002	4703.289035106156	1
0	19003	4703.458388321328	0
0	19009	4703.473274716862	1
0	19011	4704.408245103462	2
0	19016	4704.615993377085	3
0	19017	4705.791222607786	2
0	19023	4706.035922199991	3
0	19025	4706.51939782787	2
0	19031	4706.840335710357	1
0	19037	4707.07447075816	2
0	19038	4707.499513413531	1
0	19047	4707.868046601145	2
0	19051	4708.356896513567	1
0	19057	4708.611428568407	2
0	19058	4708.639309479893	1
0	19063	4711.247773088472	0
0	19069	4711.97267178242	1
0	19072	4713.566114028104	2
0	19073	4714.839562115056	1
0	19078	4715.538756866277	0
0	19089	4716.992857627975	1
0	19090	4717.27732159276	0
0	19094	4717.602505630761	1
0	19099	4720.546938509637	0
0	19115	4723.54268558386	1
0	19117	4724.530635212638	2
0	19118	4725.140997804994	1
0	19123	4725.275728481492	0
0	19140	4726.447447879588	1
0	19142	4727.341625001969	0
0	19152	4731.535377247786	1
0	19155	4732.57650082383	0
0	19167	4734.706917278486	1
0	19169	4735.494867369069	2
0	19172	4736.525422006459	1
0	19179	4736.835142095533	2
0	19182	4737.349549210391	1
0	19189	4737.874775101502	0
0	19209	4741.823631676149	1
0	19210	4742.848291218867	0
0	19239	4746.625099149244	1
0	19241	4748.026246798237	0
0	19249	4748.719744067507	1
0	19250	4749.569767447877	0
0	19257	4749.875200436892	1
0	19263	4752.928637431101	0
0	19272	4753.351602452985	1
0	19273	4753.366308018583	0
0	19297	4759.151153458843	1
0	19300	4761.038346319764	0
0	19309	4761.333939626717	1
0	19313	4764.084196326957	0
0	19325	4765.588623701553	1
0	19327	4768.164066820444	2
0	19329	4769.059951012596	3
0	19332	4770.801852939517	2
0	19338	4771.433009466313	3
0	19340	4776.994677789931	2
0	19345	4777.435000014777	1
0	19350	4777.69740324167	0
0	19356	4778.082461413233	1
0	19358	4779.162379725883	0
0	19366	4781.108695891429	1
0	19370	4783.480163357483	2
0	19371	4783.574342807067	1
0	19377	4785.3207169225	0
0	19400	4791.767319781099	1
0	19402	4792.14397078223	2
0	19403	4792.726034748797	1
0	19410	4793.429018346796	2
0	19411	4793.894574995325	1
0	19416	4793.915713348773	0
0	19425	4794.525645005435	1
0	19429	4795.361764101612	0
0	19445	4797.55282168746	1
0	19447	4798.424990942968	0
0	19459	4798.995294979729	1
0	19460	4800.300897717212	0
0	19471	4801.935047454908	1
0	19476	4802.993142813553	2
0	19477	4803.447320851115	1
0	19487	4804.565409408654	0
0	19499	4805.86310545668	1
0	19500	4806.318431643013	0
0	19513	4807.832611276619	1
0	19518	4812.91559634395	2
0	19519	4814.237390466248	1
0	19524	4814.680272847893	0
0	19540	4817.230169138013	1
0	19543	4817.921968590566	0
0	19577	4821.152921961176	1
0	19579	4822.442406188073	2
0	19583	4823.16616497796	3
0	19585	4823.206002235222	4
0	19586	4824.249395434513	3
0	19592	4824.604348586296	4
0	19597	4826.6039938133	5
0	19598	4826.645791208262	4
0	19603	4826.875535295278	3
0	19609	4828.228054848428	2
0	19614	4829.493463873569	1
0	19623	4832.247213443706	2
0	19624	4832.28197026867	1
0	19633	4834.3772300142	2
0	19635	4835.431253771124	1
0	19643	4837.068801052304	0
0	19649	4837.266099926476	1
0	19652	4837.829814653091	0
[...]
5	112458	27504.702899237482	0.17511198261
5	112466	27513.724822142006	0.918915884198
5	112482	27517.065199193329	0.414257238778
5	112490	27518.937795411732	0.846569609025
5	112509	27521.226285906482	0.635463371861
5	112525	27523.9808869621	3.171195849852
5	112547	27527.505106665622	4.344270258721
5	112576	27531.762490124902	7.391124313823
5	112587	27532.29937820018	7.253156820003
5	112592	27533.0887196068	5.593205444868
5	112601	27534.541375047659	6.819443703915
5	112629	27552.273963688223	1.875126720768
5	112636	27553.551554715026	0.288092259746
5	112654	27561.841887751049	8.199037649463
5	112713	27575.881398185446	16.396892886888
5	112718	27576.891817797412	13.851050249487
5	112723	27577.371855971244	13.083914068137
5	112732	27578.167021164828	9.251127239681
5	112749	27585.581337319064	16.231408726572
5	112783	27590.485843535789	17.282683570901
5	112795	27591.064268827831	15.922846794088
5	112817	27595.579387833851	18.060552883695
5	112822	27595.68867368358	13.104495897158
5	112830	27599.995756997046	9.330601760199
5	112848	27606.568694208999	4.649400857366
5	113075	27662.484315125929	37.57936365828
5	113081	27664.895149358589	38.168144778319
5	113086	27666.572388546617	33.065938924004
5	113091	27669.785437414253	31.493251241532
5	113098	27673.633442347665	33.988158247374
5	113107	27675.30411103029	31.682921744541
5	113120	27677.178049556581	30.444196676867
5	113131	27679.794572934153	32.811650471981
5	113138	27681.482982946112	23.241276444931
5	113159	27689.496024042279	17.386987264992
5	113212	27697.686251630986	22.57851521919
5	113227	27701.451789260476	15.612166925439
5	113232	27702.122137569077	16.139155271929
5	113239	27704.158648541743	17.450134347623
5	113250	27710.977568032652	22.514259357196
5	113271	27711.815518118774	21.681734591115
5	113308	27715.677526226062	17.807845039352
5	113315	27717.18609851933	18.747102665223
5	113328	27721.176985681562	22.735994767029
5	113349	27726.934591378333	25.800435789507
5	113375	27734.77753694956	31.24096026223
5	113381	27735.30107227022	26.439895067691
5	113387	27736.171553622317	23.583268162973
5	113392	27739.169099867291	17.443302652919
5	113399	27740.297494805437	17.612620844806
5	113408	27743.591091248426	11.433690993332
5	113415	27747.813609371579	14.582616190592
5	113427	27751.269322064636	11.715775827476
5	113444	27753.590334217991	11.747326894068
5	113467	27757.9779629105	15.044564246845
5	113475	27760.10222332193	4.442315052908
5	113487	27763.885579042555	4.903585697661
5	113508	27767.206742624594	5.216555921839
5	113540	27779.32575372251	2.294196487415
5	113616	27810.404984230257	1.697545577055
5	113668	27834.310772184397	8.80861692406
5	113673	27834.413851922067	8.095993182617
5	113678	27836.377595736831	7.263087908946
5	113693	27842.847688302093	9.39441328494
5	113773	27859.467289878475	22.705717504462
5	113782	27861.697609299693	23.539441914096
5	113793	27863.928447371759	23.782497201277
5	113800	27864.649597943048	21.662988030137
5	113815	27867.350348828981	21.864913076889
5	113830	27873.053452770507	27.364710420206
5	113847	27874.050800095022	7.302052827171
5	113927	27893.392144723491	7.201574854887
5	113933	27896.393616768216	3.532825890107
5	113999	27913.37689091552	3.433327221585
5	114009	27916.649790585218	4.805936988176
5	114023	27920.049155837651	4.536314303855
5	114073	27933.356672818161	3.851978679699
5	114095	27936.579798510318	6.793438103283
5	114099	27937.629319424475	1.60111660715
5	114130	27945.658270716469	1.757851852374
5	114190	27963.508400610232	9.119098550449
5	114198	27964.386637231345	4.337374750873
5	114211	27965.827825379513	5.46503721537
5	114265	27987.043745089011	1.277532154458
5	114294	28000.540439217716	1.0518125057
5	114325	28007.023081221668	5.552187117726
5	114341	28012.289493674519	5.705002361656
5	114366	28017.966550048966	8.479807915276
5	114404	28032.561763189064	4.902148755611
5	114413	28033.349851012365	2.095368412487
5	114428	28041.405522996091	4.892926414952
5	114490	28054.173248174246	14.96375669324
5	114496	28055.082383986286	14.756885166232
5	114505	28055.954334218263	13.150279402334
5	114510	28056.445931332528	11.478220532366
5	114515	28058.790676727903	13.394362162004
5	114526	28059.575113876176	13.650175578846
5	114542	28062.18602380295	12.636371547048
5	114551	28063.170312582254	11.537213059533
5	114589	28069.568801531048	10.256302098198
5	114603	28073.575953895963	6.349350279933
5	114621	28074.696941152424	7.298824096424
5	114629	28076.035393183728	7.114559137781
5	114634	28077.531952971285	4.145621627725
5	114647	28083.010485389032	7.971209204507
5	114745	28095.20871179521	8.617602921156
5	114752	28095.543175591814	6.086906737361
5	114761	28099.10668435166	7.839235678531
5	114778	28102.492858067299	7.252601619984
5	114798	28108.470935870279	9.911615375508
5	114825	28112.059486966263	0.64469045533
5	114843	28116.75224733953	3.796243238887
5	114866	28122.38239523976	1.811313815085
5	114882	28128.53510949376	2.814910489902
5	114897	28133.522729863022	0.924163431745
5	114905	28139.056545457938	1.309802719967
5	114912	28143.991983265781	0.587366897331
5	114942	28150.954677549162	0.158965354676
5	115002	28164.910122930944	5.203961421738
5	115015	28168.107537492841	4.862139985168
5	115019	28169.225857200789	4.257985471902
5	115046	28177.116487215904	2.775400904871
5	115063	28181.497875081625	0.981759182172
5	115104	28195.923098697162	5.142986416033
5	115108	28196.017176338707	1.076941381829
5	115124	28201.558386958022	0.384266369965
5	115136	28206.574322088546	4.011118797263
5	115155	28211.503532002671	4.194914790832
5	115182	28219.870501777083	6.399850012139
5	115197	28224.437929150607	10.23774412465
5	115229	28234.540390273872	20.163608259306
5	115249	28236.005906943718	16.537695751927
5	115260	28236.274337175641	15.354627632133
5	115267	28239.509399039943	16.485112403895
5	115274	28241.539036594074	16.225266692859
5	115288	28245.262169713227	10.926104751623
5	115299	28248.046880131016	6.288528497578
5	115323	28251.83258900783	0.450944251669
5	115334	28255.167653286246	1.445025679717
5	115347	28260.253089689246	0.177964821484
5	115361	28263.029337623286	2.486848865752
5	115374	28263.585007719852	1.31850341532
5	115383	28267.787875233811	4.222847186798
5	115396	28270.993042294476	5.296498931325
5	115409	28275.282348307995	2.960095993315
5	115429	28279.651145828007	2.076343702414
5	115456	28289.40515520199	1.324083769735
5	115465	28292.95000864809	0.161271865733
5	115501	28307.071662492527	6.624930682844
5	115531	28311.047895772104	7.511165625308
5	115540	28313.563111183772	8.588934193403
5	115554	28317.109113196394	9.951166901759
5	115581	28323.257560012966	5.605546890258
5	115614	28331.41086593901	5.760055650893
5	115634	28338.269797076622	9.742354402839
5	115661	28343.294111967688	0.213429725686
5	115669	28345.083838656067	1.167553130062
5	115708	28363.420636366875	0.767894565747
5	115715	28368.004017174628	4.205242338565
5	115731	28375.679051169059	6.510051037356
5	115769	28379.149489250967	3.429483084196
5	115818	28392.795208889273	1.316609358381
5	115853	28401.644559881786	4.08008550707
5	115857	28401.819849212776	3.491349747719
5	115869	28404.279442483962	2.086732009333
5	115958	28426.310378796472	19.678899517567
5	115963	28427.139850843696	12.925297177786
5	115970	28431.361834686803	16.845742847274
5	115983	28432.651283068016	16.561834310755
5	115994	28434.881552496613	18.004290073923
5	116032	28437.660031471272	12.837772492506
5	116038	28439.087391260188	7.104379814876
5	116047	28443.522484401654	6.689782134892
5	116060	28451.084062578039	9.615138740733
5	116085	28455.774249964247	13.138470553179
5	116094	28461.098314072252	17.195567931826
5	116107	28463.594227837518	4.814013515738
5	116120	28466.272608184788	4.7630104854
5	116201	28477.978812665934	13.771903936298
5	116211	28481.493873441656	16.993034657152
5	116230	28484.520558938989	9.573121386452
5	116241	28490.035825808509	6.741475560236
5	116269	28497.499081365474	10.008318841251
5	116273	28499.11274529358	8.357017334334
5	116295	28503.125630012407	1.466073617878
5	116317	28506.489279925057	4.014172908386
5	116353	28513.985193400893	9.302100418818
5	116409	28525.810922026298	20.149378770453
5	116423	28527.52417051489	20.528657612385
5	116432	28528.050325151507	20.949005516446
5	116445	28530.133451100435	19.848276751215
5	116450	28531.344208440486	6.869526564368
5	116459	28534.477998759688	7.547729966707
5	116499	28540.002882243919	12.017605707291
5	116504	28541.772708210421	12.074617268748
5	116518	28545.140875546646	12.3541031655
5	116568	28557.129540806895	20.338651625597
5	116575	28557.666191202297	20.440005286372
5	116588	28559.689233663361	21.589851619597
5	116594	28559.843135810224	15.959929117321
5	116598	28560.39572917103	1.760230748458
5	116629	28563.734345163762	1.264227369912
5	116652	28574.431775977853	0.086008605279
5	116660	28576.454791462936	0.594141790959
5	116675	28577.839999696333	0.169343024438
5	116686	28579.401100161906	1.442203207471
5	116703	28585.541786703689	1.721557800671
5	116717	28593.201043331423	1.847607730405
5	116730	28596.658679967697	3.314029022214
5	116739	28598.091540272446	4.286740250141
5	116748	28601.678165787848	2.023965345507
5	116762	28605.858445071111	3.213174046548
5	116779	28610.11267115164	1.003221689416
5	116815	28620.059725098627	3.822857043284
5	116819	28620.775230965395	2.475840987891
5	116889	28638.968039527056	5.680581950241
5	116903	28644.787032339762	0.981616908032
5	116929	28655.503927617386	9.653551740817
5	116981	28668.301101725896	15.172473872643
5	116993	28669.592124534371	8.960207206171
5	116999	28672.129189904555	4.264000952388
5	117007	28674.141019537189	1.465511203579
5	117037	28681.121399845889	0.087422128588
5	117102	28694.420672147443	6.711347889225
5	117128	28700.422986178921	8.138193008414
5	117139	28700.72847414319	6.245868604178
5	117150	28702.297953750357	6.72772495004
5	117220	28717.280487529901	21.426489438249
5	117238	28722.54197224794	21.403198887594
5	117258	28726.49293342316	16.962433897667
5	117263	28729.548577810752	9.966937338497
5	117270	28732.33617947452	6.282122771681
5	117307	28737.948164488271	0.230521354352
5	117316	28742.896355140103	3.525078140369
5	117339	28751.755457559874	2.824068496026
5	117403	28771.161938130303	4.166356437712
5	117440	28779.500002794763	0.297329428384
5	117480	28793.372800915222	0.287374876051
5	117520	28804.905533171406	2.272222637597
5	117532	28808.283531629729	3.822066492439
5	117641	28828.218767587979	19.302350479841
5	117668	28835.067674241655	25.723717872213
5	117673	28835.404307816885	20.741661037693
5	117678	28836.028538032478	16.900650999247
5	117683	28836.943750461829	17.572248589475
5	117696	28840.659543671403	20.481391659268
5	117742	28849.922045089368	28.974222296329
5	117750	28852.301048839471	30.519064739675
5	117759	28858.671275065515	34.894600227488
5	117772	28860.742977656087	33.227786536763
5	117781	28862.683973366598	32.202545853489
5	117810	28864.351676033228	13.739227877964
5	117816	28865.064130703741	12.454929189016
5	117825	28868.398050871246	8.982996412504
5	117832	28873.657399896772	9.998965421854
5	117846	28877.480426814297	13.695709215714
5	117906	28885.79631051428	19.698797290371
5	117913	28887.77478661124	9.693710054901
5	117945	28895.929398684566	4.600495519842
5	117949	28899.125817873076	6.536989642479
5	117961	28908.728466800799	4.043657754191
5	117972	28915.66819920603	10.781664764133
5	118003	28921.451325621263	14.309908622073
5	118019	28926.124738160372	10.973817358905
5	118024	28926.526298536796	10.393692833745
5	118037	28929.335267075245	6.092074602486
5	118054	28930.06609960166	6.060139780499
5	118064	28931.935613136383	5.255365443921
5	118095	28943.5869715646	15.618878670158
5	118106	28945.246549545344	8.041234557039
5	118113	28946.475210543625	9.158766835806
5	118140	28958.469956592641	6.756817339331
5	118167	28963.636857767314	1.139506573769
5	118218	28973.838201690874	2.919887125316
5	118289	28992.271928144771	19.596325162728
5	118296	28992.802901678442	8.748884207237
5	118307	28995.431263873713	10.639169583667
5	118312	28997.629907746665	11.157621125508
5	118321	29001.612272802497	10.465753594719
5	118326	29003.162437573123	11.973827276191
5	118331	29003.914579630004	3.224779730997
5	118343	29007.727535901477	2.450570798305
5	118354	29009.886651254746	3.237120556497
5	118406	29029.372466783045	8.609539057751
5	118417	29031.495372520748	9.580528629182
5	118462	29041.680891954894	6.2458317666
5	118470	29043.133709009248	2.987054756278
5	118524	29053.243283748208	9.034968710288
5	118529	29053.721368406775	5.467174313023
5	118541	29058.094206263407	5.671794046028
5	118584	29067.760776656595	8.005270279934
5	118588	29068.196817758847	8.08101409386
5	118613	29078.859596327013	2.130635955395
5	118623	29082.239351137081	1.356379293873
5	118627	29084.354409842122	2.419463405965
5	118653	29089.445379817354	4.119445235279
5	118662	29091.421447885655	3.231094643628
5	118689	29101.051862305608	1.468815645321
5	118710	29110.729509268572	1.159076453361
5	118736	29117.236028451535	4.983661982198
5	118740	29118.158403820097	5.859478577085
5	118747	29121.073317336779	2.863567912218
5	118779	29132.114783972122	2.810327378612
5	118808	29144.190025801896	2.315848954358
5	118813	29146.132047271361	4.155920387855
5	118817	29148.156608846909	4.359656795751
5	118825	29149.752790123032	1.207049167029
5	118850	29156.727363924307	0.439740288816
5	118869	29161.30061104481	1.61087048447
5	118881	29162.947007048645	0.629076186765
5	118891	29166.9019689204	1.479584815002
5	118904	29169.779303339411	4.014441191505
5	119034	29198.723863771695	31.222276065807
5	119045	29199.228146476994	30.016827828407
5	119052	29201.346216543719	19.385835120099
5	119057	29203.212675087214	20.442128277155
5	119070	29207.613301649898	8.317935597405
5	119077	29208.648066205495	4.599243563887
5	119089	29209.9935288482	5.719858379313
5	119111	29214.61134748223	10.286981442693
5	119137	29220.823314709938	14.939798244734
5	119144	29221.916077237096	10.037589046971
5	119149	29224.504664734129	11.138616522458
5	119154	29225.91802522225	7.910727005662
5	119165	29227.43089879616	6.111321950231
5	119203	29236.3873959532	10.347900832379
5	119217	29239.193311475139	9.552190627329
5	119231	29241.688644720495	11.697718438237
5	119289	29259.438804406246	0.922844734292
5	119329	29267.086032370269	0.236744837023
5	119366	29275.759201281654	0.034753380514
5	119383	29278.423477411237	0.38925330875
5	119403	29285.14616620777	0.95942773052
5	119424	29288.695379856504	3.036544989892
5	119477	29311.173896453323	4.695272946896
5	119482	29311.247801892326	4.620495432282
5	119497	29315.699631511803	6.19118579509
5	119562	29330.080817667562	14.585357335083
5	119601	29336.644949184182	21.046589744061
5	119606	29337.026705506077	16.036860503782
5	119615	29338.240830930057	14.822438074982
5	119675	29346.426975836498	11.348768725651
5	119686	29348.74442194908	6.034957500766
5	119696	29350.538490420071	3.539085110116
5	119708	29359.010135797163	1.166600492457
5	119721	29362.044924055525	3.545177854341
5	119726	29364.748430607903	3.105929472521
5	119734	29366.21300849569	0.602832629701
5	119784	29384.172202077495	2.355538510954
5	119794	29386.049469678066	3.810211985132
5	119821	29391.567892234435	0.815752069833
5	119828	29394.605580801132	0.444904718092
5	119851	29401.481813247523	2.940846033038
5	120011	29437.38497205737	37.000841620393
5	120020	29439.1286713934	28.922092959007
5	120030	29440.314159875513	24.307534666101
5	120057	29446.008796801934	26.140384203125
5	120062	29446.652926183865	23.225981971912
5	120070	29447.818961464158	23.042949922492
5	120093	29454.107580188631	23.375489642488
5	120176	29469.764104422354	34.708360835392
5	120193	29475.474730182236	37.927705335264
5	120217	29478.561323514327	33.69049224964
5	120297	29498.06309457005	43.113082902262
5	120302	29498.172205725345	38.417421566927
5	120309	29500.384904516282	36.932284864105
5	120323	29501.701293165832	27.86509540881
5	120339	29509.254025328512	34.741690013438
5	120363	29515.958262247345	34.889776417289
5	120400	29522.395876064315	37.946455645517
5	120412	29522.622949924687	33.492665575817
5	120427	29528.640345941794	38.317774951203
5	120434	29535.384917967408	34.558479226377
5	120448	29540.293891498706	24.259796154139
5	120504	29550.539911860799	28.819360068869
5	120723	29607.726080772953	82.412801543171
5	120757	29612.171425840848	86.068526208389
5	120762	29612.614558417793	82.198742764338
5	120773	29620.712094229971	85.320865694226
5	120783	29621.478868566894	82.770446113219
5	120797	29625.177951902392	82.152251991727
5	121004	29682.158943261378	136.03905461036
5	121054	29693.659571794492	130.42084008031
5	121059	29694.195122032808	127.87647613687
5	121064	29695.332037854848	122.85575123151
5	121071	29696.563585646027	120.7881324732
5	121082	29698.605697342165	118.29479116823
5	121088	29701.170794409648	117.69709130408
5	121097	29701.975673145137	113.64701957854
5	121112	29705.077866179559	115.96291119512
5	121120	29706.09184292437	111.89340931949
5	121132	29707.991199260422	110.73973161702
5	121143	29710.356770579201	98.470876721224
5	121250	29735.541678942131	107.86838227096
5	121255	29735.749558340047	101.302965087
5	121260	29735.891214322514	100.25155617594
5	121267	29738.63321200842	102.5644674857
5	121278	29741.388901611906	102.65173088162
5	121287	29744.212723060964	102.33956724229
5	121300	29747.527288620546	104.85069563793
5	121325	29750.325834350175	106.90090631154
5	121330	29751.338603655391	104.41231776954
5	121335	29753.510928176174	104.80874442397
5	121340	29754.992347374256	96.118945679024
5	121349	29758.830194791422	97.429848199967
5	121383	29764.493085415696	99.185546125212
5	121414	29772.092986896143	103.5624887767
5	121425	29774.902759997622	102.64918979898
5	121445	29781.238180154784	103.73996233248
5	121489	29791.593070787643	107.47378328654
5	121494	29791.613849939995	104.7033709958
5	121503	29796.622512264358	108.71325000751
5	121511	29797.784705700779	105.72000750399
5	121525	29798.822343200565	97.496748710184
5	121537	29799.343514186868	95.323718234722
5	121547	29807.7234388285	103.28783655052
5	121557	29809.74401691809	99.490365386123
5	121563	29811.777975032287	97.170541353511
5	121571	29812.988275901563	92.703034028522
5	121578	29813.391482976992	86.538246029472
5	121590	29816.065689360876	74.37975316365
5	121597	29817.793627983305	74.57243991808
5	121607	29819.153647854507	74.343582140914
5	121620	29825.003619075873	77.938162427123
5	121640	29827.603310653706	67.797135155577
5	121649	29829.451249896236	65.98103419757
5	121666	29833.068345996128	58.740244905631
5	121673	29835.192819445852	58.514492238608
5	121685	29837.038095101558	54.755415846908
5	121692	29837.783484055798	49.269179442977
5	121711	29840.06834614649	50.021874509743
5	121718	29841.833865829014	49.37977526534
5	121723	29842.449735703244	43.516125421961
5	121734	29845.122674796286	33.32541457313
5	121976	29910.659634186594	96.406165004124
5	121983	29911.471666413363	87.30058690599
5	121988	29912.960044406578	85.689256747784
5	121995	29916.164873737817	80.215706968319
5	122000	29917.574432834807	68.591972246759
5	122007	29918.841965789085	67.015756627401
5	122012	29920.394266167273	66.251969419779
5	122021	29921.741435399181	42.836198035376
5	122034	29926.514150942936	35.59624437197
5	122044	29928.223227492179	32.058068236052
5	122056	29931.23744735645	33.511420060029
5	122075	29934.212519257383	29.457146753019
5	122088	29936.633749750475	28.910137361283
5	122098	29939.630982551201	28.252978955871
5	122125	29943.306629312678	25.322679979612
5	122134	29946.924346061037	26.314694328514
5	122163	29952.456054630398	22.988313227884
5	122168	29952.511570441697	16.408737852881
5	122175	29952.783819011451	10.816554019936
5	122185	29955.421278345512	8.536782969929
5	122197	29957.260126130404	9.200461644113
5	122208	29964.211206491034	11.657636581514
5	122240	29971.131069449299	16.141199967968
5	122286	29979.698178037522	1.364047592698
5	122311	29985.524297210183	0.706921642955
5	122326	29987.942072107543	0.044553906694
5	122350	29991.990664621159	0.729771662483
5	122367	29998.551204198338	0.115327157741

